@<TRIPOS>MOLECULE
*****
 35 38 0 0 0
SMALL
GASTEIGER

@<TRIPOS>ATOM
      1 C          -4.4498  -15.5520   23.0719 C.2     1  UNL1        0.2015
      2 O          -4.2546  -14.2312   22.3884 O.2     1  UNL1       -0.2864
      3 C          -5.2934  -15.6388   24.3092 C.ar    1  UNL1        0.0611
      4 C          -4.8059  -15.4967   25.7206 C.ar    1  UNL1        0.1037
      5 N          -5.9839  -15.6531   26.6358 N.ar    1  UNL1       -0.2269
      6 C          -7.1995  -15.8919   25.7901 C.ar    1  UNL1        0.1407
      7 N          -8.6399  -16.1162   26.1437 N.ar    1  UNL1       -0.3374
      8 C          -9.6535  -16.3318   25.0592 C.ar    1  UNL1        0.0734
      9 C          -9.2267  -16.3230   23.6212 C.ar    1  UNL1        0.0173
     10 C          -7.7864  -16.0986   23.2677 C.ar    1  UNL1        0.0046
     11 C          -6.7728  -15.8831   24.3521 C.ar    1  UNL1        0.0386
     12 H          -8.9200  -16.1220   27.0875 H       1  UNL1        0.1674
     13 C         -10.2404  -16.5385   22.5367 C.ar    1  UNL1        0.0068
     14 C         -11.3659  -17.5081   22.7441 C.ar    1  UNL1        0.0209
     15 C         -12.3796  -17.7237   21.6596 C.ar    1  UNL1        0.1013
     16 N         -12.2678  -16.9696   20.3678 N.ar    1  UNL1       -0.2165
     17 C         -11.1422  -15.9999   20.1604 C.ar    1  UNL1        0.2223
     18 F         -11.0303  -15.2458   18.8686 F       1  UNL1       -0.1832
     19 C         -10.1286  -15.7844   21.2449 C.ar    1  UNL1        0.0497
     20 C          -3.9481  -19.2833   21.8165 C.ar    1  UNL1        0.0920
     21 C          -2.5043  -19.2542   21.4108 C.ar    1  UNL1        0.0204
     22 C          -1.7090  -17.9910   21.5589 C.ar    1  UNL1        0.0312
     23 C          -2.3574  -16.7570   22.1126 C.ar    1  UNL1        0.1454
     24 F          -1.5621  -15.4939   22.2607 F       1  UNL1       -0.2040
     25 C          -3.8012  -16.7861   22.5182 C.ar    1  UNL1        0.0951
     26 C          -4.5966  -18.0492   22.3701 C.ar    1  UNL1        0.1598
     27 F          -6.0404  -18.0782   22.7758 F       1  UNL1       -0.2026
     28 N          -4.7435  -20.5464   21.6684 N.pl3   1  UNL1       -0.2166
     29 H          -4.4229  -21.3811   22.0803 H       1  UNL1        0.1734
     30 S          -6.0273  -20.5378   20.8926 S.O2    1  UNL1        0.0540
     31 O          -6.7910  -20.8151   22.1535 O.2     1  UNL1       -0.1545
     32 O          -5.2635  -20.2604   19.6318 O.2     1  UNL1       -0.1545
     33 C          -7.3110  -20.5291   20.1168 C.3     1  UNL1        0.1724
     34 C          -9.6272  -19.4615   19.6211 C.3     1  UNL1        0.0019
     35 C          -8.2917  -19.4093   20.3020 C.3     1  UNL1        0.0273
@<TRIPOS>BOND
     1    34    35    1
     2    35    33    1
     3    33    30    1
     4    30    31    2
     5    30    32    2
     6    30    28    1
     7    28    20    1
     8    20    21   ar
     9    21    22   ar
    10    22    23   ar
    11    23    24    1
    12    23    25   ar
    13    25     1    1
    14     1     2    2
    15     1     3    1
    16     3     4   ar
    17     4     5   ar
    18     5     6   ar
    19     6     7   ar
    20     7     8   ar
    21     8     9   ar
    22     9    13    1
    23    13    14   ar
    24    14    15   ar
    25    15    16   ar
    26    16    17   ar
    27    17    18    1
    28    17    19   ar
    29     9    10   ar
    30    10    11   ar
    31    25    26   ar
    32    26    27    1
    33    26    20   ar
    34    11     3   ar
    35    11     6    1
    36    19    13   ar
    37    28    29    1
    38     7    12    1
@<TRIPOS>MOLECULE
*****
 35 38 0 0 0
SMALL
GASTEIGER

@<TRIPOS>ATOM
      1 C           4.6113   -3.7136   21.0925 C.2     1  UNL1        0.2015
      2 O           3.9111   -5.0172   20.8477 O.2     1  UNL1       -0.2864
      3 C           4.9292   -3.2845   22.4942 C.ar    1  UNL1        0.0611
      4 C           5.9462   -3.9136   23.3997 C.ar    1  UNL1        0.1037
      5 N           5.9314   -3.1689   24.7016 N.ar    1  UNL1       -0.2269
      6 C           4.9052   -2.0795   24.6008 C.ar    1  UNL1        0.1407
      7 N           4.4548   -1.0317   25.5751 N.ar    1  UNL1       -0.3374
      8 C           3.3849   -0.0553   25.1850 C.ar    1  UNL1        0.0734
      9 C           2.7656   -0.1268   23.8207 C.ar    1  UNL1        0.0173
     10 C           3.2160   -1.1746   22.8465 C.ar    1  UNL1        0.0046
     11 C           4.2858   -2.1509   23.2366 C.ar    1  UNL1        0.0386
     12 H           4.8613   -0.9848   26.4705 H       1  UNL1        0.1674
     13 C           1.6957    0.8497   23.4307 C.ar    1  UNL1        0.0068
     14 C           1.2331    1.8866   24.4109 C.ar    1  UNL1        0.0209
     15 C           0.1632    2.8630   24.0209 C.ar    1  UNL1        0.1013
     16 N          -0.4440    2.8025   22.6506 N.ar    1  UNL1       -0.2165
     17 C           0.0186    1.7655   21.6704 C.ar    1  UNL1        0.2223
     18 F          -0.5886    1.7050   20.3002 F       1  UNL1       -0.1832
     19 C           1.0884    0.7891   22.0605 C.ar    1  UNL1        0.0497
     20 C           4.3534   -1.0676   18.1459 C.ar    1  UNL1        0.0920
     21 C           5.7585   -1.0895   17.6214 C.ar    1  UNL1        0.0204
     22 C           6.7812   -1.9861   18.2539 C.ar    1  UNL1        0.0312
     23 C           6.3989   -2.8608   19.4109 C.ar    1  UNL1        0.1454
     24 F           7.4216   -3.7574   20.0434 F       1  UNL1       -0.2040
     25 C           4.9938   -2.8389   19.9354 C.ar    1  UNL1        0.0951
     26 C           3.9710   -1.9422   19.3029 C.ar    1  UNL1        0.1598
     27 F           2.5659   -1.9203   19.8274 F       1  UNL1       -0.2026
     28 N           3.3306   -0.1709   17.5133 N.pl3   1  UNL1       -0.2166
     29 H           2.9642   -0.3911   16.6265 H       1  UNL1        0.1734
     30 S           2.8663    1.0611   18.2320 S.O2    1  UNL1        0.0540
     31 O           1.4627    0.5320   18.2321 O.2     1  UNL1       -0.1545
     32 O           4.2699    1.5901   18.2320 O.2     1  UNL1       -0.1545
     33 C           2.4020    2.2931   18.9507 C.3     1  UNL1        0.1724
     34 C           2.7664    4.1036   20.7781 C.3     1  UNL1        0.0019
     35 C           3.2393    2.8822   20.0471 C.3     1  UNL1        0.0273
@<TRIPOS>BOND
     1    34    35    1
     2    35    33    1
     3    33    30    1
     4    30    31    2
     5    30    32    2
     6    30    28    1
     7    28    20    1
     8    20    21   ar
     9    21    22   ar
    10    22    23   ar
    11    23    24    1
    12    23    25   ar
    13    25     1    1
    14     1     2    2
    15     1     3    1
    16     3     4   ar
    17     4     5   ar
    18     5     6   ar
    19     6     7   ar
    20     7     8   ar
    21     8     9   ar
    22     9    13    1
    23    13    14   ar
    24    14    15   ar
    25    15    16   ar
    26    16    17   ar
    27    17    18    1
    28    17    19   ar
    29     9    10   ar
    30    10    11   ar
    31    25    26   ar
    32    26    27    1
    33    26    20   ar
    34    11     3   ar
    35    11     6    1
    36    19    13   ar
    37    28    29    1
    38     7    12    1
@<TRIPOS>MOLECULE
*****
 35 38 0 0 0
SMALL
GASTEIGER

@<TRIPOS>ATOM
      1 C           1.1561    2.6626   24.1790 C.2     1  UNL1        0.2015
      2 O           2.4033    3.4921   24.2563 O.2     1  UNL1       -0.2864
      3 C           0.6307    2.2206   22.8453 C.ar    1  UNL1        0.0611
      4 C          -0.4979    2.8551   22.0879 C.ar    1  UNL1        0.1037
      5 N          -0.6843    2.0930   20.8094 N.ar    1  UNL1       -0.2269
      6 C           0.3291    0.9875   20.7767 C.ar    1  UNL1        0.1407
      7 N           0.6167   -0.0807   19.7637 N.ar    1  UNL1       -0.3374
      8 C           1.7171   -1.0700   20.0090 C.ar    1  UNL1        0.0734
      9 C           2.5299   -0.9912   21.2673 C.ar    1  UNL1        0.0173
     10 C           2.2422    0.0770   22.2803 C.ar    1  UNL1        0.0046
     11 C           1.1418    1.0664   22.0350 C.ar    1  UNL1        0.0386
     12 H           0.0833   -0.1324   18.9379 H       1  UNL1        0.1674
     13 C           3.6304   -1.9806   21.5126 C.ar    1  UNL1        0.0068
     14 C           4.2409   -2.7239   20.3616 C.ar    1  UNL1        0.0209
     15 C           5.3414   -3.7133   20.6069 C.ar    1  UNL1        0.1013
     16 N           5.8312   -3.9594   22.0031 N.ar    1  UNL1       -0.2165
     17 C           5.2206   -3.2161   23.1541 C.ar    1  UNL1        0.2223
     18 F           5.7104   -3.4622   24.5503 F       1  UNL1       -0.1832
     19 C           4.1202   -2.2267   22.9088 C.ar    1  UNL1        0.0497
     20 C           0.2030    0.7324   27.5131 C.ar    1  UNL1        0.0920
     21 C          -1.0100    1.5001   27.9482 C.ar    1  UNL1        0.0204
     22 C          -1.5010    2.6553   27.1269 C.ar    1  UNL1        0.0312
     23 C          -0.7790    3.0428   25.8705 C.ar    1  UNL1        0.1454
     24 F          -1.2700    4.1980   25.0492 F       1  UNL1       -0.2040
     25 C           0.4340    2.2751   25.4354 C.ar    1  UNL1        0.0951
     26 C           0.9250    1.1200   26.2567 C.ar    1  UNL1        0.1598
     27 F           2.1380    0.3523   25.8215 F       1  UNL1       -0.2026
     28 N           0.6940   -0.4227   28.3344 N.pl3   1  UNL1       -0.2166
     29 H           0.2139   -1.2820   28.3118 H       1  UNL1        0.1734
     30 S           1.9163   -0.2687   29.1901 S.O2    1  UNL1        0.0540
     31 O           2.6914   -1.1304   28.2379 O.2     1  UNL1       -0.1545
     32 O           1.1411    0.5929   30.1423 O.2     1  UNL1       -0.1545
     33 C           3.1385   -0.1146   30.0458 C.3     1  UNL1        0.1724
     34 C           3.6668   -0.1043   32.5896 C.3     1  UNL1        0.0019
     35 C           3.2330   -0.8390   31.3560 C.3     1  UNL1        0.0273
@<TRIPOS>BOND
     1    34    35    1
     2    35    33    1
     3    33    30    1
     4    30    31    2
     5    30    32    2
     6    30    28    1
     7    28    20    1
     8    20    21   ar
     9    21    22   ar
    10    22    23   ar
    11    23    24    1
    12    23    25   ar
    13    25     1    1
    14     1     2    2
    15     1     3    1
    16     3     4   ar
    17     4     5   ar
    18     5     6   ar
    19     6     7   ar
    20     7     8   ar
    21     8     9   ar
    22     9    13    1
    23    13    14   ar
    24    14    15   ar
    25    15    16   ar
    26    16    17   ar
    27    17    18    1
    28    17    19   ar
    29     9    10   ar
    30    10    11   ar
    31    25    26   ar
    32    26    27    1
    33    26    20   ar
    34    11     3   ar
    35    11     6    1
    36    19    13   ar
    37    28    29    1
    38     7    12    1
@<TRIPOS>MOLECULE
*****
 35 38 0 0 0
SMALL
GASTEIGER

@<TRIPOS>ATOM
      1 C           6.2127   -3.9083   22.6284 C.2     1  UNL1        0.2015
      2 O           7.0867   -5.0860   22.9428 O.2     1  UNL1       -0.2864
      3 C           5.6125   -3.1013   23.7414 C.ar    1  UNL1        0.0611
      4 C           5.9829   -3.1881   25.1923 C.ar    1  UNL1        0.1037
      5 N           5.1358   -2.2063   25.9464 N.ar    1  UNL1       -0.2269
      6 C           4.2420   -1.5128   24.9614 C.ar    1  UNL1        0.1407
      7 N           3.1978   -0.4491   25.1295 N.ar    1  UNL1       -0.3374
      8 C           2.4483    0.0615   23.9347 C.ar    1  UNL1        0.0734
      9 C           2.7430   -0.4917   22.5719 C.ar    1  UNL1        0.0173
     10 C           3.7871   -1.5554   22.4039 C.ar    1  UNL1        0.0046
     11 C           4.5366   -2.0659   23.5987 C.ar    1  UNL1        0.0386
     12 H           3.0045   -0.0860   26.0239 H       1  UNL1        0.1674
     13 C           1.9934    0.0189   21.3771 C.ar    1  UNL1        0.0068
     14 C           0.7079    0.7693   21.5626 C.ar    1  UNL1        0.0209
     15 C          -0.0416    1.2799   20.3678 C.ar    1  UNL1        0.1013
     16 N           0.4944    1.0401   18.9875 N.ar    1  UNL1       -0.2165
     17 C           1.7799    0.2897   18.8020 C.ar    1  UNL1        0.2223
     18 F           2.3159    0.0500   17.4217 F       1  UNL1       -0.1832
     19 C           2.5294   -0.2208   19.9968 C.ar    1  UNL1        0.0497
     20 C           6.5707   -2.2061   19.0612 C.ar    1  UNL1        0.0920
     21 C           5.3913   -2.7957   18.3462 C.ar    1  UNL1        0.0204
     22 C           4.4857   -3.7561   19.0585 C.ar    1  UNL1        0.0312
     23 C           4.7594   -4.1270   20.4859 C.ar    1  UNL1        0.1454
     24 F           3.8539   -5.0875   21.1982 F       1  UNL1       -0.2040
     25 C           5.9389   -3.5374   21.2009 C.ar    1  UNL1        0.0951
     26 C           6.8445   -2.5769   20.4886 C.ar    1  UNL1        0.1598
     27 F           8.0239   -1.9874   21.2038 F       1  UNL1       -0.2026
     28 N           7.4763   -1.2456   18.3489 N.pl3   1  UNL1       -0.2166
     29 H           8.3753   -1.5325   18.0684 H       1  UNL1        0.1734
     30 S           7.0121    0.1520   18.0639 S.O2    1  UNL1        0.0540
     31 O           7.3385    0.5478   19.4734 O.2     1  UNL1       -0.1545
     32 O           6.6857   -0.2438   16.6544 O.2     1  UNL1       -0.1545
     33 C           6.5479    1.5495   17.7789 C.3     1  UNL1        0.1724
     34 C           4.5976    3.1480   18.4047 C.3     1  UNL1        0.0019
     35 C           5.0824    1.8696   17.7878 C.3     1  UNL1        0.0273
@<TRIPOS>BOND
     1    34    35    1
     2    35    33    1
     3    33    30    1
     4    30    31    2
     5    30    32    2
     6    30    28    1
     7    28    20    1
     8    20    21   ar
     9    21    22   ar
    10    22    23   ar
    11    23    24    1
    12    23    25   ar
    13    25     1    1
    14     1     2    2
    15     1     3    1
    16     3     4   ar
    17     4     5   ar
    18     5     6   ar
    19     6     7   ar
    20     7     8   ar
    21     8     9   ar
    22     9    13    1
    23    13    14   ar
    24    14    15   ar
    25    15    16   ar
    26    16    17   ar
    27    17    18    1
    28    17    19   ar
    29     9    10   ar
    30    10    11   ar
    31    25    26   ar
    32    26    27    1
    33    26    20   ar
    34    11     3   ar
    35    11     6    1
    36    19    13   ar
    37    28    29    1
    38     7    12    1
@<TRIPOS>MOLECULE
*****
 35 38 0 0 0
SMALL
GASTEIGER

@<TRIPOS>ATOM
      1 C           0.6984    1.8015   21.8819 C.2     1  UNL1        0.2015
      2 O          -0.7082    1.9547   21.3843 O.2     1  UNL1       -0.2864
      3 C           0.9630    1.6609   23.3517 C.ar    1  UNL1        0.0611
      4 C           0.3249    2.4676   24.4435 C.ar    1  UNL1        0.1037
      5 N           0.8797    1.9942   25.7542 N.ar    1  UNL1       -0.2269
      6 C           1.8607    0.8950   25.4725 C.ar    1  UNL1        0.1407
      7 N           2.7137    0.0550   26.3762 N.ar    1  UNL1       -0.3374
      8 C           3.6182   -0.9910   25.7950 C.ar    1  UNL1        0.0734
      9 C           3.6697   -1.1970   24.3101 C.ar    1  UNL1        0.0173
     10 C           2.8167   -0.3570   23.4064 C.ar    1  UNL1        0.0046
     11 C           1.9122    0.6890   23.9876 C.ar    1  UNL1        0.0386
     12 H           2.6799    0.1902   27.3508 H       1  UNL1        0.1674
     13 C           4.5742   -2.2430   23.7290 C.ar    1  UNL1        0.0068
     14 C           5.7414   -2.7503   24.5229 C.ar    1  UNL1        0.0209
     15 C           6.6459   -3.7964   23.9417 C.ar    1  UNL1        0.1013
     16 N           6.3833   -4.3350   22.5666 N.ar    1  UNL1       -0.2165
     17 C           5.2161   -3.8276   21.7727 C.ar    1  UNL1        0.2223
     18 F           4.9534   -4.3662   20.3976 F       1  UNL1       -0.1832
     19 C           4.3116   -2.7816   22.3539 C.ar    1  UNL1        0.0497
     20 C           3.0469    0.7249   18.8693 C.ar    1  UNL1        0.0920
     21 C           4.1250    1.7635   18.9651 C.ar    1  UNL1        0.0204
     22 C           4.0609    2.8147   20.0332 C.ar    1  UNL1        0.0312
     23 C           2.9187    2.8274   21.0055 C.ar    1  UNL1        0.1454
     24 F           2.8546    3.8786   22.0736 F       1  UNL1       -0.2040
     25 C           1.8407    1.7888   20.9096 C.ar    1  UNL1        0.0951
     26 C           1.9048    0.7376   19.8415 C.ar    1  UNL1        0.1598
     27 F           0.8267   -0.3009   19.7457 F       1  UNL1       -0.2026
     28 N           3.1110   -0.3263   17.8012 N.pl3   1  UNL1       -0.2166
     29 H           2.4490   -0.3287   17.0725 H       1  UNL1        0.1734
     30 S           4.1839   -1.3738   17.8433 S.O2    1  UNL1        0.0540
     31 O           4.8784   -0.7087   16.6921 O.2     1  UNL1       -0.1545
     32 O           3.4893   -2.0389   18.9944 O.2     1  UNL1       -0.1545
     33 C           5.2566   -2.4213   17.8855 C.3     1  UNL1        0.1724
     34 C           7.0677   -1.4902   19.4989 C.3     1  UNL1        0.0019
     35 C           6.6791   -2.0278   18.1536 C.3     1  UNL1        0.0273
@<TRIPOS>BOND
     1    34    35    1
     2    35    33    1
     3    33    30    1
     4    30    31    2
     5    30    32    2
     6    30    28    1
     7    28    20    1
     8    20    21   ar
     9    21    22   ar
    10    22    23   ar
    11    23    24    1
    12    23    25   ar
    13    25     1    1
    14     1     2    2
    15     1     3    1
    16     3     4   ar
    17     4     5   ar
    18     5     6   ar
    19     6     7   ar
    20     7     8   ar
    21     8     9   ar
    22     9    13    1
    23    13    14   ar
    24    14    15   ar
    25    15    16   ar
    26    16    17   ar
    27    17    18    1
    28    17    19   ar
    29     9    10   ar
    30    10    11   ar
    31    25    26   ar
    32    26    27    1
    33    26    20   ar
    34    11     3   ar
    35    11     6    1
    36    19    13   ar
    37    28    29    1
    38     7    12    1
@<TRIPOS>MOLECULE
*****
 35 38 0 0 0
SMALL
GASTEIGER

@<TRIPOS>ATOM
      1 C           3.9389   -2.5562   19.6129 C.2     1  UNL1        0.2015
      2 O           3.1524   -3.7562   19.1754 O.2     1  UNL1       -0.2864
      3 C           5.4018   -2.4615   19.2950 C.ar    1  UNL1        0.0611
      4 C           6.0024   -1.7793   18.1018 C.ar    1  UNL1        0.1037
      5 N           7.4927   -1.9286   18.1839 N.ar    1  UNL1       -0.2269
      6 C           7.8131   -2.7031   19.4279 C.ar    1  UNL1        0.1407
      7 N           9.1146   -3.1510   20.0241 N.ar    1  UNL1       -0.3374
      8 C           9.1238   -3.9283   21.3069 C.ar    1  UNL1        0.0734
      9 C           7.8315   -4.2577   21.9936 C.ar    1  UNL1        0.0173
     10 C           6.5300   -3.8098   21.3974 C.ar    1  UNL1        0.0046
     11 C           6.5208   -3.0325   20.1146 C.ar    1  UNL1        0.0386
     12 H           9.9627   -2.9348   19.5734 H       1  UNL1        0.1674
     13 C           7.8408   -5.0350   23.2765 C.ar    1  UNL1        0.0068
     14 C           7.0466   -4.5501   24.4529 C.ar    1  UNL1        0.0209
     15 C           7.0559   -5.3275   25.7358 C.ar    1  UNL1        0.1013
     16 N           7.8594   -6.5896   25.8422 N.ar    1  UNL1       -0.2165
     17 C           8.6536   -7.0745   24.6656 C.ar    1  UNL1        0.2223
     18 F           9.4571   -8.3366   24.7720 F       1  UNL1       -0.1832
     19 C           8.6443   -6.2972   23.3828 C.ar    1  UNL1        0.0497
     20 C           2.5945   -0.3474   22.6236 C.ar    1  UNL1        0.0920
     21 C           1.9095    0.7600   21.8789 C.ar    1  UNL1        0.0204
     22 C           1.9009    0.7619   20.3789 C.ar    1  UNL1        0.0312
     23 C           2.5773   -0.3434   19.6235 C.ar    1  UNL1        0.1454
     24 F           2.5688   -0.3415   18.1236 F       1  UNL1       -0.2040
     25 C           3.2624   -1.4508   20.3682 C.ar    1  UNL1        0.0951
     26 C           3.2710   -1.4527   21.8682 C.ar    1  UNL1        0.1598
     27 F           3.9560   -2.5601   22.6128 F       1  UNL1       -0.2026
     28 N           2.6031   -0.3493   24.1235 N.pl3   1  UNL1       -0.2166
     29 H           1.7582   -0.4403   24.6205 H       1  UNL1        0.1734
     30 S           3.8991   -0.2127   24.8663 S.O2    1  UNL1        0.0540
     31 O           4.0884    1.1567   24.2842 O.2     1  UNL1       -0.1545
     32 O           3.7099   -1.5821   25.4484 O.2     1  UNL1       -0.1545
     33 C           5.1951   -0.0762   25.6090 C.3     1  UNL1        0.1724
     34 C           7.2789   -0.8234   24.2489 C.3     1  UNL1        0.0019
     35 C           6.3054   -1.0551   25.3664 C.3     1  UNL1        0.0273
@<TRIPOS>BOND
     1    34    35    1
     2    35    33    1
     3    33    30    1
     4    30    31    2
     5    30    32    2
     6    30    28    1
     7    28    20    1
     8    20    21   ar
     9    21    22   ar
    10    22    23   ar
    11    23    24    1
    12    23    25   ar
    13    25     1    1
    14     1     2    2
    15     1     3    1
    16     3     4   ar
    17     4     5   ar
    18     5     6   ar
    19     6     7   ar
    20     7     8   ar
    21     8     9   ar
    22     9    13    1
    23    13    14   ar
    24    14    15   ar
    25    15    16   ar
    26    16    17   ar
    27    17    18    1
    28    17    19   ar
    29     9    10   ar
    30    10    11   ar
    31    25    26   ar
    32    26    27    1
    33    26    20   ar
    34    11     3   ar
    35    11     6    1
    36    19    13   ar
    37    28    29    1
    38     7    12    1
@<TRIPOS>MOLECULE
*****
 35 38 0 0 0
SMALL
GASTEIGER

@<TRIPOS>ATOM
      1 C           4.3369   -3.2023   19.5199 C.2     1  UNL1        0.2015
      2 O           3.5370   -4.4433   19.2555 O.2     1  UNL1       -0.2864
      3 C           3.8572   -1.8771   19.0065 C.ar    1  UNL1        0.0611
      4 C           3.9026   -1.4154   17.5800 C.ar    1  UNL1        0.1037
      5 N           3.3213   -0.0338   17.5213 N.ar    1  UNL1       -0.2269
      6 C           2.9167    0.3583   18.9115 C.ar    1  UNL1        0.1407
      7 N           2.2895    1.6055   19.4601 N.ar    1  UNL1       -0.3374
      8 C           1.9935    1.7135   20.9266 C.ar    1  UNL1        0.0734
      9 C           2.3247    0.5743   21.8445 C.ar    1  UNL1        0.0173
     10 C           2.9519   -0.6729   21.2959 C.ar    1  UNL1        0.0046
     11 C           3.2479   -0.7809   19.8294 C.ar    1  UNL1        0.0386
     12 H           2.0721    2.3532   18.8577 H       1  UNL1        0.1674
     13 C           2.0287    0.6824   23.3111 C.ar    1  UNL1        0.0068
     14 C           3.0781    0.3132   24.3172 C.ar    1  UNL1        0.0209
     15 C           2.7821    0.4213   25.7838 C.ar    1  UNL1        0.1013
     16 N           1.4367    0.8986   26.2441 N.ar    1  UNL1       -0.2165
     17 C           0.3872    1.2677   25.2379 C.ar    1  UNL1        0.2223
     18 F          -0.9583    1.7450   25.6983 F       1  UNL1       -0.1832
     19 C           0.6832    1.1597   23.7714 C.ar    1  UNL1        0.0497
     20 C           6.8736   -3.7998   22.5131 C.ar    1  UNL1        0.0920
     21 C           8.1761   -3.4550   21.8539 C.ar    1  UNL1        0.0204
     22 C           8.1989   -3.0259   20.4167 C.ar    1  UNL1        0.0312
     23 C           6.9193   -2.9417   19.6387 C.ar    1  UNL1        0.1454
     24 F           6.9420   -2.5126   18.2016 F       1  UNL1       -0.2040
     25 C           5.6167   -3.2865   20.2979 C.ar    1  UNL1        0.0951
     26 C           5.5939   -3.7156   21.7351 C.ar    1  UNL1        0.1598
     27 F           4.2914   -4.0604   22.3942 F       1  UNL1       -0.2026
     28 N           6.8508   -4.2289   23.9502 N.pl3   1  UNL1       -0.2166
     29 H           6.1531   -3.8872   24.5549 H       1  UNL1        0.1734
     30 S           7.8911   -5.1785   24.4660 S.O2    1  UNL1        0.0540
     31 O           8.2371   -4.2076   25.5557 O.2     1  UNL1       -0.1545
     32 O           7.5451   -6.1494   23.3762 O.2     1  UNL1       -0.1545
     33 C           8.9313   -6.1282   24.9817 C.3     1  UNL1        0.1724
     34 C           7.8822   -8.0327   26.4037 C.3     1  UNL1        0.0019
     35 C           8.5972   -7.5789   25.1657 C.3     1  UNL1        0.0273
@<TRIPOS>BOND
     1    34    35    1
     2    35    33    1
     3    33    30    1
     4    30    31    2
     5    30    32    2
     6    30    28    1
     7    28    20    1
     8    20    21   ar
     9    21    22   ar
    10    22    23   ar
    11    23    24    1
    12    23    25   ar
    13    25     1    1
    14     1     2    2
    15     1     3    1
    16     3     4   ar
    17     4     5   ar
    18     5     6   ar
    19     6     7   ar
    20     7     8   ar
    21     8     9   ar
    22     9    13    1
    23    13    14   ar
    24    14    15   ar
    25    15    16   ar
    26    16    17   ar
    27    17    18    1
    28    17    19   ar
    29     9    10   ar
    30    10    11   ar
    31    25    26   ar
    32    26    27    1
    33    26    20   ar
    34    11     3   ar
    35    11     6    1
    36    19    13   ar
    37    28    29    1
    38     7    12    1
@<TRIPOS>MOLECULE
*****
 35 38 0 0 0
SMALL
GASTEIGER

@<TRIPOS>ATOM
      1 C           6.4846   -1.8607   29.8018 C.2     1  UNL1        0.2015
      2 O           7.6339   -0.9487   29.4899 O.2     1  UNL1       -0.2864
      3 C           6.6900   -3.3464   29.8219 C.ar    1  UNL1        0.0611
      4 C           6.7720   -4.2086   31.0466 C.ar    1  UNL1        0.1037
      5 N           6.9822   -5.6258   30.6025 N.ar    1  UNL1       -0.2269
      6 C           7.0301   -5.6395   29.1033 C.ar    1  UNL1        0.1407
      7 N           7.2148   -6.7528   28.1151 N.ar    1  UNL1       -0.3374
      8 C           7.2189   -6.4573   26.6446 C.ar    1  UNL1        0.0734
      9 C           7.0383   -5.0485   26.1622 C.ar    1  UNL1        0.0173
     10 C           6.8536   -3.9352   27.1503 C.ar    1  UNL1        0.0046
     11 C           6.8495   -4.2307   28.6209 C.ar    1  UNL1        0.0386
     12 H           7.3333   -7.6774   28.4317 H       1  UNL1        0.1674
     13 C           7.0425   -4.7530   24.6915 C.ar    1  UNL1        0.0068
     14 C           6.0293   -3.8102   24.1131 C.ar    1  UNL1        0.0209
     15 C           6.0334   -3.5147   22.6425 C.ar    1  UNL1        0.1013
     16 N           7.0508   -4.1620   21.7503 N.ar    1  UNL1       -0.2165
     17 C           8.0640   -5.1048   22.3288 C.ar    1  UNL1        0.2223
     18 F           9.0813   -5.7522   21.4366 F       1  UNL1       -0.1832
     19 C           8.0598   -5.4003   23.7993 C.ar    1  UNL1        0.0497
     20 C           2.7653   -0.5764   29.2844 C.ar    1  UNL1        0.0920
     21 C           2.4200   -0.1393   30.6771 C.ar    1  UNL1        0.0204
     22 C           3.4296   -0.2759   31.7781 C.ar    1  UNL1        0.0312
     23 C           4.7844   -0.8497   31.4864 C.ar    1  UNL1        0.1454
     24 F           5.7940   -0.9864   32.5873 F       1  UNL1       -0.2040
     25 C           5.1297   -1.2868   30.0936 C.ar    1  UNL1        0.0951
     26 C           4.1201   -1.1501   28.9927 C.ar    1  UNL1        0.1598
     27 F           4.4655   -1.5873   27.5999 F       1  UNL1       -0.2026
     28 N           1.7557   -0.4397   28.1835 N.pl3   1  UNL1       -0.2166
     29 H           1.6809   -1.1390   27.4946 H       1  UNL1        0.1734
     30 S           0.8601    0.7625   28.1321 S.O2    1  UNL1        0.0540
     31 O           2.0381    1.6254   27.7888 O.2     1  UNL1       -0.1545
     32 O          -0.3178   -0.1003   28.4755 O.2     1  UNL1       -0.1545
     33 C          -0.0355    1.9647   28.0809 C.3     1  UNL1        0.1724
     34 C          -0.4840    1.7667   25.5294 C.3     1  UNL1        0.0019
     35 C          -0.9337    2.1809   26.8991 C.3     1  UNL1        0.0273
@<TRIPOS>BOND
     1    34    35    1
     2    35    33    1
     3    33    30    1
     4    30    31    2
     5    30    32    2
     6    30    28    1
     7    28    20    1
     8    20    21   ar
     9    21    22   ar
    10    22    23   ar
    11    23    24    1
    12    23    25   ar
    13    25     1    1
    14     1     2    2
    15     1     3    1
    16     3     4   ar
    17     4     5   ar
    18     5     6   ar
    19     6     7   ar
    20     7     8   ar
    21     8     9   ar
    22     9    13    1
    23    13    14   ar
    24    14    15   ar
    25    15    16   ar
    26    16    17   ar
    27    17    18    1
    28    17    19   ar
    29     9    10   ar
    30    10    11   ar
    31    25    26   ar
    32    26    27    1
    33    26    20   ar
    34    11     3   ar
    35    11     6    1
    36    19    13   ar
    37    28    29    1
    38     7    12    1
@<TRIPOS>MOLECULE
*****
 35 38 0 0 0
SMALL
GASTEIGER

@<TRIPOS>ATOM
      1 C          -1.6710    4.2785   25.2034 C.2     1  UNL1        0.2015
      2 O          -1.0850    5.5796   25.6655 O.2     1  UNL1       -0.2864
      3 C          -3.1580    4.1290   25.0754 C.ar    1  UNL1        0.0611
      4 C          -4.1383    4.0626   26.2088 C.ar    1  UNL1        0.1037
      5 N          -5.5119    3.9123   25.6253 N.ar    1  UNL1       -0.2269
      6 C          -5.3807    3.8858   24.1313 C.ar    1  UNL1        0.1407
      7 N          -6.3979    3.7570   23.0365 N.ar    1  UNL1       -0.3374
      8 C          -5.9602    3.7621   21.6018 C.ar    1  UNL1        0.0734
      9 C          -4.5054    3.8961   21.2619 C.ar    1  UNL1        0.0173
     10 C          -3.4882    4.0249   22.3567 C.ar    1  UNL1        0.0046
     11 C          -3.9258    4.0197   23.7914 C.ar    1  UNL1        0.0386
     12 H          -7.3527    3.6690   23.2596 H       1  UNL1        0.1674
     13 C          -4.0678    3.9012   19.8271 C.ar    1  UNL1        0.0068
     14 C          -5.0781    3.7147   18.7342 C.ar    1  UNL1        0.0209
     15 C          -4.6405    3.7198   17.2994 C.ar    1  UNL1        0.1013
     16 N          -3.1926    3.9115   16.9576 N.ar    1  UNL1       -0.2165
     17 C          -2.1823    4.0981   18.0506 C.ar    1  UNL1        0.2223
     18 F          -0.7344    4.2898   17.7088 F       1  UNL1       -0.1832
     19 C          -2.6199    4.0930   19.4853 C.ar    1  UNL1        0.0497
     20 C           0.7866    1.9018   23.1879 C.ar    1  UNL1        0.0920
     21 C           1.0322    0.8233   24.2011 C.ar    1  UNL1        0.0204
     22 C           0.3767    0.8965   25.5483 C.ar    1  UNL1        0.0312
     23 C          -0.5243    2.0482   25.8825 C.ar    1  UNL1        0.1454
     24 F          -1.1798    2.1214   27.2297 F       1  UNL1       -0.2040
     25 C          -0.7699    3.1267   24.8693 C.ar    1  UNL1        0.0951
     26 C          -0.1144    3.0535   23.5221 C.ar    1  UNL1        0.1598
     27 F          -0.3601    4.1321   22.5090 F       1  UNL1       -0.2026
     28 N           1.4421    1.8286   21.8407 N.pl3   1  UNL1       -0.2166
     29 H           1.8239    2.6400   21.4343 H       1  UNL1        0.1734
     30 S           1.5157    0.5193   21.1127 S.O2    1  UNL1        0.0540
     31 O           0.0294    0.5469   20.9125 O.2     1  UNL1       -0.1545
     32 O           3.0020    0.4916   21.3129 O.2     1  UNL1       -0.1545
     33 C           1.5895   -0.7901   20.3847 C.3     1  UNL1        0.1724
     34 C           3.2848   -2.6211   19.6609 C.3     1  UNL1        0.0019
     35 C           2.8521   -1.1850   19.6775 C.3     1  UNL1        0.0273
@<TRIPOS>BOND
     1    34    35    1
     2    35    33    1
     3    33    30    1
     4    30    31    2
     5    30    32    2
     6    30    28    1
     7    28    20    1
     8    20    21   ar
     9    21    22   ar
    10    22    23   ar
    11    23    24    1
    12    23    25   ar
    13    25     1    1
    14     1     2    2
    15     1     3    1
    16     3     4   ar
    17     4     5   ar
    18     5     6   ar
    19     6     7   ar
    20     7     8   ar
    21     8     9   ar
    22     9    13    1
    23    13    14   ar
    24    14    15   ar
    25    15    16   ar
    26    16    17   ar
    27    17    18    1
    28    17    19   ar
    29     9    10   ar
    30    10    11   ar
    31    25    26   ar
    32    26    27    1
    33    26    20   ar
    34    11     3   ar
    35    11     6    1
    36    19    13   ar
    37    28    29    1
    38     7    12    1
