@<TRIPOS>MOLECULE
*****
 25 28 0 0 0
SMALL
GASTEIGER

@<TRIPOS>ATOM
      1 C          -6.5768  -19.9837   21.7646 C.3     1  UNL1        0.1084
      2 C          -6.1064  -21.0263   20.7942 C.3     1  UNL1        0.0966
      3 C          -4.7697  -20.5979   20.2654 C.2     1  UNL1        0.2299
      4 O          -3.9353  -21.3456   19.2681 O.2     1  UNL1       -0.2745
      5 N          -4.4140  -19.2905   20.9089 N.am    1  UNL1       -0.2581
      6 C          -5.5308  -18.9109   21.8354 C.3     1  UNL1        0.1079
      7 C          -3.1614  -18.5013   20.6681 C.ar    1  UNL1        0.0540
      8 C          -2.6214  -17.6050   21.7429 C.ar    1  UNL1        0.0172
      9 C          -1.3686  -16.8158   21.5021 C.ar    1  UNL1        0.0309
     10 C          -0.6561  -16.9229   20.1865 C.ar    1  UNL1        0.1402
     11 F           0.5966  -16.1336   19.9457 F       1  UNL1       -0.2042
     12 C          -1.1961  -17.8191   19.1117 C.ar    1  UNL1        0.0309
     13 C          -2.4487  -18.6083   19.3525 C.ar    1  UNL1        0.0172
     14 C         -10.1183  -19.4959   23.2764 C.ar    1  UNL1        0.2033
     15 N          -9.5850  -20.6017   24.1383 N.ar    1  UNL1       -0.0560
     16 O          -8.1935  -20.9190   23.6769 O.2     1  UNL1       -0.3370
     17 C          -7.8667  -20.0093   22.5298 C.ar    1  UNL1        0.2383
     18 N          -9.0563  -19.1298   22.2823 N.ar    1  UNL1       -0.1907
     19 C         -14.3937  -18.4848   26.0510 C.3     1  UNL1        0.0310
     20 C         -13.6130  -18.3612   24.7762 C.ar    1  UNL1       -0.0218
     21 C         -14.1893  -17.6084   23.6138 C.ar    1  UNL1       -0.0043
     22 C         -13.4086  -17.4848   22.3390 C.ar    1  UNL1       -0.0002
     23 C         -12.0517  -18.1139   22.2265 C.ar    1  UNL1        0.0031
     24 C         -11.4754  -18.8667   23.3888 C.ar    1  UNL1        0.0388
     25 C         -12.2560  -18.9904   24.6637 C.ar    1  UNL1       -0.0011
@<TRIPOS>BOND
     1    19    20    1
     2    20    21   ar
     3    21    22   ar
     4    22    23   ar
     5    23    24   ar
     6    24    14    1
     7    14    15   ar
     8    15    16   ar
     9    16    17   ar
    10    17     1    1
    11     1     2    1
    12     2     3    1
    13     3     4    2
    14     3     5   am
    15     5     7    1
    16     7     8   ar
    17     8     9   ar
    18     9    10   ar
    19    10    11    1
    20    10    12   ar
    21    12    13   ar
    22     5     6    1
    23    17    18   ar
    24    24    25   ar
    25    25    20   ar
    26    18    14   ar
    27     6     1    1
    28    13     7   ar
@<TRIPOS>MOLECULE
*****
 25 28 0 0 0
SMALL
GASTEIGER

@<TRIPOS>ATOM
      1 C           5.9537   -2.6251   19.6532 C.3     1  UNL1        0.1084
      2 C           5.8269   -2.5262   18.1619 C.3     1  UNL1        0.0966
      3 C           4.6472   -1.6524   17.8539 C.2     1  UNL1        0.2299
      4 O           4.1561   -1.2844   16.4852 O.2     1  UNL1       -0.2745
      5 N           4.0449   -1.2113   19.1549 N.am    1  UNL1       -0.2581
      6 C           4.8523   -1.8125   20.2669 C.3     1  UNL1        0.1079
      7 C           2.8457   -0.3248   19.3156 C.ar    1  UNL1        0.0540
      8 C           1.6842   -0.7782   20.1496 C.ar    1  UNL1        0.0172
      9 C           0.4849    0.1084   20.3103 C.ar    1  UNL1        0.0309
     10 C           0.4472    1.4482   19.6370 C.ar    1  UNL1        0.1402
     11 F          -0.7521    2.3348   19.7977 F       1  UNL1       -0.2042
     12 C           1.6086    1.9016   18.8030 C.ar    1  UNL1        0.0309
     13 C           2.8078    1.0151   18.6423 C.ar    1  UNL1        0.0172
     14 C           8.0789   -4.8572   22.0125 C.ar    1  UNL1        0.2033
     15 N           9.1331   -4.3302   21.0847 N.ar    1  UNL1       -0.0560
     16 O           8.4654   -3.4299   20.0879 O.2     1  UNL1       -0.3370
     17 C           6.9984   -3.4005   20.3998 C.ar    1  UNL1        0.2383
     18 N           6.7596   -4.2826   21.5892 N.ar    1  UNL1       -0.1907
     19 C           6.9695   -6.3930   26.8510 C.3     1  UNL1        0.0310
     20 C           7.7498   -6.5622   25.5811 C.ar    1  UNL1       -0.0218
     21 C           8.7556   -7.6684   25.4606 C.ar    1  UNL1       -0.0043
     22 C           9.5358   -7.8376   24.1908 C.ar    1  UNL1       -0.0002
     23 C           9.3103   -6.9005   23.0414 C.ar    1  UNL1        0.0031
     24 C           8.3045   -5.7943   23.1619 C.ar    1  UNL1        0.0388
     25 C           7.5242   -5.6251   24.4318 C.ar    1  UNL1       -0.0011
@<TRIPOS>BOND
     1    19    20    1
     2    20    21   ar
     3    21    22   ar
     4    22    23   ar
     5    23    24   ar
     6    24    14    1
     7    14    15   ar
     8    15    16   ar
     9    16    17   ar
    10    17     1    1
    11     1     2    1
    12     2     3    1
    13     3     4    2
    14     3     5   am
    15     5     7    1
    16     7     8   ar
    17     8     9   ar
    18     9    10   ar
    19    10    11    1
    20    10    12   ar
    21    12    13   ar
    22     5     6    1
    23    17    18   ar
    24    24    25   ar
    25    25    20   ar
    26    18    14   ar
    27     6     1    1
    28    13     7   ar
@<TRIPOS>MOLECULE
*****
 25 28 0 0 0
SMALL
GASTEIGER

@<TRIPOS>ATOM
      1 C           5.7937   -3.4661   21.6567 C.3     1  UNL1        0.1084
      2 C           6.2271   -3.7496   20.2489 C.3     1  UNL1        0.0966
      3 C           5.3939   -2.9073   19.3290 C.2     1  UNL1        0.2299
      4 O           5.4918   -2.8748   17.8326 O.2     1  UNL1       -0.2745
      5 N           4.4455   -2.1033   20.1682 N.am    1  UNL1       -0.2581
      6 C           4.6927   -2.4487   21.6068 C.3     1  UNL1        0.1079
      7 C           3.4287   -1.1256   19.6582 C.ar    1  UNL1        0.0540
      8 C           2.0316   -1.1432   20.2043 C.ar    1  UNL1        0.0172
      9 C           1.0147   -0.1655   19.6943 C.ar    1  UNL1        0.0309
     10 C           1.3949    0.8297   18.6384 C.ar    1  UNL1        0.1402
     11 F           0.3780    1.8074   18.1284 F       1  UNL1       -0.2042
     12 C           2.7919    0.8473   18.0924 C.ar    1  UNL1        0.0309
     13 C           3.8088   -0.1303   18.6023 C.ar    1  UNL1        0.0172
     14 C           6.8292   -4.5830   25.2268 C.ar    1  UNL1        0.2033
     15 N           7.6420   -5.5196   24.3829 N.ar    1  UNL1       -0.0560
     16 O           7.3531   -5.2153   22.9428 O.2     1  UNL1       -0.3370
     17 C           6.3616   -4.0905   22.8967 C.ar    1  UNL1        0.2383
     18 N           6.0379   -3.6998   24.3083 N.ar    1  UNL1       -0.1907
     19 C           6.1742   -1.9205   29.6406 C.3     1  UNL1        0.0310
     20 C           6.4834   -3.2064   28.9329 C.ar    1  UNL1       -0.0218
     21 C           6.7744   -4.4469   29.7244 C.ar    1  UNL1       -0.0043
     22 C           7.0836   -5.7328   29.0167 C.ar    1  UNL1       -0.0002
     23 C           7.1019   -5.7782   27.5175 C.ar    1  UNL1        0.0031
     24 C           6.8109   -4.5377   26.7261 C.ar    1  UNL1        0.0388
     25 C           6.5017   -3.2518   27.4338 C.ar    1  UNL1       -0.0011
@<TRIPOS>BOND
     1    19    20    1
     2    20    21   ar
     3    21    22   ar
     4    22    23   ar
     5    23    24   ar
     6    24    14    1
     7    14    15   ar
     8    15    16   ar
     9    16    17   ar
    10    17     1    1
    11     1     2    1
    12     2     3    1
    13     3     4    2
    14     3     5   am
    15     5     7    1
    16     7     8   ar
    17     8     9   ar
    18     9    10   ar
    19    10    11    1
    20    10    12   ar
    21    12    13   ar
    22     5     6    1
    23    17    18   ar
    24    24    25   ar
    25    25    20   ar
    26    18    14   ar
    27     6     1    1
    28    13     7   ar
@<TRIPOS>MOLECULE
*****
 25 28 0 0 0
SMALL
GASTEIGER

@<TRIPOS>ATOM
      1 C          -6.5952  -19.7096   20.2072 C.3     1  UNL1        0.1084
      2 C          -5.9300  -21.0474   20.0736 C.3     1  UNL1        0.0966
      3 C          -4.4482  -20.8239   20.0095 C.2     1  UNL1        0.2299
      4 O          -3.4009  -21.8892   19.8750 O.2     1  UNL1       -0.2745
      5 N          -4.1975  -19.3479   20.1034 N.am    1  UNL1       -0.2581
      6 C          -5.5245  -18.6593   20.2256 C.3     1  UNL1        0.1079
      7 C          -2.8556  -18.6783   20.0794 C.ar    1  UNL1        0.0540
      8 C          -2.1462  -18.4668   18.7747 C.ar    1  UNL1        0.0172
      9 C          -0.8042  -17.7971   18.7507 C.ar    1  UNL1        0.0309
     10 C          -0.1716  -17.3391   20.0312 C.ar    1  UNL1        0.1402
     11 F           1.1705  -16.6694   20.0072 F       1  UNL1       -0.2042
     12 C          -0.8809  -17.5506   21.3359 C.ar    1  UNL1        0.0309
     13 C          -2.2229  -18.2202   21.3600 C.ar    1  UNL1        0.0172
     14 C         -10.2304  -18.6362   21.0430 C.ar    1  UNL1        0.2033
     15 N         -10.4582  -19.5414   19.8688 N.ar    1  UNL1       -0.0560
     16 O          -9.1242  -20.0537   19.4127 O.2     1  UNL1       -0.3370
     17 C          -8.0719  -19.4651   20.3052 C.ar    1  UNL1        0.2383
     18 N          -8.7556  -18.5891   21.3127 N.ar    1  UNL1       -0.1907
     19 C         -13.8816  -18.5920   24.7400 C.3     1  UNL1        0.0310
     20 C         -13.1168  -17.8842   23.6610 C.ar    1  UNL1       -0.0218
     21 C         -13.4128  -16.4467   23.3514 C.ar    1  UNL1       -0.0043
     22 C         -12.6480  -15.7390   22.2724 C.ar    1  UNL1       -0.0002
     23 C         -11.5872  -16.4688   21.5029 C.ar    1  UNL1        0.0031
     24 C         -11.2912  -17.9063   21.8125 C.ar    1  UNL1        0.0388
     25 C         -12.0560  -18.6140   22.8915 C.ar    1  UNL1       -0.0011
@<TRIPOS>BOND
     1    19    20    1
     2    20    21   ar
     3    21    22   ar
     4    22    23   ar
     5    23    24   ar
     6    24    14    1
     7    14    15   ar
     8    15    16   ar
     9    16    17   ar
    10    17     1    1
    11     1     2    1
    12     2     3    1
    13     3     4    2
    14     3     5   am
    15     5     7    1
    16     7     8   ar
    17     8     9   ar
    18     9    10   ar
    19    10    11    1
    20    10    12   ar
    21    12    13   ar
    22     5     6    1
    23    17    18   ar
    24    24    25   ar
    25    25    20   ar
    26    18    14   ar
    27     6     1    1
    28    13     7   ar
@<TRIPOS>MOLECULE
*****
 25 28 0 0 0
SMALL
GASTEIGER

@<TRIPOS>ATOM
      1 C           5.7242   -3.0610   20.5464 C.3     1  UNL1        0.1084
      2 C           5.9577   -2.9802   19.0669 C.3     1  UNL1        0.0966
      3 C           4.9650   -2.0131   18.4931 C.2     1  UNL1        0.2299
      4 O           4.8411   -1.6302   17.0482 O.2     1  UNL1       -0.2745
      5 N           4.1181   -1.4961   19.6180 N.am    1  UNL1       -0.2581
      6 C           4.5873   -2.1437   20.8870 C.3     1  UNL1        0.1079
      7 C           2.9985   -0.5054   19.4954 C.ar    1  UNL1        0.0540
      8 C           1.6868   -0.7682   20.1741 C.ar    1  UNL1        0.0172
      9 C           0.5672    0.2225   20.0514 C.ar    1  UNL1        0.0309
     10 C           0.7593    1.4758   19.2501 C.ar    1  UNL1        0.1402
     11 F          -0.3603    2.4666   19.1274 F       1  UNL1       -0.2042
     12 C           2.0709    1.7386   18.5715 C.ar    1  UNL1        0.0309
     13 C           3.1905    0.7480   18.6941 C.ar    1  UNL1        0.0172
     14 C           7.2423   -4.9691   23.5663 C.ar    1  UNL1        0.2033
     15 N           8.1087   -5.4634   22.4460 N.ar    1  UNL1       -0.0560
     16 O           7.6455   -4.8087   21.1783 O.2     1  UNL1       -0.3370
     17 C           6.4928   -3.9099   21.5153 C.ar    1  UNL1        0.2383
     18 N           6.2437   -4.0090   22.9911 N.ar    1  UNL1       -0.1907
     19 C           8.2784   -8.5567   27.1797 C.3     1  UNL1        0.0310
     20 C           7.8730   -7.1592   26.8153 C.ar    1  UNL1       -0.0218
     21 C           7.5801   -6.1581   27.8932 C.ar    1  UNL1       -0.0043
     22 C           7.1746   -4.7607   27.5289 C.ar    1  UNL1       -0.0002
     23 C           7.0620   -4.3643   26.0866 C.ar    1  UNL1        0.0031
     24 C           7.3549   -5.3654   25.0087 C.ar    1  UNL1        0.0388
     25 C           7.7604   -6.7629   25.3730 C.ar    1  UNL1       -0.0011
@<TRIPOS>BOND
     1    19    20    1
     2    20    21   ar
     3    21    22   ar
     4    22    23   ar
     5    23    24   ar
     6    24    14    1
     7    14    15   ar
     8    15    16   ar
     9    16    17   ar
    10    17     1    1
    11     1     2    1
    12     2     3    1
    13     3     4    2
    14     3     5   am
    15     5     7    1
    16     7     8   ar
    17     8     9   ar
    18     9    10   ar
    19    10    11    1
    20    10    12   ar
    21    12    13   ar
    22     5     6    1
    23    17    18   ar
    24    24    25   ar
    25    25    20   ar
    26    18    14   ar
    27     6     1    1
    28    13     7   ar
@<TRIPOS>MOLECULE
*****
 25 28 0 0 0
SMALL
GASTEIGER

@<TRIPOS>ATOM
      1 C           6.9252  -10.8465   27.8819 C.3     1  UNL1        0.1084
      2 C           7.5395  -11.9871   28.6380 C.3     1  UNL1        0.0966
      3 C           6.4550  -12.9766   28.9460 C.2     1  UNL1        0.2299
      4 O           6.6252  -14.2683   29.6892 O.2     1  UNL1       -0.2745
      5 N           5.1705  -12.4475   28.3802 N.am    1  UNL1       -0.2581
      6 C           5.4611  -11.1311   27.7226 C.3     1  UNL1        0.1079
      7 C           3.8307  -13.1173   28.4584 C.ar    1  UNL1        0.0540
      8 C           3.5645  -14.3577   27.6579 C.ar    1  UNL1        0.0172
      9 C           2.2246  -15.0276   27.7361 C.ar    1  UNL1        0.0309
     10 C           1.1511  -14.4571   28.6147 C.ar    1  UNL1        0.1402
     11 F          -0.1888  -15.1270   28.6929 F       1  UNL1       -0.2042
     12 C           1.4172  -13.2168   29.4151 C.ar    1  UNL1        0.0309
     13 C           2.7570  -12.5469   29.3370 C.ar    1  UNL1        0.0172
     14 C           8.1633   -7.5865   26.1776 C.ar    1  UNL1        0.2033
     15 N           9.3578   -7.9508   27.0086 N.ar    1  UNL1       -0.0560
     16 O           9.0394   -9.2163   27.7482 O.2     1  UNL1       -0.3370
     17 C           7.6481   -9.6342   27.3743 C.ar    1  UNL1        0.2383
     18 N           7.1067   -8.6269   26.4036 N.ar    1  UNL1       -0.1907
     19 C           8.8841   -5.3565   21.5399 C.3     1  UNL1        0.0310
     20 C           8.4065   -5.2766   22.9596 C.ar    1  UNL1       -0.0218
     21 C           7.8116   -4.0018   23.4801 C.ar    1  UNL1       -0.0043
     22 C           7.3340   -3.9219   24.8998 C.ar    1  UNL1       -0.0002
     23 C           7.4512   -5.1167   25.7989 C.ar    1  UNL1        0.0031
     24 C           8.0460   -6.3915   25.2784 C.ar    1  UNL1        0.0388
     25 C           8.5237   -6.4715   23.8587 C.ar    1  UNL1       -0.0011
@<TRIPOS>BOND
     1    19    20    1
     2    20    21   ar
     3    21    22   ar
     4    22    23   ar
     5    23    24   ar
     6    24    14    1
     7    14    15   ar
     8    15    16   ar
     9    16    17   ar
    10    17     1    1
    11     1     2    1
    12     2     3    1
    13     3     4    2
    14     3     5   am
    15     5     7    1
    16     7     8   ar
    17     8     9   ar
    18     9    10   ar
    19    10    11    1
    20    10    12   ar
    21    12    13   ar
    22     5     6    1
    23    17    18   ar
    24    24    25   ar
    25    25    20   ar
    26    18    14   ar
    27     6     1    1
    28    13     7   ar
@<TRIPOS>MOLECULE
*****
 25 28 0 0 0
SMALL
GASTEIGER

@<TRIPOS>ATOM
      1 C           6.7706   -4.1766   23.3842 C.3     1  UNL1        0.1084
      2 C           7.9771   -5.0477   23.5727 C.3     1  UNL1        0.0966
      3 C           8.2066   -5.2090   25.0463 C.2     1  UNL1        0.2299
      4 O           9.3075   -6.0024   25.6854 O.2     1  UNL1       -0.2745
      5 N           7.1420   -4.4375   25.7684 N.am    1  UNL1       -0.2581
      6 C           6.2546   -3.7995   24.7411 C.3     1  UNL1        0.1079
      7 C           6.9915   -4.3240   27.2564 C.ar    1  UNL1        0.0540
      8 C           6.9184   -5.5627   28.0994 C.ar    1  UNL1        0.0172
      9 C           6.7678   -5.4492   29.5876 C.ar    1  UNL1        0.0309
     10 C           6.6903   -4.0972   30.2326 C.ar    1  UNL1        0.1402
     11 F           6.5398   -3.9838   31.7208 F       1  UNL1       -0.2042
     12 C           6.7634   -2.8587   29.3897 C.ar    1  UNL1        0.0309
     13 C           6.9140   -2.9721   27.9016 C.ar    1  UNL1        0.0172
     14 C           4.8723   -2.5858   20.3957 C.ar    1  UNL1        0.2033
     15 N           5.6870   -3.6336   19.6969 N.ar    1  UNL1       -0.0560
     16 O           6.4973   -4.3571   20.7312 O.2     1  UNL1       -0.3370
     17 C           6.1834   -3.7564   22.0694 C.ar    1  UNL1        0.2383
     18 N           5.1791   -2.6617   21.8620 N.ar    1  UNL1       -0.1907
     19 C           0.4016    0.0615   20.4652 C.3     1  UNL1        0.0310
     20 C           1.6829   -0.3063   19.7776 C.ar    1  UNL1       -0.0218
     21 C           2.0103    0.2817   18.4371 C.ar    1  UNL1       -0.0043
     22 C           3.2916   -0.0861   17.7494 C.ar    1  UNL1       -0.0002
     23 C           4.2456   -1.0419   18.4022 C.ar    1  UNL1        0.0031
     24 C           3.9183   -1.6299   19.7428 C.ar    1  UNL1        0.0388
     25 C           2.6369   -1.2621   20.4304 C.ar    1  UNL1       -0.0011
@<TRIPOS>BOND
     1    19    20    1
     2    20    21   ar
     3    21    22   ar
     4    22    23   ar
     5    23    24   ar
     6    24    14    1
     7    14    15   ar
     8    15    16   ar
     9    16    17   ar
    10    17     1    1
    11     1     2    1
    12     2     3    1
    13     3     4    2
    14     3     5   am
    15     5     7    1
    16     7     8   ar
    17     8     9   ar
    18     9    10   ar
    19    10    11    1
    20    10    12   ar
    21    12    13   ar
    22     5     6    1
    23    17    18   ar
    24    24    25   ar
    25    25    20   ar
    26    18    14   ar
    27     6     1    1
    28    13     7   ar
@<TRIPOS>MOLECULE
*****
 25 28 0 0 0
SMALL
GASTEIGER

@<TRIPOS>ATOM
      1 C           0.0949    2.4732   19.6246 C.3     1  UNL1        0.1084
      2 C           1.2402    3.2942   19.1107 C.3     1  UNL1        0.0966
      3 C           2.3726    2.3630   18.7937 C.2     1  UNL1        0.2299
      4 O           3.7148    2.7588   18.2536 O.2     1  UNL1       -0.2745
      5 N           1.9270    0.9664   19.1117 N.am    1  UNL1       -0.2581
      6 C           0.5194    1.0346   19.6252 C.3     1  UNL1        0.1079
      7 C           2.7455   -0.2795   18.9454 C.ar    1  UNL1        0.0540
      8 C           2.7189   -1.3413   20.0047 C.ar    1  UNL1        0.0172
      9 C           3.5375   -2.5873   19.8383 C.ar    1  UNL1        0.0309
     10 C           4.3825   -2.7714   18.6128 C.ar    1  UNL1        0.1402
     11 F           5.2011   -4.0174   18.4464 F       1  UNL1       -0.2042
     12 C           4.4091   -1.7096   17.5536 C.ar    1  UNL1        0.0309
     13 C           3.5906   -0.4637   17.7198 C.ar    1  UNL1        0.0172
     14 C          -3.1447    3.6038   21.4391 C.ar    1  UNL1        0.2033
     15 N          -3.4463    4.0107   20.0271 N.ar    1  UNL1       -0.0560
     16 O          -2.2694    3.6368   19.1756 O.2     1  UNL1       -0.3370
     17 C          -1.2405    2.9987   20.0612 C.ar    1  UNL1        0.2383
     18 N          -1.7815    2.9783   21.4601 N.ar    1  UNL1       -0.1907
     19 C          -3.8249    3.8664   26.5838 C.3     1  UNL1        0.0310
     20 C          -4.3879    3.9210   25.1946 C.ar    1  UNL1       -0.0218
     21 C          -5.8541    4.1615   24.9885 C.ar    1  UNL1       -0.0043
     22 C          -6.4171    4.2161   23.5992 C.ar    1  UNL1       -0.0002
     23 C          -5.5141    4.0302   22.4161 C.ar    1  UNL1        0.0031
     24 C          -4.0479    3.7897   22.6222 C.ar    1  UNL1        0.0388
     25 C          -3.4849    3.7351   24.0115 C.ar    1  UNL1       -0.0011
@<TRIPOS>BOND
     1    19    20    1
     2    20    21   ar
     3    21    22   ar
     4    22    23   ar
     5    23    24   ar
     6    24    14    1
     7    14    15   ar
     8    15    16   ar
     9    16    17   ar
    10    17     1    1
    11     1     2    1
    12     2     3    1
    13     3     4    2
    14     3     5   am
    15     5     7    1
    16     7     8   ar
    17     8     9   ar
    18     9    10   ar
    19    10    11    1
    20    10    12   ar
    21    12    13   ar
    22     5     6    1
    23    17    18   ar
    24    24    25   ar
    25    25    20   ar
    26    18    14   ar
    27     6     1    1
    28    13     7   ar
@<TRIPOS>MOLECULE
*****
 25 28 0 0 0
SMALL
GASTEIGER

@<TRIPOS>ATOM
      1 C          -2.5784    3.3151   21.2258 C.3     1  UNL1        0.1084
      2 C          -4.0344    3.2604   20.8692 C.3     1  UNL1        0.0966
      3 C          -4.8137    3.8395   22.0126 C.2     1  UNL1        0.2299
      4 O          -6.3054    3.9811   22.0807 O.2     1  UNL1       -0.2745
      5 N          -3.8394    4.2521   23.0758 N.am    1  UNL1       -0.2581
      6 C          -2.4579    3.9280   22.5895 C.3     1  UNL1        0.1079
      7 C          -4.1858    4.8787   24.3938 C.ar    1  UNL1        0.0540
      8 C          -4.3081    4.0248   25.6211 C.ar    1  UNL1        0.0172
      9 C          -4.6545    4.6515   26.9392 C.ar    1  UNL1        0.0309
     10 C          -4.8785    6.1318   27.0300 C.ar    1  UNL1        0.1402
     11 F          -5.2250    6.7585   28.3481 F       1  UNL1       -0.2042
     12 C          -4.7563    6.9856   25.8028 C.ar    1  UNL1        0.0309
     13 C          -4.4099    6.3591   24.4847 C.ar    1  UNL1        0.0172
     14 C           0.4289    1.5440   19.5274 C.ar    1  UNL1        0.2033
     15 N           0.1824    2.6752   18.5737 N.ar    1  UNL1       -0.0560
     16 O          -0.9741    3.4764   19.0937 O.2     1  UNL1       -0.3370
     17 C          -1.4424    2.8403   20.3690 C.ar    1  UNL1        0.2383
     18 N          -0.5753    1.6460   20.6370 N.ar    1  UNL1       -0.1907
     19 C           4.3352   -0.5899   16.8465 C.3     1  UNL1        0.0310
     20 C           3.4460   -0.5720   18.0543 C.ar    1  UNL1       -0.0218
     21 C           3.6207   -1.6031   19.1296 C.ar    1  UNL1       -0.0043
     22 C           2.7315   -1.5852   20.3375 C.ar    1  UNL1       -0.0002
     23 C           1.6676   -0.5362   20.4701 C.ar    1  UNL1        0.0031
     24 C           1.4929    0.4949   19.3948 C.ar    1  UNL1        0.0388
     25 C           2.3821    0.4770   18.1870 C.ar    1  UNL1       -0.0011
@<TRIPOS>BOND
     1    19    20    1
     2    20    21   ar
     3    21    22   ar
     4    22    23   ar
     5    23    24   ar
     6    24    14    1
     7    14    15   ar
     8    15    16   ar
     9    16    17   ar
    10    17     1    1
    11     1     2    1
    12     2     3    1
    13     3     4    2
    14     3     5   am
    15     5     7    1
    16     7     8   ar
    17     8     9   ar
    18     9    10   ar
    19    10    11    1
    20    10    12   ar
    21    12    13   ar
    22     5     6    1
    23    17    18   ar
    24    24    25   ar
    25    25    20   ar
    26    18    14   ar
    27     6     1    1
    28    13     7   ar
