@<TRIPOS>MOLECULE
*****
 37 42 0 0 0
SMALL
GASTEIGER

@<TRIPOS>ATOM
      1 C          -1.4257    3.2880   21.1487 C.ar    1  UNL1        0.0654
      2 C          -1.6868    4.2819   20.0560 C.ar    1  UNL1        0.0176
      3 C          -0.9545    4.1721   18.7516 C.ar    1  UNL1        0.0015
      4 C           0.0390    3.0684   18.5397 C.ar    1  UNL1        0.0001
      5 C           0.3001    2.0744   19.6324 C.ar    1  UNL1        0.0015
      6 C          -0.4322    2.1842   20.9369 C.ar    1  UNL1        0.0176
      7 C          -2.1424    3.3749   25.0511 C.ar    1  UNL1        0.1098
      8 C          -1.4101    3.2651   23.7466 C.ar    1  UNL1        0.0891
      9 N          -2.1580    3.3977   22.4531 N.ar    1  UNL1       -0.2900
     10 C          -3.6383    3.6401   22.4641 C.ar    1  UNL1        0.1507
     11 N          -4.3862    3.7727   21.1707 N.ar    1  UNL1       -0.2263
     12 C          -5.8664    4.0150   21.1818 C.ar    1  UNL1        0.1005
     13 C          -6.5987    4.1248   22.4862 C.ar    1  UNL1        0.0209
     14 C          -5.8508    3.9922   23.7797 C.ar    1  UNL1        0.0078
     15 C          -4.3706    3.7499   23.7686 C.ar    1  UNL1        0.0736
     16 C          -3.6226    3.6173   25.0621 C.ar    1  UNL1        0.2043
     17 O          -4.3549    3.7270   26.3666 O.2     1  UNL1       -0.2863
     18 O          -1.1364    4.4546   27.1894 O.2     1  UNL1       -0.2700
     19 C          -1.3944    3.2423   26.3445 C.2     1  UNL1        0.2504
     20 N          -0.9045    1.8974   26.7931 N.am    1  UNL1       -0.3024
     21 H          -1.0739    1.1017   26.2386 H       1  UNL1        0.1497
     22 C          -0.1566    1.7647   28.0865 C.3     1  UNL1        0.0720
     23 C           1.0366    2.0878   28.9361 C.3     1  UNL1        0.0213
     24 C          -0.0542    1.2119   29.4771 C.3     1  UNL1        0.0213
     25 C           1.2936    0.9707   19.4205 C.ar    1  UNL1        0.0023
     26 C           1.3863   -0.1546   20.4079 C.ar    1  UNL1       -0.0002
     27 C           2.3797   -1.2583   20.1961 C.ar    1  UNL1       -0.0020
     28 C           3.2805   -1.2367   18.9968 C.ar    1  UNL1        0.0053
     29 C           3.1878   -0.1113   18.0094 C.ar    1  UNL1        0.1361
     30 F           4.0885   -0.0896   16.8102 F       1  UNL1       -0.2045
     31 C           2.1943    0.9924   18.2213 C.ar    1  UNL1        0.0293
     32 C           4.2739   -2.3404   18.7850 C.3     1  UNL1        0.0301
     33 C           5.6037   -2.8109   18.2749 C.3     1  UNL1        0.0106
     34 C           4.6649   -3.7814   18.9281 C.3     1  UNL1        0.0410
     35 C           4.3485   -5.1737   19.3879 C.2     1  UNL1        0.0503
     36 O           3.3871   -5.3898   20.5189 O.co2   1  UNL1       -0.5492
     37 O           4.9936   -6.3499   18.7168 O.co2   1  UNL1       -0.5492
@<TRIPOS>UNITY_ATOM_ATTR
36 1
charge -1
@<TRIPOS>BOND
     1    18    19    2
     2    19    20   am
     3    20    22    1
     4    22    23    1
     5    23    24    1
     6    19     7    1
     7     7     8   ar
     8     8     9   ar
     9     9     1    1
    10     1     2   ar
    11     2     3   ar
    12     3     4   ar
    13     4     5   ar
    14     5    25    1
    15    25    26   ar
    16    26    27   ar
    17    27    28   ar
    18    32    28    1
    19    32    33    1
    20    33    34    1
    21    34    35    1
    22    35    36   ar
    23    35    37   ar
    24    28    29   ar
    25    29    30    1
    26    29    31   ar
    27     5     6   ar
    28     9    10   ar
    29    10    11   ar
    30    11    12   ar
    31    12    13   ar
    32    13    14   ar
    33    14    15   ar
    34    15    16   ar
    35    16    17    2
    36    24    22    1
    37    16     7   ar
    38     6     1   ar
    39    15    10   ar
    40    31    25   ar
    41    34    32    1
    42    20    21    1
@<TRIPOS>MOLECULE
*****
 37 42 0 0 0
SMALL
GASTEIGER

@<TRIPOS>ATOM
      1 C          -1.8090    3.6991   21.4053 C.ar    1  UNL1        0.0654
      2 C          -1.9056    4.7780   20.3678 C.ar    1  UNL1        0.0176
      3 C          -1.0831    4.6911   19.1164 C.ar    1  UNL1        0.0015
      4 C          -0.1640    3.5251   18.9026 C.ar    1  UNL1        0.0001
      5 C          -0.0674    2.4460   19.9401 C.ar    1  UNL1        0.0015
      6 C          -0.8899    2.5330   21.1914 C.ar    1  UNL1        0.0176
      7 C          -4.9077    4.2338   23.8265 C.ar    1  UNL1        0.1098
      8 C          -4.0852    4.1468   22.5751 C.ar    1  UNL1        0.0891
      9 N          -2.6316    3.7860   22.6566 N.ar    1  UNL1       -0.2900
     10 C          -2.0004    3.5122   23.9896 C.ar    1  UNL1        0.1507
     11 N          -0.5467    3.1514   24.0711 N.ar    1  UNL1       -0.2263
     12 C           0.0844    2.8776   25.4040 C.ar    1  UNL1        0.1005
     13 C          -0.7381    2.9646   26.6554 C.ar    1  UNL1        0.0209
     14 C          -2.1917    3.3253   26.5738 C.ar    1  UNL1        0.0078
     15 C          -2.8229    3.5992   25.2409 C.ar    1  UNL1        0.0736
     16 C          -4.2766    3.9600   25.1594 C.ar    1  UNL1        0.2043
     17 O          -5.0991    4.0470   26.4107 O.2     1  UNL1       -0.2863
     18 O          -7.2152    4.0254   22.6508 O.2     1  UNL1       -0.2700
     19 C          -6.3614    4.5946   23.7449 C.2     1  UNL1        0.2504
     20 N          -6.9613    5.5247   24.7574 N.am    1  UNL1       -0.3024
     21 H          -6.4009    5.8983   25.4755 H       1  UNL1        0.1497
     22 C          -8.4149    5.8855   24.6758 C.3     1  UNL1        0.0720
     23 C          -9.4901    6.8827   24.3605 C.3     1  UNL1        0.0213
     24 C          -9.8575    5.5133   24.8500 C.3     1  UNL1        0.0213
     25 C           0.8517    1.2801   19.7262 C.ar    1  UNL1        0.0023
     26 C           0.7598    0.0789   20.6199 C.ar    1  UNL1       -0.0002
     27 C           1.6789   -1.0871   20.4060 C.ar    1  UNL1       -0.0020
     28 C           2.6899   -1.0519   19.2984 C.ar    1  UNL1        0.0053
     29 C           2.7817    0.1493   18.4047 C.ar    1  UNL1        0.1361
     30 F           3.7926    0.1846   17.2971 F       1  UNL1       -0.2045
     31 C           1.8626    1.3153   18.6186 C.ar    1  UNL1        0.0293
     32 C           3.6090   -2.2178   19.0845 C.3     1  UNL1        0.0301
     33 C           3.8248   -3.6978   18.9694 C.3     1  UNL1        0.0106
     34 C           4.9850   -2.7575   18.8292 C.3     1  UNL1        0.0410
     35 C           6.4494   -2.5262   18.6008 C.2     1  UNL1        0.0503
     36 O           6.9480   -2.1719   17.2311 O.co2   1  UNL1       -0.5492
     37 O           7.4150   -2.6491   19.7420 O.co2   1  UNL1       -0.5492
@<TRIPOS>UNITY_ATOM_ATTR
36 1
charge -1
@<TRIPOS>BOND
     1    18    19    2
     2    19    20   am
     3    20    22    1
     4    22    23    1
     5    23    24    1
     6    19     7    1
     7     7     8   ar
     8     8     9   ar
     9     9     1    1
    10     1     2   ar
    11     2     3   ar
    12     3     4   ar
    13     4     5   ar
    14     5    25    1
    15    25    26   ar
    16    26    27   ar
    17    27    28   ar
    18    32    28    1
    19    32    33    1
    20    33    34    1
    21    34    35    1
    22    35    36   ar
    23    35    37   ar
    24    28    29   ar
    25    29    30    1
    26    29    31   ar
    27     5     6   ar
    28     9    10   ar
    29    10    11   ar
    30    11    12   ar
    31    12    13   ar
    32    13    14   ar
    33    14    15   ar
    34    15    16   ar
    35    16    17    2
    36    24    22    1
    37    16     7   ar
    38     6     1   ar
    39    15    10   ar
    40    31    25   ar
    41    34    32    1
    42    20    21    1
@<TRIPOS>MOLECULE
*****
 37 42 0 0 0
SMALL
GASTEIGER

@<TRIPOS>ATOM
      1 C           4.2460   -0.7636   28.0456 C.ar    1  UNL1        0.0654
      2 C           3.4120    0.4464   28.3461 C.ar    1  UNL1        0.0176
      3 C           2.6533    1.1266   27.2454 C.ar    1  UNL1        0.0015
      4 C           2.7286    0.5968   25.8441 C.ar    1  UNL1        0.0001
      5 C           3.5626   -0.6132   25.5435 C.ar    1  UNL1        0.0015
      6 C           4.3213   -1.2934   26.6442 C.ar    1  UNL1        0.0176
      7 C           5.4330   -1.8279   31.6799 C.ar    1  UNL1        0.1098
      8 C           4.6743   -1.1476   30.5791 C.ar    1  UNL1        0.0891
      9 N           5.0047   -1.4438   29.1463 N.ar    1  UNL1       -0.2900
     10 C           6.0939   -2.4203   28.8142 C.ar    1  UNL1        0.1507
     11 N           6.4243   -2.7166   27.3814 N.ar    1  UNL1       -0.2263
     12 C           7.5134   -3.6930   27.0493 C.ar    1  UNL1        0.1005
     13 C           8.2721   -4.3732   28.1500 C.ar    1  UNL1        0.0209
     14 C           7.9417   -4.0770   29.5829 C.ar    1  UNL1        0.0078
     15 C           6.8526   -3.1006   29.9149 C.ar    1  UNL1        0.0736
     16 C           6.5221   -2.8043   31.3478 C.ar    1  UNL1        0.2043
     17 O           7.2808   -3.4845   32.4486 O.2     1  UNL1       -0.2863
     18 O           3.8492   -2.0850   33.7233 O.2     1  UNL1       -0.2700
     19 C           5.1026   -1.5316   33.1128 C.2     1  UNL1        0.2504
     20 N           6.0255   -0.6819   33.9351 N.am    1  UNL1       -0.3024
     21 H           6.8481   -0.3187   33.5344 H       1  UNL1        0.1497
     22 C           5.6951   -0.3856   35.3679 C.3     1  UNL1        0.0720
     23 C           4.6779   -0.1334   36.4411 C.3     1  UNL1        0.0213
     24 C           6.1399   -0.1246   36.7764 C.3     1  UNL1        0.0213
     25 C           3.6379   -1.1430   24.1422 C.ar    1  UNL1        0.0023
     26 C           2.8481   -0.4867   23.0488 C.ar    1  UNL1       -0.0002
     27 C           2.9234   -1.0164   21.6475 C.ar    1  UNL1       -0.0020
     28 C           3.7885   -2.2025   21.3396 C.ar    1  UNL1        0.0053
     29 C           4.5783   -2.8588   22.4329 C.ar    1  UNL1        0.1361
     30 F           5.4434   -4.0449   22.1250 F       1  UNL1       -0.2045
     31 C           4.5030   -2.3290   23.8343 C.ar    1  UNL1        0.0293
     32 C           3.8638   -2.7323   19.9383 C.3     1  UNL1        0.0301
     33 C           3.5958   -3.8253   18.9466 C.3     1  UNL1        0.0106
     34 C           4.2621   -2.5569   18.5028 C.3     1  UNL1        0.0410
     35 C           4.8768   -1.7232   17.4179 C.2     1  UNL1        0.0503
     36 O           6.3660   -1.5555   17.3536 O.co2   1  UNL1       -0.5492
     37 O           4.0023   -1.0573   16.3972 O.co2   1  UNL1       -0.5492
@<TRIPOS>UNITY_ATOM_ATTR
36 1
charge -1
@<TRIPOS>BOND
     1    18    19    2
     2    19    20   am
     3    20    22    1
     4    22    23    1
     5    23    24    1
     6    19     7    1
     7     7     8   ar
     8     8     9   ar
     9     9     1    1
    10     1     2   ar
    11     2     3   ar
    12     3     4   ar
    13     4     5   ar
    14     5    25    1
    15    25    26   ar
    16    26    27   ar
    17    27    28   ar
    18    32    28    1
    19    32    33    1
    20    33    34    1
    21    34    35    1
    22    35    36   ar
    23    35    37   ar
    24    28    29   ar
    25    29    30    1
    26    29    31   ar
    27     5     6   ar
    28     9    10   ar
    29    10    11   ar
    30    11    12   ar
    31    12    13   ar
    32    13    14   ar
    33    14    15   ar
    34    15    16   ar
    35    16    17    2
    36    24    22    1
    37    16     7   ar
    38     6     1   ar
    39    15    10   ar
    40    31    25   ar
    41    34    32    1
    42    20    21    1
@<TRIPOS>MOLECULE
*****
 37 42 0 0 0
SMALL
GASTEIGER

@<TRIPOS>ATOM
      1 C          -1.6154    4.3882   20.9599 C.ar    1  UNL1        0.0654
      2 C          -0.8958    5.6896   20.7638 C.ar    1  UNL1        0.0176
      3 C           0.5414    5.6947   20.3343 C.ar    1  UNL1        0.0015
      4 C           1.2590    4.3984   20.1010 C.ar    1  UNL1        0.0001
      5 C           0.5395    3.0969   20.2972 C.ar    1  UNL1        0.0015
      6 C          -0.8977    3.0917   20.7266 C.ar    1  UNL1        0.0176
      7 C          -4.8433    4.6075   23.2583 C.ar    1  UNL1        0.1098
      8 C          -3.4060    4.6127   22.8289 C.ar    1  UNL1        0.0891
      9 N          -3.0526    4.3831   21.3893 N.ar    1  UNL1       -0.2900
     10 C          -4.1364    4.1483   20.3791 C.ar    1  UNL1        0.1507
     11 N          -3.7829    3.9187   18.9396 N.ar    1  UNL1       -0.2263
     12 C          -4.8667    3.6840   17.9295 C.ar    1  UNL1        0.1005
     13 C          -6.3039    3.6789   18.3589 C.ar    1  UNL1        0.0209
     14 C          -6.6573    3.9085   19.7985 C.ar    1  UNL1        0.0078
     15 C          -5.5736    4.1432   20.8086 C.ar    1  UNL1        0.0736
     16 C          -5.9270    4.3728   22.2482 C.ar    1  UNL1        0.2043
     17 O          -7.3642    4.3677   22.6776 O.2     1  UNL1       -0.2863
     18 O          -4.6904    3.8992   25.7533 O.2     1  UNL1       -0.2700
     19 C          -5.1967    4.8372   24.6979 C.2     1  UNL1        0.2504
     20 N          -6.0564    6.0047   25.0821 N.am    1  UNL1       -0.3024
     21 H          -6.3887    6.6203   24.3894 H       1  UNL1        0.1497
     22 C          -6.4099    6.2344   26.5216 C.3     1  UNL1        0.0720
     23 C          -7.4248    6.2338   27.6261 C.3     1  UNL1        0.0213
     24 C          -6.0071    6.6327   27.9105 C.3     1  UNL1        0.0213
     25 C           1.2572    1.8005   20.0639 C.ar    1  UNL1        0.0023
     26 C           1.3102    0.7667   21.1494 C.ar    1  UNL1       -0.0002
     27 C           2.0279   -0.5296   20.9161 C.ar    1  UNL1       -0.0020
     28 C           2.6925   -0.7922   19.5972 C.ar    1  UNL1        0.0053
     29 C           2.6395    0.2417   18.5117 C.ar    1  UNL1        0.1361
     30 F           3.3041   -0.0208   17.1929 F       1  UNL1       -0.2045
     31 C           1.9218    1.5381   18.7451 C.ar    1  UNL1        0.0293
     32 C           3.4102   -2.0885   19.3639 C.3     1  UNL1        0.0301
     33 C           3.3890   -3.5848   19.2611 C.3     1  UNL1        0.0106
     34 C           4.6744   -2.8375   19.0627 C.3     1  UNL1        0.0410
     35 C           6.1464   -2.8385   18.7743 C.2     1  UNL1        0.0503
     36 O           6.6490   -2.3791   17.4377 O.co2   1  UNL1       -0.5492
     37 O           7.1157   -3.2988   19.8223 O.co2   1  UNL1       -0.5492
@<TRIPOS>UNITY_ATOM_ATTR
36 1
charge -1
@<TRIPOS>BOND
     1    18    19    2
     2    19    20   am
     3    20    22    1
     4    22    23    1
     5    23    24    1
     6    19     7    1
     7     7     8   ar
     8     8     9   ar
     9     9     1    1
    10     1     2   ar
    11     2     3   ar
    12     3     4   ar
    13     4     5   ar
    14     5    25    1
    15    25    26   ar
    16    26    27   ar
    17    27    28   ar
    18    32    28    1
    19    32    33    1
    20    33    34    1
    21    34    35    1
    22    35    36   ar
    23    35    37   ar
    24    28    29   ar
    25    29    30    1
    26    29    31   ar
    27     5     6   ar
    28     9    10   ar
    29    10    11   ar
    30    11    12   ar
    31    12    13   ar
    32    13    14   ar
    33    14    15   ar
    34    15    16   ar
    35    16    17    2
    36    24    22    1
    37    16     7   ar
    38     6     1   ar
    39    15    10   ar
    40    31    25   ar
    41    34    32    1
    42    20    21    1
@<TRIPOS>MOLECULE
*****
 37 42 0 0 0
SMALL
GASTEIGER

@<TRIPOS>ATOM
      1 C           7.8416   -5.2677   23.9814 C.ar    1  UNL1        0.0654
      2 C           8.8985   -5.7252   23.0203 C.ar    1  UNL1        0.0176
      3 C           8.8343   -5.3084   21.5808 C.ar    1  UNL1        0.0015
      4 C           7.7132   -4.4342   21.1023 C.ar    1  UNL1        0.0001
      5 C           6.6563   -3.9767   22.0634 C.ar    1  UNL1        0.0015
      6 C           6.7205   -4.3935   23.5030 C.ar    1  UNL1        0.0176
      7 C           8.0839   -7.5539   27.2163 C.ar    1  UNL1        0.1098
      8 C           8.0197   -7.1372   25.7768 C.ar    1  UNL1        0.0891
      9 N           7.9058   -5.6845   25.4209 N.ar    1  UNL1       -0.2900
     10 C           7.8561   -4.6485   26.5046 C.ar    1  UNL1        0.1507
     11 N           7.7423   -3.1958   26.1487 N.ar    1  UNL1       -0.2263
     12 C           7.6926   -2.1598   27.2323 C.ar    1  UNL1        0.1005
     13 C           7.7568   -2.5766   28.6718 C.ar    1  UNL1        0.0209
     14 C           7.8707   -4.0293   29.0277 C.ar    1  UNL1        0.0078
     15 C           7.9203   -5.0652   27.9441 C.ar    1  UNL1        0.0736
     16 C           8.0342   -6.5180   28.2999 C.ar    1  UNL1        0.2043
     17 O           8.0984   -6.9347   29.7394 O.2     1  UNL1       -0.2863
     18 O           9.5355   -9.5923   27.9148 O.2     1  UNL1       -0.2700
     19 C           8.1977   -9.0067   27.5721 C.2     1  UNL1        0.2504
     20 N           6.9738   -9.8738   27.5852 N.am    1  UNL1       -0.3024
     21 H           6.0958   -9.4894   27.3602 H       1  UNL1        0.1497
     22 C           7.0876  -11.3265   27.9410 C.3     1  UNL1        0.0720
     23 C           7.8628  -12.6106   27.9266 C.3     1  UNL1        0.0213
     24 C           6.5097  -12.5586   28.5717 C.3     1  UNL1        0.0213
     25 C           5.5352   -3.1025   21.5850 C.ar    1  UNL1        0.0023
     26 C           5.3261   -2.8882   20.1152 C.ar    1  UNL1       -0.0002
     27 C           4.2051   -2.0139   19.6368 C.ar    1  UNL1       -0.0020
     28 C           3.2930   -1.3540   20.6282 C.ar    1  UNL1        0.0053
     29 C           3.5021   -1.5684   22.0980 C.ar    1  UNL1        0.1361
     30 F           2.5902   -0.9085   23.0894 F       1  UNL1       -0.2045
     31 C           4.6233   -2.4426   22.5764 C.ar    1  UNL1        0.0293
     32 C           2.1720   -0.4798   20.1497 C.3     1  UNL1        0.0301
     33 C           1.3291    0.0556   19.0304 C.3     1  UNL1        0.0106
     34 C           1.0731    0.4989   20.4403 C.3     1  UNL1        0.0410
     35 C           0.2908    1.3199   21.4221 C.2     1  UNL1        0.0503
     36 O          -0.9724    2.0036   20.9897 O.co2   1  UNL1       -0.5492
     37 O           0.7717    1.4573   22.8363 O.co2   1  UNL1       -0.5492
@<TRIPOS>UNITY_ATOM_ATTR
36 1
charge -1
@<TRIPOS>BOND
     1    18    19    2
     2    19    20   am
     3    20    22    1
     4    22    23    1
     5    23    24    1
     6    19     7    1
     7     7     8   ar
     8     8     9   ar
     9     9     1    1
    10     1     2   ar
    11     2     3   ar
    12     3     4   ar
    13     4     5   ar
    14     5    25    1
    15    25    26   ar
    16    26    27   ar
    17    27    28   ar
    18    32    28    1
    19    32    33    1
    20    33    34    1
    21    34    35    1
    22    35    36   ar
    23    35    37   ar
    24    28    29   ar
    25    29    30    1
    26    29    31   ar
    27     5     6   ar
    28     9    10   ar
    29    10    11   ar
    30    11    12   ar
    31    12    13   ar
    32    13    14   ar
    33    14    15   ar
    34    15    16   ar
    35    16    17    2
    36    24    22    1
    37    16     7   ar
    38     6     1   ar
    39    15    10   ar
    40    31    25   ar
    41    34    32    1
    42    20    21    1
@<TRIPOS>MOLECULE
*****
 37 42 0 0 0
SMALL
GASTEIGER

@<TRIPOS>ATOM
      1 C           5.6275   -1.7641   28.3948 C.ar    1  UNL1        0.0654
      2 C           6.9506   -2.2544   28.9037 C.ar    1  UNL1        0.0176
      3 C           7.8946   -2.9626   27.9779 C.ar    1  UNL1        0.0015
      4 C           7.5156   -3.1804   26.5430 C.ar    1  UNL1        0.0001
      5 C           6.1925   -2.6901   26.0340 C.ar    1  UNL1        0.0015
      6 C           5.2485   -1.9820   26.9599 C.ar    1  UNL1        0.0176
      7 C           3.9034   -0.4821   31.7315 C.ar    1  UNL1        0.1098
      8 C           4.8475   -1.1902   30.8056 C.ar    1  UNL1        0.0891
      9 N           4.6835   -1.0559   29.3207 N.ar    1  UNL1       -0.2900
     10 C           3.5754   -0.2135   28.7616 C.ar    1  UNL1        0.1507
     11 N           3.4115   -0.0792   27.2767 N.ar    1  UNL1       -0.2263
     12 C           2.3035    0.7632   26.7176 C.ar    1  UNL1        0.1005
     13 C           1.3594    1.4714   27.6435 C.ar    1  UNL1        0.0209
     14 C           1.5234    1.3371   29.1284 C.ar    1  UNL1        0.0078
     15 C           2.6314    0.4947   29.6875 C.ar    1  UNL1        0.0736
     16 C           2.7954    0.3604   31.1725 C.ar    1  UNL1        0.2043
     17 O           1.8513    1.0685   32.0984 O.2     1  UNL1       -0.2863
     18 O           3.9401   -1.9622   33.8664 O.2     1  UNL1       -0.2700
     19 C           4.0674   -0.6164   33.2165 C.2     1  UNL1        0.2504
     20 N           4.3588    0.5952   34.0515 N.am    1  UNL1       -0.3024
     21 H           4.4423    1.4785   33.6249 H       1  UNL1        0.1497
     22 C           4.5228    0.4610   35.5364 C.3     1  UNL1        0.0720
     23 C           4.0543    0.7674   36.9280 C.3     1  UNL1        0.0213
     24 C           5.2752   -0.0780   36.7167 C.3     1  UNL1        0.0213
     25 C           5.8135   -2.9080   24.5991 C.ar    1  UNL1        0.0023
     26 C           6.6253   -3.8325   23.7410 C.ar    1  UNL1       -0.0002
     27 C           6.2463   -4.0504   22.3062 C.ar    1  UNL1       -0.0020
     28 C           5.0554   -3.3437   21.7294 C.ar    1  UNL1        0.0053
     29 C           4.2437   -2.4192   22.5875 C.ar    1  UNL1        0.1361
     30 F           3.0529   -1.7126   22.0107 F       1  UNL1       -0.2045
     31 C           4.6227   -2.2014   24.0224 C.ar    1  UNL1        0.0293
     32 C           4.6764   -3.5616   20.2945 C.3     1  UNL1        0.0301
     33 C           3.9203   -4.3324   19.2533 C.3     1  UNL1        0.0106
     34 C           4.7761   -3.1682   18.8505 C.3     1  UNL1        0.0410
     35 C           5.3277   -2.2690   17.7842 C.2     1  UNL1        0.0503
     36 O           6.7951   -2.2864   17.4735 O.co2   1  UNL1       -0.5492
     37 O           4.4120   -1.3523   17.0285 O.co2   1  UNL1       -0.5492
@<TRIPOS>UNITY_ATOM_ATTR
36 1
charge -1
@<TRIPOS>BOND
     1    18    19    2
     2    19    20   am
     3    20    22    1
     4    22    23    1
     5    23    24    1
     6    19     7    1
     7     7     8   ar
     8     8     9   ar
     9     9     1    1
    10     1     2   ar
    11     2     3   ar
    12     3     4   ar
    13     4     5   ar
    14     5    25    1
    15    25    26   ar
    16    26    27   ar
    17    27    28   ar
    18    32    28    1
    19    32    33    1
    20    33    34    1
    21    34    35    1
    22    35    36   ar
    23    35    37   ar
    24    28    29   ar
    25    29    30    1
    26    29    31   ar
    27     5     6   ar
    28     9    10   ar
    29    10    11   ar
    30    11    12   ar
    31    12    13   ar
    32    13    14   ar
    33    14    15   ar
    34    15    16   ar
    35    16    17    2
    36    24    22    1
    37    16     7   ar
    38     6     1   ar
    39    15    10   ar
    40    31    25   ar
    41    34    32    1
    42    20    21    1
@<TRIPOS>MOLECULE
*****
 37 42 0 0 0
SMALL
GASTEIGER

@<TRIPOS>ATOM
      1 C           0.3261    3.1510   18.5781 C.ar    1  UNL1        0.0654
      2 C          -0.4981    3.5119   17.3780 C.ar    1  UNL1        0.0176
      3 C          -1.9038    4.0048   17.5542 C.ar    1  UNL1        0.0015
      4 C          -2.4852    4.1369   18.9306 C.ar    1  UNL1        0.0001
      5 C          -1.6609    3.7760   20.1308 C.ar    1  UNL1        0.0015
      6 C          -0.2553    3.2831   19.9545 C.ar    1  UNL1        0.0176
      7 C           3.4080    0.6938   18.1154 C.ar    1  UNL1        0.1098
      8 C           2.0023    1.1868   18.2916 C.ar    1  UNL1        0.0891
      9 N           1.7318    2.6580   18.4018 N.ar    1  UNL1       -0.2900
     10 C           2.8670    3.6364   18.3357 C.ar    1  UNL1        0.1507
     11 N           2.5964    5.1076   18.4458 N.ar    1  UNL1       -0.2263
     12 C           3.7315    6.0859   18.3797 C.ar    1  UNL1        0.1005
     13 C           5.1372    5.5929   18.2035 C.ar    1  UNL1        0.0209
     14 C           5.4077    4.1217   18.0933 C.ar    1  UNL1        0.0078
     15 C           4.2726    3.1434   18.1594 C.ar    1  UNL1        0.0736
     16 C           4.5431    1.6721   18.0493 C.ar    1  UNL1        0.2043
     17 O           5.9488    1.1791   17.8730 O.2     1  UNL1       -0.2863
     18 O           4.1215   -1.3628   16.6971 O.2     1  UNL1       -0.2700
     19 C           3.6785   -0.7775   18.0052 C.2     1  UNL1        0.2504
     20 N           3.5061   -1.6635   19.2033 N.am    1  UNL1       -0.3024
     21 H           3.2154   -1.2794   20.0618 H       1  UNL1        0.1497
     22 C           3.7766   -3.1348   19.0932 C.3     1  UNL1        0.0720
     23 C           4.7326   -4.2654   18.8529 C.3     1  UNL1        0.0213
     24 C           3.2891   -4.5525   19.1427 C.3     1  UNL1        0.0213
     25 C          -2.2424    3.9081   21.5072 C.ar    1  UNL1        0.0023
     26 C          -1.3872    4.3957   22.6390 C.ar    1  UNL1       -0.0002
     27 C          -1.9686    4.5278   24.0154 C.ar    1  UNL1       -0.0020
     28 C          -3.4053    4.1723   24.2600 C.ar    1  UNL1        0.0053
     29 C          -4.2604    3.6847   23.1282 C.ar    1  UNL1        0.1361
     30 F          -5.6970    3.3293   23.3728 F       1  UNL1       -0.2045
     31 C          -3.6789    3.5526   21.7518 C.ar    1  UNL1        0.0293
     32 C          -3.9867    4.3044   25.6364 C.3     1  UNL1        0.0301
     33 C          -3.9571    3.9648   27.0971 C.3     1  UNL1        0.0106
     34 C          -5.0232    4.8728   26.5597 C.3     1  UNL1        0.0410
     35 C          -6.2371    5.7253   26.7824 C.2     1  UNL1        0.0503
     36 O          -6.6592    6.0794   28.1776 O.co2   1  UNL1       -0.5492
     37 O          -7.0291    6.2236   25.6100 O.co2   1  UNL1       -0.5492
@<TRIPOS>UNITY_ATOM_ATTR
36 1
charge -1
@<TRIPOS>BOND
     1    18    19    2
     2    19    20   am
     3    20    22    1
     4    22    23    1
     5    23    24    1
     6    19     7    1
     7     7     8   ar
     8     8     9   ar
     9     9     1    1
    10     1     2   ar
    11     2     3   ar
    12     3     4   ar
    13     4     5   ar
    14     5    25    1
    15    25    26   ar
    16    26    27   ar
    17    27    28   ar
    18    32    28    1
    19    32    33    1
    20    33    34    1
    21    34    35    1
    22    35    36   ar
    23    35    37   ar
    24    28    29   ar
    25    29    30    1
    26    29    31   ar
    27     5     6   ar
    28     9    10   ar
    29    10    11   ar
    30    11    12   ar
    31    12    13   ar
    32    13    14   ar
    33    14    15   ar
    34    15    16   ar
    35    16    17    2
    36    24    22    1
    37    16     7   ar
    38     6     1   ar
    39    15    10   ar
    40    31    25   ar
    41    34    32    1
    42    20    21    1
@<TRIPOS>MOLECULE
*****
 37 42 0 0 0
SMALL
GASTEIGER

@<TRIPOS>ATOM
      1 C          -0.5965    3.4144   18.2732 C.ar    1  UNL1        0.0654
      2 C          -1.1977    3.6928   16.9275 C.ar    1  UNL1        0.0176
      3 C          -2.5922    4.2361   16.8269 C.ar    1  UNL1        0.0015
      4 C          -3.3856    4.5009   18.0720 C.ar    1  UNL1        0.0001
      5 C          -2.7844    4.2224   19.4178 C.ar    1  UNL1        0.0015
      6 C          -1.3899    3.6792   19.5184 C.ar    1  UNL1        0.0176
      7 C           2.4123    0.8851   18.8207 C.ar    1  UNL1        0.1098
      8 C           1.0178    1.4283   18.7201 C.ar    1  UNL1        0.0891
      9 N           0.7981    2.8711   18.3738 N.ar    1  UNL1       -0.2900
     10 C           1.9730    3.7708   18.1281 C.ar    1  UNL1        0.1507
     11 N           1.7533    5.2136   17.7818 N.ar    1  UNL1       -0.2263
     12 C           2.9281    6.1132   17.5361 C.ar    1  UNL1        0.1005
     13 C           4.3227    5.5699   17.6367 C.ar    1  UNL1        0.0209
     14 C           4.5424    4.1271   17.9830 C.ar    1  UNL1        0.0078
     15 C           3.3675    3.2276   18.2287 C.ar    1  UNL1        0.0736
     16 C           3.5872    1.7846   18.5750 C.ar    1  UNL1        0.2043
     17 O           4.9817    1.2414   18.6756 O.2     1  UNL1       -0.2863
     18 O           1.8082   -1.2053   20.2404 O.2     1  UNL1       -0.2700
     19 C           2.6320   -0.5578   19.1670 C.2     1  UNL1        0.2504
     20 N           3.6753   -1.3532   18.4399 N.am    1  UNL1       -0.3024
     21 H           4.2160   -0.9282   17.7354 H       1  UNL1        0.1497
     22 C           3.8950   -2.7960   18.7862 C.3     1  UNL1        0.0720
     23 C           3.3439   -4.1458   19.1386 C.3     1  UNL1        0.0213
     24 C           4.8266   -3.9453   19.0335 C.3     1  UNL1        0.0213
     25 C          -3.5778    4.4872   20.6630 C.ar    1  UNL1        0.0023
     26 C          -4.0657    5.8740   20.9607 C.ar    1  UNL1       -0.0002
     27 C          -4.8591    6.1388   22.2058 C.ar    1  UNL1       -0.0020
     28 C          -5.1646    5.0167   23.1533 C.ar    1  UNL1        0.0053
     29 C          -4.6767    3.6299   22.8556 C.ar    1  UNL1        0.1361
     30 F          -4.9822    2.5078   23.8030 F       1  UNL1       -0.2045
     31 C          -3.8833    3.3651   21.6104 C.ar    1  UNL1        0.0293
     32 C          -5.9580    5.2815   24.3984 C.3     1  UNL1        0.0301
     33 C          -6.0226    5.4383   25.8888 C.3     1  UNL1        0.0106
     34 C          -7.2675    5.5834   25.0647 C.3     1  UNL1        0.0410
     35 C          -8.7423    5.8414   24.9736 C.2     1  UNL1        0.0503
     36 O          -9.3453    7.0100   25.6955 O.co2   1  UNL1       -0.5492
     37 O          -9.6142    4.9310   24.1607 O.co2   1  UNL1       -0.5492
@<TRIPOS>UNITY_ATOM_ATTR
36 1
charge -1
@<TRIPOS>BOND
     1    18    19    2
     2    19    20   am
     3    20    22    1
     4    22    23    1
     5    23    24    1
     6    19     7    1
     7     7     8   ar
     8     8     9   ar
     9     9     1    1
    10     1     2   ar
    11     2     3   ar
    12     3     4   ar
    13     4     5   ar
    14     5    25    1
    15    25    26   ar
    16    26    27   ar
    17    27    28   ar
    18    32    28    1
    19    32    33    1
    20    33    34    1
    21    34    35    1
    22    35    36   ar
    23    35    37   ar
    24    28    29   ar
    25    29    30    1
    26    29    31   ar
    27     5     6   ar
    28     9    10   ar
    29    10    11   ar
    30    11    12   ar
    31    12    13   ar
    32    13    14   ar
    33    14    15   ar
    34    15    16   ar
    35    16    17    2
    36    24    22    1
    37    16     7   ar
    38     6     1   ar
    39    15    10   ar
    40    31    25   ar
    41    34    32    1
    42    20    21    1
@<TRIPOS>MOLECULE
*****
 37 42 0 0 0
SMALL
GASTEIGER

@<TRIPOS>ATOM
      1 C           3.2439   -1.0383   21.4493 C.ar    1  UNL1        0.0654
      2 C           2.6863   -1.2331   20.0705 C.ar    1  UNL1        0.0176
      3 C           1.4015   -0.5648   19.6798 C.ar    1  UNL1        0.0015
      4 C           0.6743    0.2982   20.6678 C.ar    1  UNL1        0.0001
      5 C           1.2319    0.4931   22.0467 C.ar    1  UNL1        0.0015
      6 C           2.5167   -0.1752   22.4374 C.ar    1  UNL1        0.0176
      7 C           6.0085   -2.8619   23.6360 C.ar    1  UNL1        0.1098
      8 C           4.7236   -2.1937   23.2452 C.ar    1  UNL1        0.0891
      9 N           4.5287   -1.7066   21.8400 N.ar    1  UNL1       -0.2900
     10 C           5.6186   -1.8877   20.8254 C.ar    1  UNL1        0.1507
     11 N           5.4237   -1.4006   19.4202 N.ar    1  UNL1       -0.2263
     12 C           6.5136   -1.5818   18.4057 C.ar    1  UNL1        0.1005
     13 C           7.7984   -2.2501   18.7964 C.ar    1  UNL1        0.0209
     14 C           7.9934   -2.7372   20.2016 C.ar    1  UNL1        0.0078
     15 C           6.9035   -2.5560   21.2161 C.ar    1  UNL1        0.0736
     16 C           7.0984   -3.0431   22.6215 C.ar    1  UNL1        0.2043
     17 O           8.3832   -3.7114   23.0122 O.2     1  UNL1       -0.2863
     18 O           6.0560   -2.3981   26.1919 O.2     1  UNL1       -0.2700
     19 C           6.2033   -3.3490   25.0413 C.2     1  UNL1        0.2504
     20 N           6.5456   -4.7871   25.2959 N.am    1  UNL1       -0.3024
     21 H           6.6423   -5.4112   24.5407 H       1  UNL1        0.1497
     22 C           6.7405   -5.2742   26.7011 C.3     1  UNL1        0.0720
     23 C           7.4538   -6.1553   27.6834 C.3     1  UNL1        0.0213
     24 C           6.3647   -5.2369   28.1528 C.3     1  UNL1        0.0213
     25 C           0.5047    1.3561   23.0347 C.ar    1  UNL1        0.0023
     26 C          -0.2143    2.5873   22.5687 C.ar    1  UNL1       -0.0002
     27 C          -0.9414    3.4504   23.5568 C.ar    1  UNL1       -0.0020
     28 C          -0.9497    3.0823   25.0109 C.ar    1  UNL1        0.0053
     29 C          -0.2307    1.8511   25.4769 C.ar    1  UNL1        0.1361
     30 F          -0.2389    1.4829   26.9310 F       1  UNL1       -0.2045
     31 C           0.4965    0.9880   24.4888 C.ar    1  UNL1        0.0293
     32 C          -1.6769    3.9453   25.9990 C.3     1  UNL1        0.0301
     33 C          -1.6512    4.9557   27.1074 C.3     1  UNL1        0.0106
     34 C          -2.9620    4.4299   26.6019 C.3     1  UNL1        0.0410
     35 C          -4.4607    4.4062   26.6583 C.2     1  UNL1        0.0503
     36 O          -5.1861    5.2326   27.6786 O.co2   1  UNL1       -0.5492
     37 O          -5.2341    3.5561   25.6943 O.co2   1  UNL1       -0.5492
@<TRIPOS>UNITY_ATOM_ATTR
36 1
charge -1
@<TRIPOS>BOND
     1    18    19    2
     2    19    20   am
     3    20    22    1
     4    22    23    1
     5    23    24    1
     6    19     7    1
     7     7     8   ar
     8     8     9   ar
     9     9     1    1
    10     1     2   ar
    11     2     3   ar
    12     3     4   ar
    13     4     5   ar
    14     5    25    1
    15    25    26   ar
    16    26    27   ar
    17    27    28   ar
    18    32    28    1
    19    32    33    1
    20    33    34    1
    21    34    35    1
    22    35    36   ar
    23    35    37   ar
    24    28    29   ar
    25    29    30    1
    26    29    31   ar
    27     5     6   ar
    28     9    10   ar
    29    10    11   ar
    30    11    12   ar
    31    12    13   ar
    32    13    14   ar
    33    14    15   ar
    34    15    16   ar
    35    16    17    2
    36    24    22    1
    37    16     7   ar
    38     6     1   ar
    39    15    10   ar
    40    31    25   ar
    41    34    32    1
    42    20    21    1
