@<TRIPOS>MOLECULE
*****
 42 47 0 0 0
SMALL
GASTEIGER

@<TRIPOS>ATOM
      1 N           4.8284   -2.0427   22.6427 N.3     1  UNL1       -0.2679
      2 C           4.5341   -2.6142   21.2874 C.3     1  UNL1        0.0978
      3 C           4.2847   -4.0851   21.1317 C.3     1  UNL1        0.0224
      4 C           3.9904   -4.6565   19.7764 C.3     1  UNL1        0.0065
      5 C           3.9455   -3.7571   18.5768 C.3     1  UNL1        0.0277
      6 C           4.1949   -2.2862   18.7325 C.ar    1  UNL1       -0.0073
      7 C           4.1500   -1.3867   17.5330 C.ar    1  UNL1       -0.0015
      8 C           4.3994    0.0842   17.6887 C.ar    1  UNL1        0.0203
      9 C           4.6937    0.6556   19.0440 C.ar    1  UNL1        0.0985
     10 N           4.7386   -0.2438   20.2435 N.ar    1  UNL1       -0.2471
     11 C           4.4892   -1.7147   20.0878 C.ar    1  UNL1        0.0695
     12 C           6.2227   -2.0976   23.1932 C.3     1  UNL1        0.0886
     13 C           8.4428   -8.0399   25.8411 C.ar    1  UNL1       -0.0003
     14 C           7.5426   -7.3659   26.8337 C.ar    1  UNL1       -0.0003
     15 C           6.9186   -6.0426   26.5026 C.ar    1  UNL1       -0.0045
     16 C           7.1947   -5.3934   25.1790 C.ar    1  UNL1       -0.0234
     17 C           8.0948   -6.0674   24.1863 C.ar    1  UNL1       -0.0103
     18 C           8.7189   -7.3906   24.5174 C.ar    1  UNL1       -0.0032
     19 C           8.3710   -5.4181   22.8626 C.3     1  UNL1        0.0953
     20 N           7.7470   -4.0949   22.5315 N.3     1  UNL1       -0.2934
     21 C           6.8468   -3.4209   23.5242 C.3     1  UNL1        0.0748
     22 C           6.5706   -4.0701   24.8479 C.3     1  UNL1        0.0432
     23 H           7.1986   -4.2321   21.6825 H       1  UNL1        0.1236
     24 C           3.7285   -1.4163   23.4475 C.3     1  UNL1        0.0725
     25 C           3.9649   -1.0488   24.8824 C.3     1  UNL1        0.0188
     26 C           3.4672    0.2632   25.4124 C.3     1  UNL1        0.0188
     27 C           3.3175    1.4365   24.4900 C.3     1  UNL1        0.0727
     28 N           2.0520    1.6170   23.7052 N.3     1  UNL1       -0.2652
     29 C           0.7818    0.9695   24.1712 C.3     1  UNL1        0.0995
     30 C          -0.1571    1.7199   25.0688 C.ar    1  UNL1       -0.0030
     31 C          -0.2265    1.3852   26.5293 C.ar    1  UNL1        0.0178
     32 C          -1.1653    2.1355   27.4269 C.ar    1  UNL1        0.0986
     33 N          -2.0347    3.2205   26.8639 N.ar    1  UNL1       -0.2423
     34 C          -1.9652    3.5552   25.4034 C.ar    1  UNL1        0.0986
     35 C          -1.0264    2.8049   24.5058 C.ar    1  UNL1        0.0178
     36 C           2.0568    2.4449   22.4543 C.3     1  UNL1        0.0995
     37 C           1.6761    1.8244   21.1428 C.ar    1  UNL1       -0.0030
     38 C           1.5511    2.6796   19.9168 C.ar    1  UNL1        0.0178
     39 C           1.1704    2.0590   18.6052 C.ar    1  UNL1        0.0986
     40 N           0.9149    0.5835   18.5197 N.ar    1  UNL1       -0.2423
     41 C           1.0400   -0.2717   19.7457 C.ar    1  UNL1        0.0986
     42 C           1.4206    0.3488   21.0572 C.ar    1  UNL1        0.0178
@<TRIPOS>BOND
     1    13    14   ar
     2    14    15   ar
     3    15    16   ar
     4    16    17   ar
     5    17    18   ar
     6    17    19    1
     7    19    20    1
     8    20    21    1
     9    21    12    1
    10    12     1    1
    11     1    24    1
    12    24    25    1
    13    25    26    1
    14    26    27    1
    15    27    28    1
    16    28    29    1
    17    29    30    1
    18    30    31   ar
    19    31    32   ar
    20    32    33   ar
    21    33    34   ar
    22    34    35   ar
    23    28    36    1
    24    36    37    1
    25    37    38   ar
    26    38    39   ar
    27    39    40   ar
    28    40    41   ar
    29    41    42   ar
    30     2     1    1
    31     2     3    1
    32     3     4    1
    33     4     5    1
    34     5     6    1
    35     6     7   ar
    36     7     8   ar
    37     8     9   ar
    38     9    10   ar
    39    10    11   ar
    40    21    22    1
    41    18    13   ar
    42    35    30   ar
    43    42    37   ar
    44    11     2    1
    45    22    16    1
    46    11     6   ar
    47    20    23    1
@<TRIPOS>MOLECULE
*****
 42 47 0 0 0
SMALL
GASTEIGER

@<TRIPOS>ATOM
      1 N          -9.8560  -17.8655   21.0668 N.3     1  UNL1       -0.2679
      2 C         -10.1097  -18.6797   22.3008 C.3     1  UNL1        0.0978
      3 C          -9.0977  -19.6898   22.7541 C.3     1  UNL1        0.0224
      4 C          -9.3514  -20.5039   23.9882 C.3     1  UNL1        0.0065
      5 C         -10.6171  -20.3079   24.7689 C.3     1  UNL1        0.0277
      6 C         -11.6291  -19.2978   24.3156 C.ar    1  UNL1       -0.0073
      7 C         -12.8948  -19.1018   25.0963 C.ar    1  UNL1       -0.0015
      8 C         -13.9069  -18.0917   24.6429 C.ar    1  UNL1        0.0203
      9 C         -13.6532  -17.2776   23.4089 C.ar    1  UNL1        0.0985
     10 N         -12.3875  -17.4736   22.6283 N.ar    1  UNL1       -0.2471
     11 C         -11.3754  -18.4837   23.0816 C.ar    1  UNL1        0.0695
     12 C          -9.3831  -16.4471   21.1881 C.3     1  UNL1        0.0886
     13 C          -6.8597  -15.2301   27.4651 C.ar    1  UNL1       -0.0003
     14 C          -7.9623  -16.2418   27.5669 C.ar    1  UNL1       -0.0003
     15 C          -8.6876  -16.6876   26.3318 C.ar    1  UNL1       -0.0045
     16 C          -8.3101  -16.1216   24.9950 C.ar    1  UNL1       -0.0234
     17 C          -7.2075  -15.1098   24.8933 C.ar    1  UNL1       -0.0103
     18 C          -6.4822  -14.6641   26.1283 C.ar    1  UNL1       -0.0032
     19 C          -6.8300  -14.5438   23.5564 C.3     1  UNL1        0.0953
     20 N          -7.5552  -14.9895   22.3213 N.3     1  UNL1       -0.2934
     21 C          -8.6579  -16.0014   22.4232 C.3     1  UNL1        0.0748
     22 C          -9.0353  -16.5674   23.7600 C.3     1  UNL1        0.0432
     23 H          -6.8535  -15.3809   21.6930 H       1  UNL1        0.1236
     24 C         -10.0751  -18.4697   19.7115 C.3     1  UNL1        0.0725
     25 C          -9.0966  -19.4686   19.1685 C.3     1  UNL1        0.0188
     26 C          -7.6466  -19.3773   19.5417 C.3     1  UNL1        0.0188
     27 C          -6.8560  -20.6277   19.7900 C.3     1  UNL1        0.0727
     28 N          -5.5535  -20.5567   20.5306 N.3     1  UNL1       -0.2652
     29 C          -4.2611  -20.7557   19.7957 C.3     1  UNL1        0.0995
     30 C          -3.3193  -19.6032   19.6090 C.ar    1  UNL1       -0.0030
     31 C          -1.8942  -19.7181   20.0627 C.ar    1  UNL1        0.0178
     32 C          -0.9524  -18.5656   19.8760 C.ar    1  UNL1        0.0986
     33 N          -1.4357  -17.2982   19.2357 N.ar    1  UNL1       -0.2423
     34 C          -2.8608  -17.1833   18.7820 C.ar    1  UNL1        0.0986
     35 C          -3.8026  -18.3358   18.9687 C.ar    1  UNL1        0.0178
     36 C          -5.5434  -20.2867   22.0061 C.3     1  UNL1        0.0995
     37 C          -4.7322  -19.1507   22.5552 C.ar    1  UNL1       -0.0030
     38 C          -5.3940  -17.8439   22.8780 C.ar    1  UNL1        0.0178
     39 C          -4.5827  -16.7079   23.4271 C.ar    1  UNL1        0.0986
     40 N          -3.1098  -16.8788   23.6533 N.ar    1  UNL1       -0.2423
     41 C          -2.4480  -18.1856   23.3304 C.ar    1  UNL1        0.0986
     42 C          -3.2592  -19.3216   22.7814 C.ar    1  UNL1        0.0178
@<TRIPOS>BOND
     1    13    14   ar
     2    14    15   ar
     3    15    16   ar
     4    16    17   ar
     5    17    18   ar
     6    17    19    1
     7    19    20    1
     8    20    21    1
     9    21    12    1
    10    12     1    1
    11     1    24    1
    12    24    25    1
    13    25    26    1
    14    26    27    1
    15    27    28    1
    16    28    29    1
    17    29    30    1
    18    30    31   ar
    19    31    32   ar
    20    32    33   ar
    21    33    34   ar
    22    34    35   ar
    23    28    36    1
    24    36    37    1
    25    37    38   ar
    26    38    39   ar
    27    39    40   ar
    28    40    41   ar
    29    41    42   ar
    30     2     1    1
    31     2     3    1
    32     3     4    1
    33     4     5    1
    34     5     6    1
    35     6     7   ar
    36     7     8   ar
    37     8     9   ar
    38     9    10   ar
    39    10    11   ar
    40    21    22    1
    41    18    13   ar
    42    35    30   ar
    43    42    37   ar
    44    11     2    1
    45    22    16    1
    46    11     6   ar
    47    20    23    1
@<TRIPOS>MOLECULE
*****
 42 47 0 0 0
SMALL
GASTEIGER

@<TRIPOS>ATOM
      1 N          -9.8643  -17.8466   21.0697 N.3     1  UNL1       -0.2679
      2 C         -10.1185  -18.6662   22.3000 C.3     1  UNL1        0.0978
      3 C          -9.1036  -19.6735   22.7530 C.3     1  UNL1        0.0224
      4 C          -9.3579  -20.4931   23.9834 C.3     1  UNL1        0.0065
      5 C         -10.6270  -20.3054   24.7606 C.3     1  UNL1        0.0277
      6 C         -11.6418  -19.2980   24.3075 C.ar    1  UNL1       -0.0073
      7 C         -12.9109  -19.1103   25.0847 C.ar    1  UNL1       -0.0015
      8 C         -13.9258  -18.1029   24.6317 C.ar    1  UNL1        0.0203
      9 C         -13.6716  -17.2834   23.4014 C.ar    1  UNL1        0.0985
     10 N         -12.4025  -17.4711   22.6242 N.ar    1  UNL1       -0.2471
     11 C         -11.3876  -18.4785   23.0773 C.ar    1  UNL1        0.0695
     12 C          -9.3869  -16.4303   21.1974 C.3     1  UNL1        0.0886
     13 C          -6.8624  -15.2492   27.4808 C.ar    1  UNL1       -0.0003
     14 C          -7.9679  -16.2583   27.5776 C.ar    1  UNL1       -0.0003
     15 C          -8.6939  -16.6964   26.3402 C.ar    1  UNL1       -0.0045
     16 C          -8.3144  -16.1253   25.0062 C.ar    1  UNL1       -0.0234
     17 C          -7.2089  -15.1161   24.9094 C.ar    1  UNL1       -0.0103
     18 C          -6.4829  -14.6781   26.1468 C.ar    1  UNL1       -0.0032
     19 C          -6.8294  -14.5449   23.5753 C.3     1  UNL1        0.0953
     20 N          -7.5554  -14.9830   22.3380 N.3     1  UNL1       -0.2934
     21 C          -8.6609  -15.9922   22.4347 C.3     1  UNL1        0.0748
     22 C          -9.0404  -16.5633   23.7688 C.3     1  UNL1        0.0432
     23 H          -6.8546  -15.3734   21.7081 H       1  UNL1        0.1236
     24 C         -10.0874  -18.4433   19.7117 C.3     1  UNL1        0.0725
     25 C          -9.1372  -19.4753   19.1806 C.3     1  UNL1        0.0188
     26 C          -7.6789  -19.3992   19.5235 C.3     1  UNL1        0.0188
     27 C          -6.9179  -20.6511   19.8454 C.3     1  UNL1        0.0727
     28 N          -5.5982  -20.5655   20.5533 N.3     1  UNL1       -0.2652
     29 C          -5.5540  -20.2883   22.0267 C.3     1  UNL1        0.0995
     30 C          -4.7299  -19.1501   22.5515 C.ar    1  UNL1       -0.0030
     31 C          -3.2674  -19.3451   22.8216 C.ar    1  UNL1        0.0178
     32 C          -2.4433  -18.2069   23.3463 C.ar    1  UNL1        0.0986
     33 N          -3.0817  -16.8737   23.6009 N.ar    1  UNL1       -0.2423
     34 C          -4.5442  -16.6787   23.3308 C.ar    1  UNL1        0.0986
     35 C          -5.3683  -17.8169   22.8060 C.ar    1  UNL1        0.0178
     36 C          -4.3226  -20.7570   19.7875 C.3     1  UNL1        0.0995
     37 C          -3.3745  -19.6082   19.6104 C.ar    1  UNL1       -0.0030
     38 C          -1.9513  -19.7330   20.0676 C.ar    1  UNL1        0.0178
     39 C          -1.0032  -18.5842   19.8904 C.ar    1  UNL1        0.0986
     40 N          -1.4782  -17.3107   19.2561 N.ar    1  UNL1       -0.2423
     41 C          -2.9014  -17.1859   18.7989 C.ar    1  UNL1        0.0986
     42 C          -3.8495  -18.3346   18.9760 C.ar    1  UNL1        0.0178
@<TRIPOS>BOND
     1    13    14   ar
     2    14    15   ar
     3    15    16   ar
     4    16    17   ar
     5    17    18   ar
     6    17    19    1
     7    19    20    1
     8    20    21    1
     9    21    12    1
    10    12     1    1
    11     1    24    1
    12    24    25    1
    13    25    26    1
    14    26    27    1
    15    27    28    1
    16    28    29    1
    17    29    30    1
    18    30    31   ar
    19    31    32   ar
    20    32    33   ar
    21    33    34   ar
    22    34    35   ar
    23    28    36    1
    24    36    37    1
    25    37    38   ar
    26    38    39   ar
    27    39    40   ar
    28    40    41   ar
    29    41    42   ar
    30     2     1    1
    31     2     3    1
    32     3     4    1
    33     4     5    1
    34     5     6    1
    35     6     7   ar
    36     7     8   ar
    37     8     9   ar
    38     9    10   ar
    39    10    11   ar
    40    21    22    1
    41    18    13   ar
    42    35    30   ar
    43    42    37   ar
    44    11     2    1
    45    22    16    1
    46    11     6   ar
    47    20    23    1
@<TRIPOS>MOLECULE
*****
 42 47 0 0 0
SMALL
GASTEIGER

@<TRIPOS>ATOM
      1 N           6.3711   -3.1341   23.7278 N.3     1  UNL1       -0.2679
      2 C           7.2409   -4.3113   23.3994 C.3     1  UNL1        0.0978
      3 C           7.9429   -4.3789   22.0755 C.3     1  UNL1        0.0224
      4 C           8.8127   -5.5561   21.7472 C.3     1  UNL1        0.0065
      5 C           8.9804   -6.6656   22.7426 C.3     1  UNL1        0.0277
      6 C           8.2784   -6.5979   24.0665 C.ar    1  UNL1       -0.0073
      7 C           8.4461   -7.7073   25.0619 C.ar    1  UNL1       -0.0015
      8 C           7.7440   -7.6397   26.3857 C.ar    1  UNL1        0.0203
      9 C           6.8743   -6.4626   26.7141 C.ar    1  UNL1        0.0985
     10 N           6.7066   -5.3531   25.7187 N.ar    1  UNL1       -0.2471
     11 C           7.4086   -5.4208   24.3949 C.ar    1  UNL1        0.0695
     12 C           4.9650   -3.0726   23.2089 C.3     1  UNL1        0.0886
     13 C           2.1774    0.8716   18.3178 C.ar    1  UNL1       -0.0003
     14 C           1.0817    0.2640   19.1423 C.ar    1  UNL1       -0.0003
     15 C           1.4200   -0.6464   20.2854 C.ar    1  UNL1       -0.0045
     16 C           2.8542   -0.9491   20.6040 C.ar    1  UNL1       -0.0234
     17 C           3.9500   -0.3414   19.7795 C.ar    1  UNL1       -0.0103
     18 C           3.6116    0.5690   18.6364 C.ar    1  UNL1       -0.0032
     19 C           5.3842   -0.6441   20.0981 C.3     1  UNL1        0.0953
     20 N           5.7226   -1.5545   21.2412 N.3     1  UNL1       -0.2934
     21 C           4.6267   -2.1622   22.0657 C.3     1  UNL1        0.0748
     22 C           3.1925   -1.8595   21.7472 C.3     1  UNL1        0.0432
     23 H           6.3095   -1.0187   21.8805 H       1  UNL1        0.1236
     24 C           6.9074   -2.0186   24.5751 C.3     1  UNL1        0.0725
     25 C           5.9623   -1.0893   25.2774 C.3     1  UNL1        0.0188
     26 C           5.6831    0.2692   24.7060 C.3     1  UNL1        0.0188
     27 C           4.9291    1.2826   25.5151 C.3     1  UNL1        0.0727
     28 N           3.4329    1.3477   25.4298 N.3     1  UNL1       -0.2652
     29 C           2.6512    2.0582   26.4946 C.3     1  UNL1        0.0995
     30 C           1.7523    1.2808   27.4099 C.ar    1  UNL1       -0.0030
     31 C           2.3344    0.5170   28.5621 C.ar    1  UNL1        0.0178
     32 C           1.4355   -0.2604   29.4773 C.ar    1  UNL1        0.0986
     33 N          -0.0455   -0.2740   29.2403 N.ar    1  UNL1       -0.2423
     34 C          -0.6277    0.4898   28.0881 C.ar    1  UNL1        0.0986
     35 C           0.2712    1.2672   27.1729 C.ar    1  UNL1        0.0178
     36 C           2.7185    0.7023   24.2795 C.3     1  UNL1        0.0995
     37 C           2.0767    1.5521   23.2232 C.ar    1  UNL1       -0.0030
     38 C           2.9296    2.3420   22.2753 C.ar    1  UNL1        0.0178
     39 C           2.2877    3.1919   21.2190 C.ar    1  UNL1        0.0986
     40 N           0.7928    3.2519   21.1107 N.ar    1  UNL1       -0.2423
     41 C          -0.0602    2.4620   22.0586 C.ar    1  UNL1        0.0986
     42 C           0.5817    1.6122   23.1149 C.ar    1  UNL1        0.0178
@<TRIPOS>BOND
     1    13    14   ar
     2    14    15   ar
     3    15    16   ar
     4    16    17   ar
     5    17    18   ar
     6    17    19    1
     7    19    20    1
     8    20    21    1
     9    21    12    1
    10    12     1    1
    11     1    24    1
    12    24    25    1
    13    25    26    1
    14    26    27    1
    15    27    28    1
    16    28    29    1
    17    29    30    1
    18    30    31   ar
    19    31    32   ar
    20    32    33   ar
    21    33    34   ar
    22    34    35   ar
    23    28    36    1
    24    36    37    1
    25    37    38   ar
    26    38    39   ar
    27    39    40   ar
    28    40    41   ar
    29    41    42   ar
    30     2     1    1
    31     2     3    1
    32     3     4    1
    33     4     5    1
    34     5     6    1
    35     6     7   ar
    36     7     8   ar
    37     8     9   ar
    38     9    10   ar
    39    10    11   ar
    40    21    22    1
    41    18    13   ar
    42    35    30   ar
    43    42    37   ar
    44    11     2    1
    45    22    16    1
    46    11     6   ar
    47    20    23    1
@<TRIPOS>MOLECULE
*****
 42 47 0 0 0
SMALL
GASTEIGER

@<TRIPOS>ATOM
      1 N           7.6857   -2.8239   20.7539 N.3     1  UNL1       -0.2679
      2 C           6.3091   -2.8531   20.1588 C.3     1  UNL1        0.0978
      3 C           5.2984   -3.8441   20.6550 C.3     1  UNL1        0.0224
      4 C           3.9217   -3.8732   20.0598 C.3     1  UNL1        0.0065
      5 C           3.5560   -2.9113   18.9686 C.3     1  UNL1        0.0277
      6 C           4.5667   -1.9203   18.4724 C.ar    1  UNL1       -0.0073
      7 C           4.2009   -0.9584   17.3811 C.ar    1  UNL1       -0.0015
      8 C           5.2117    0.0326   16.8849 C.ar    1  UNL1        0.0203
      9 C           6.5883    0.0618   17.4800 C.ar    1  UNL1        0.0985
     10 N           6.9541   -0.9001   18.5713 N.ar    1  UNL1       -0.2471
     11 C           5.9433   -1.8912   19.0675 C.ar    1  UNL1        0.0695
     12 C           8.5196   -4.0707   20.7766 C.3     1  UNL1        0.0886
     13 C           7.4463   -7.4292   26.6773 C.ar    1  UNL1       -0.0003
     14 C           6.8707   -6.0484   26.7865 C.ar    1  UNL1       -0.0003
     15 C           6.9702   -5.1005   25.6282 C.ar    1  UNL1       -0.0045
     16 C           7.6453   -5.5335   24.3607 C.ar    1  UNL1       -0.0234
     17 C           8.2210   -6.9143   24.2514 C.ar    1  UNL1       -0.0103
     18 C           8.1214   -7.8621   25.4097 C.ar    1  UNL1       -0.0032
     19 C           8.8961   -7.3473   22.9839 C.3     1  UNL1        0.0953
     20 N           8.9957   -6.3994   21.8256 N.3     1  UNL1       -0.2934
     21 C           8.4200   -5.0185   21.9349 C.3     1  UNL1        0.0748
     22 C           7.7449   -4.5856   23.2024 C.3     1  UNL1        0.0432
     23 H           8.5329   -6.8497   21.0360 H       1  UNL1        0.1236
     24 C           8.2285   -1.5481   21.3263 C.3     1  UNL1        0.0725
     25 C           7.6043   -0.9509   22.5525 C.3     1  UNL1        0.0188
     26 C           6.3150   -0.1919   22.4440 C.3     1  UNL1        0.0188
     27 C           5.0531   -0.7723   23.0105 C.3     1  UNL1        0.0727
     28 N           3.8511    0.1015   23.2140 N.3     1  UNL1       -0.2652
     29 C           2.9283   -0.1495   24.3696 C.3     1  UNL1        0.0995
     30 C           2.0487    0.9530   24.8802 C.ar    1  UNL1       -0.0030
     31 C           2.5918    1.9552   25.8552 C.ar    1  UNL1        0.0178
     32 C           1.7122    3.0577   26.3659 C.ar    1  UNL1        0.0986
     33 N           0.2894    3.1580   25.9015 N.ar    1  UNL1       -0.2423
     34 C          -0.2537    2.1559   24.9265 C.ar    1  UNL1        0.0986
     35 C           0.6259    1.0534   24.4159 C.ar    1  UNL1        0.0178
     36 C           3.5718    1.2265   22.2618 C.3     1  UNL1        0.0995
     37 C           2.7143    0.9913   21.0538 C.ar    1  UNL1       -0.0030
     38 C           2.7621    1.9506   19.9017 C.ar    1  UNL1        0.0178
     39 C           1.9045    1.7153   18.6937 C.ar    1  UNL1        0.0986
     40 N           0.9992    0.5207   18.6378 N.ar    1  UNL1       -0.2423
     41 C           0.9513   -0.4387   19.7899 C.ar    1  UNL1        0.0986
     42 C           1.8089   -0.2034   20.9979 C.ar    1  UNL1        0.0178
@<TRIPOS>BOND
     1    13    14   ar
     2    14    15   ar
     3    15    16   ar
     4    16    17   ar
     5    17    18   ar
     6    17    19    1
     7    19    20    1
     8    20    21    1
     9    21    12    1
    10    12     1    1
    11     1    24    1
    12    24    25    1
    13    25    26    1
    14    26    27    1
    15    27    28    1
    16    28    29    1
    17    29    30    1
    18    30    31   ar
    19    31    32   ar
    20    32    33   ar
    21    33    34   ar
    22    34    35   ar
    23    28    36    1
    24    36    37    1
    25    37    38   ar
    26    38    39   ar
    27    39    40   ar
    28    40    41   ar
    29    41    42   ar
    30     2     1    1
    31     2     3    1
    32     3     4    1
    33     4     5    1
    34     5     6    1
    35     6     7   ar
    36     7     8   ar
    37     8     9   ar
    38     9    10   ar
    39    10    11   ar
    40    21    22    1
    41    18    13   ar
    42    35    30   ar
    43    42    37   ar
    44    11     2    1
    45    22    16    1
    46    11     6   ar
    47    20    23    1
@<TRIPOS>MOLECULE
*****
 42 47 0 0 0
SMALL
GASTEIGER

@<TRIPOS>ATOM
      1 N           7.1815   -4.0660   23.8122 N.3     1  UNL1       -0.2679
      2 C           7.5002   -5.2308   24.7019 C.3     1  UNL1        0.0978
      3 C           8.0373   -6.5008   24.1113 C.3     1  UNL1        0.0224
      4 C           8.3560   -7.6656   25.0011 C.3     1  UNL1        0.0065
      5 C           8.1377   -7.5605   26.4813 C.3     1  UNL1        0.0277
      6 C           7.6007   -6.2905   27.0719 C.ar    1  UNL1       -0.0073
      7 C           7.3824   -6.1854   28.5522 C.ar    1  UNL1       -0.0015
      8 C           6.8454   -4.9154   29.1428 C.ar    1  UNL1        0.0203
      9 C           6.5266   -3.7506   28.2531 C.ar    1  UNL1        0.0985
     10 N           6.7449   -3.8558   26.7728 N.ar    1  UNL1       -0.2471
     11 C           7.2819   -5.1257   26.1822 C.ar    1  UNL1        0.0695
     12 C           5.8284   -3.9582   23.1736 C.3     1  UNL1        0.0886
     13 C           1.3947    1.2832   23.5188 C.ar    1  UNL1       -0.0003
     14 C           1.4982    0.8206   22.0958 C.ar    1  UNL1       -0.0003
     15 C           2.4056   -0.3202   21.7421 C.ar    1  UNL1       -0.0045
     16 C           3.2096   -0.9984   22.8115 C.ar    1  UNL1       -0.0234
     17 C           3.1061   -0.5358   24.2346 C.ar    1  UNL1       -0.0103
     18 C           2.1986    0.6050   24.5883 C.ar    1  UNL1       -0.0032
     19 C           3.9100   -1.2140   25.3041 C.3     1  UNL1        0.0953
     20 N           4.8175   -2.3548   24.9504 N.3     1  UNL1       -0.2934
     21 C           4.9210   -2.8174   23.5273 C.3     1  UNL1        0.0748
     22 C           4.1170   -2.1392   22.4578 C.3     1  UNL1        0.0432
     23 H           4.5091   -3.1574   25.4992 H       1  UNL1        0.1236
     24 C           8.2157   -3.0090   23.5610 C.3     1  UNL1        0.0725
     25 C           8.4825   -2.5381   22.1621 C.3     1  UNL1        0.0188
     26 C           8.4098   -1.0758   21.8363 C.3     1  UNL1        0.0188
     27 C           7.0929   -0.4507   21.4824 C.3     1  UNL1        0.0727
     28 N           6.8110   -0.0467   20.0656 N.3     1  UNL1       -0.2652
     29 C           6.6527    1.4035   19.7166 C.3     1  UNL1        0.0995
     30 C           5.2919    2.0344   19.7324 C.ar    1  UNL1       -0.0030
     31 C           4.8787    2.8972   20.8877 C.ar    1  UNL1        0.0178
     32 C           3.5179    3.5282   20.9035 C.ar    1  UNL1        0.0986
     33 N           2.5705    3.2964   19.7640 N.ar    1  UNL1       -0.2423
     34 C           2.9837    2.4336   18.6087 C.ar    1  UNL1        0.0986
     35 C           4.3445    1.8026   18.5929 C.ar    1  UNL1        0.0178
     36 C           6.6876   -1.0930   18.9978 C.3     1  UNL1        0.0995
     37 C           5.6448   -2.1648   19.1150 C.ar    1  UNL1       -0.0030
     38 C           4.2017   -1.8372   18.8700 C.ar    1  UNL1        0.0178
     39 C           3.1589   -2.9092   18.9872 C.ar    1  UNL1        0.0986
     40 N           3.5593   -4.3086   19.3494 N.ar    1  UNL1       -0.2423
     41 C           5.0024   -4.6362   19.5944 C.ar    1  UNL1        0.0986
     42 C           6.0452   -3.5643   19.4773 C.ar    1  UNL1        0.0178
@<TRIPOS>BOND
     1    13    14   ar
     2    14    15   ar
     3    15    16   ar
     4    16    17   ar
     5    17    18   ar
     6    17    19    1
     7    19    20    1
     8    20    21    1
     9    21    12    1
    10    12     1    1
    11     1    24    1
    12    24    25    1
    13    25    26    1
    14    26    27    1
    15    27    28    1
    16    28    29    1
    17    29    30    1
    18    30    31   ar
    19    31    32   ar
    20    32    33   ar
    21    33    34   ar
    22    34    35   ar
    23    28    36    1
    24    36    37    1
    25    37    38   ar
    26    38    39   ar
    27    39    40   ar
    28    40    41   ar
    29    41    42   ar
    30     2     1    1
    31     2     3    1
    32     3     4    1
    33     4     5    1
    34     5     6    1
    35     6     7   ar
    36     7     8   ar
    37     8     9   ar
    38     9    10   ar
    39    10    11   ar
    40    21    22    1
    41    18    13   ar
    42    35    30   ar
    43    42    37   ar
    44    11     2    1
    45    22    16    1
    46    11     6   ar
    47    20    23    1
@<TRIPOS>MOLECULE
*****
 42 47 0 0 0
SMALL
GASTEIGER

@<TRIPOS>ATOM
      1 N           6.6354   -3.1618   23.7926 N.3     1  UNL1       -0.2679
      2 C           7.3978   -4.4166   23.4860 C.3     1  UNL1        0.0978
      3 C           8.0752   -4.5769   22.1573 C.3     1  UNL1        0.0224
      4 C           8.8377   -5.8319   21.8508 C.3     1  UNL1        0.0065
      5 C           8.9228   -6.9263   22.8730 C.3     1  UNL1        0.0277
      6 C           8.2454   -6.7660   24.2017 C.ar    1  UNL1       -0.0073
      7 C           8.3306   -7.8604   25.2238 C.ar    1  UNL1       -0.0015
      8 C           7.6532   -7.7000   26.5526 C.ar    1  UNL1        0.0203
      9 C           6.8907   -6.4452   26.8591 C.ar    1  UNL1        0.0985
     10 N           6.8056   -5.3508   25.8369 N.ar    1  UNL1       -0.2471
     11 C           7.4830   -5.5111   24.5082 C.ar    1  UNL1        0.0695
     12 C           5.1994   -3.0363   23.3774 C.3     1  UNL1        0.0886
     13 C           2.2675    0.7365   18.4357 C.ar    1  UNL1       -0.0003
     14 C           1.1952    0.1201   19.2844 C.ar    1  UNL1       -0.0003
     15 C           1.5671   -0.7577   20.4424 C.ar    1  UNL1       -0.0045
     16 C           3.0114   -1.0192   20.7519 C.ar    1  UNL1       -0.0234
     17 C           4.0837   -0.4028   19.9032 C.ar    1  UNL1       -0.0103
     18 C           3.7118    0.4750   18.7452 C.ar    1  UNL1       -0.0032
     19 C           5.5280   -0.6643   20.2126 C.3     1  UNL1        0.0953
     20 N           5.8999   -1.5421   21.3707 N.3     1  UNL1       -0.2934
     21 C           4.8275   -2.1585   22.2193 C.3     1  UNL1        0.0748
     22 C           3.3833   -1.8970   21.9099 C.3     1  UNL1        0.0432
     23 H           6.4802   -0.9791   21.9925 H       1  UNL1        0.1236
     24 C           7.3088   -2.0323   24.5143 C.3     1  UNL1        0.0725
     25 C           6.9464   -1.7300   25.9381 C.3     1  UNL1        0.0188
     26 C           6.2957   -0.4239   26.2853 C.3     1  UNL1        0.0188
     27 C           5.1528   -0.3901   27.2562 C.3     1  UNL1        0.0727
     28 N           3.8158    0.1339   26.8228 N.3     1  UNL1       -0.2652
     29 C           3.2024   -0.3448   25.5404 C.3     1  UNL1        0.0995
     30 C           3.0196    0.6068   24.3954 C.ar    1  UNL1       -0.0030
     31 C           4.2167    1.2180   23.7296 C.ar    1  UNL1        0.0178
     32 C           4.0338    2.1696   22.5846 C.ar    1  UNL1        0.0986
     33 N           2.6538    2.5100   22.1054 N.ar    1  UNL1       -0.2423
     34 C           1.4567    1.8989   22.7712 C.ar    1  UNL1        0.0986
     35 C           1.6396    0.9473   23.9162 C.ar    1  UNL1        0.0178
     36 C           3.0920    1.1366   27.6719 C.3     1  UNL1        0.0995
     37 C           1.6128    1.0098   27.8859 C.ar    1  UNL1       -0.0030
     38 C           0.6797    2.0240   27.2938 C.ar    1  UNL1        0.0178
     39 C          -0.7996    1.8971   27.5078 C.ar    1  UNL1        0.0986
     40 N          -1.3456    0.7561   28.3139 N.ar    1  UNL1       -0.2423
     41 C          -0.4125   -0.2581   28.9060 C.ar    1  UNL1        0.0986
     42 C           1.0667   -0.1313   28.6920 C.ar    1  UNL1        0.0178
@<TRIPOS>BOND
     1    13    14   ar
     2    14    15   ar
     3    15    16   ar
     4    16    17   ar
     5    17    18   ar
     6    17    19    1
     7    19    20    1
     8    20    21    1
     9    21    12    1
    10    12     1    1
    11     1    24    1
    12    24    25    1
    13    25    26    1
    14    26    27    1
    15    27    28    1
    16    28    29    1
    17    29    30    1
    18    30    31   ar
    19    31    32   ar
    20    32    33   ar
    21    33    34   ar
    22    34    35   ar
    23    28    36    1
    24    36    37    1
    25    37    38   ar
    26    38    39   ar
    27    39    40   ar
    28    40    41   ar
    29    41    42   ar
    30     2     1    1
    31     2     3    1
    32     3     4    1
    33     4     5    1
    34     5     6    1
    35     6     7   ar
    36     7     8   ar
    37     8     9   ar
    38     9    10   ar
    39    10    11   ar
    40    21    22    1
    41    18    13   ar
    42    35    30   ar
    43    42    37   ar
    44    11     2    1
    45    22    16    1
    46    11     6   ar
    47    20    23    1
@<TRIPOS>MOLECULE
*****
 42 47 0 0 0
SMALL
GASTEIGER

@<TRIPOS>ATOM
      1 N         -17.3239   -5.3585   17.9738 N.3     1  UNL1       -0.2679
      2 C         -18.2411   -6.4893   17.6133 C.3     1  UNL1        0.0978
      3 C         -19.5460   -6.2078   16.9293 C.3     1  UNL1        0.0224
      4 C         -20.4632   -7.3387   16.5688 C.3     1  UNL1        0.0065
      5 C         -20.0753   -8.7511   16.8923 C.3     1  UNL1        0.0277
      6 C         -18.7704   -9.0327   17.5762 C.ar    1  UNL1       -0.0073
      7 C         -18.3825  -10.4451   17.8997 C.ar    1  UNL1       -0.0015
      8 C         -17.0776  -10.7266   18.5837 C.ar    1  UNL1        0.0203
      9 C         -16.1605   -9.5958   18.9442 C.ar    1  UNL1        0.0985
     10 N         -16.5483   -8.1834   18.6207 N.ar    1  UNL1       -0.2471
     11 C         -17.8532   -7.9018   17.9367 C.ar    1  UNL1        0.0695
     12 C         -16.1837   -4.9994   17.0675 C.3     1  UNL1        0.0886
     13 C          -9.3874   -5.3097   18.0491 C.ar    1  UNL1       -0.0003
     14 C          -9.6620   -4.7119   16.7011 C.ar    1  UNL1       -0.0003
     15 C         -11.0762   -4.5303   16.2352 C.ar    1  UNL1       -0.0045
     16 C         -12.2158   -4.9465   17.1173 C.ar    1  UNL1       -0.0234
     17 C         -11.9412   -5.5443   18.4653 C.ar    1  UNL1       -0.0103
     18 C         -10.5270   -5.7259   18.9312 C.ar    1  UNL1       -0.0032
     19 C         -13.0808   -5.9605   19.3475 C.3     1  UNL1        0.0953
     20 N         -14.4950   -5.7789   18.8815 N.3     1  UNL1       -0.2934
     21 C         -14.7696   -5.1810   17.5334 C.3     1  UNL1        0.0748
     22 C         -13.6300   -4.7649   16.6514 C.3     1  UNL1        0.0432
     23 H         -14.9568   -5.1822   19.5679 H       1  UNL1        0.1236
     24 C         -17.5469   -4.5866   19.2405 C.3     1  UNL1        0.0725
     25 C         -18.6478   -3.5707   19.3157 C.3     1  UNL1        0.0188
     26 C         -18.4611   -2.2154   18.7005 C.3     1  UNL1        0.0188
     27 C         -17.0841   -1.7331   18.3523 C.3     1  UNL1        0.0727
     28 N         -16.1160   -1.3780   19.4416 N.3     1  UNL1       -0.2652
     29 C         -16.4117   -0.2326   20.3638 C.3     1  UNL1        0.0995
     30 C         -16.4275    1.1711   19.8351 C.ar    1  UNL1       -0.0030
     31 C         -15.2373    1.7079   19.0968 C.ar    1  UNL1        0.0178
     32 C         -15.2531    3.1116   18.5682 C.ar    1  UNL1        0.0986
     33 N         -16.4591    3.9785   18.7778 N.ar    1  UNL1       -0.2423
     34 C         -17.6493    3.4417   19.5161 C.ar    1  UNL1        0.0986
     35 C         -17.6335    2.0380   20.0448 C.ar    1  UNL1        0.0178
     36 C         -14.8520   -2.1684   19.6088 C.3     1  UNL1        0.0995
     37 C         -13.6309   -1.8066   18.8164 C.ar    1  UNL1       -0.0030
     38 C         -13.7746   -1.2024   17.4510 C.ar    1  UNL1        0.0178
     39 C         -12.5534   -0.8406   16.6586 C.ar    1  UNL1        0.0986
     40 N         -11.1886   -1.0831   17.2315 N.ar    1  UNL1       -0.2423
     41 C         -11.0448   -1.6874   18.5969 C.ar    1  UNL1        0.0986
     42 C         -12.2660   -2.0491   19.3893 C.ar    1  UNL1        0.0178
@<TRIPOS>BOND
     1    13    14   ar
     2    14    15   ar
     3    15    16   ar
     4    16    17   ar
     5    17    18   ar
     6    17    19    1
     7    19    20    1
     8    20    21    1
     9    21    12    1
    10    12     1    1
    11     1    24    1
    12    24    25    1
    13    25    26    1
    14    26    27    1
    15    27    28    1
    16    28    29    1
    17    29    30    1
    18    30    31   ar
    19    31    32   ar
    20    32    33   ar
    21    33    34   ar
    22    34    35   ar
    23    28    36    1
    24    36    37    1
    25    37    38   ar
    26    38    39   ar
    27    39    40   ar
    28    40    41   ar
    29    41    42   ar
    30     2     1    1
    31     2     3    1
    32     3     4    1
    33     4     5    1
    34     5     6    1
    35     6     7   ar
    36     7     8   ar
    37     8     9   ar
    38     9    10   ar
    39    10    11   ar
    40    21    22    1
    41    18    13   ar
    42    35    30   ar
    43    42    37   ar
    44    11     2    1
    45    22    16    1
    46    11     6   ar
    47    20    23    1
@<TRIPOS>MOLECULE
*****
 42 47 0 0 0
SMALL
GASTEIGER

@<TRIPOS>ATOM
      1 N           0.1553    2.0974   20.6973 N.3     1  UNL1       -0.2679
      2 C          -0.5766    2.8649   19.6366 C.3     1  UNL1        0.0978
      3 C           0.1144    3.2141   18.3518 C.3     1  UNL1        0.0224
      4 C          -0.6176    3.9816   17.2911 C.3     1  UNL1        0.0065
      5 C          -2.0405    4.3999   17.5151 C.3     1  UNL1        0.0277
      6 C          -2.7315    4.0507   18.7999 C.ar    1  UNL1       -0.0073
      7 C          -4.1545    4.4690   19.0239 C.ar    1  UNL1       -0.0015
      8 C          -4.8455    4.1199   20.3087 C.ar    1  UNL1        0.0203
      9 C          -4.1135    3.3524   21.3694 C.ar    1  UNL1        0.0985
     10 N          -2.6906    2.9341   21.1453 N.ar    1  UNL1       -0.2471
     11 C          -1.9996    3.2833   19.8606 C.ar    1  UNL1        0.0695
     12 C           0.4152    0.6310   20.5176 C.3     1  UNL1        0.0886
     13 C           5.9606   -2.7021   18.1962 C.ar    1  UNL1       -0.0003
     14 C           4.9415   -3.7034   18.6532 C.ar    1  UNL1       -0.0003
     15 C           3.6286   -3.2370   19.2089 C.ar    1  UNL1       -0.0045
     16 C           3.3348   -1.7694   19.3076 C.ar    1  UNL1       -0.0234
     17 C           4.3539   -0.7682   18.8505 C.ar    1  UNL1       -0.0103
     18 C           5.6668   -1.2345   18.2948 C.ar    1  UNL1       -0.0032
     19 C           4.0601    0.6995   18.9491 C.3     1  UNL1        0.0953
     20 N           2.7473    1.1659   19.5048 N.3     1  UNL1       -0.2934
     21 C           1.7281    0.1646   19.9619 C.3     1  UNL1        0.0748
     22 C           2.0219   -1.3030   19.8633 C.3     1  UNL1        0.0432
     23 H           2.3030    1.7277   18.7786 H       1  UNL1        0.1236
     24 C           0.6274    2.7962   21.9378 C.3     1  UNL1        0.0725
     25 C           0.4043    2.1700   23.2824 C.3     1  UNL1        0.0188
     26 C           1.5740    1.8592   24.1684 C.3     1  UNL1        0.0188
     27 C           2.1237    0.4646   24.2232 C.3     1  UNL1        0.0727
     28 N           3.6054    0.2394   24.1591 N.3     1  UNL1       -0.2652
     29 C           4.2718    0.0050   22.8359 C.3     1  UNL1        0.0995
     30 C           4.9362   -1.3097   22.5531 C.ar    1  UNL1       -0.0030
     31 C           4.2188   -2.5924   22.8531 C.ar    1  UNL1        0.0178
     32 C           4.8833   -3.9072   22.5704 C.ar    1  UNL1        0.0986
     33 N           6.2650   -3.9392   21.9876 N.ar    1  UNL1       -0.2423
     34 C           6.9824   -2.6566   21.6876 C.ar    1  UNL1        0.0986
     35 C           6.3180   -1.3418   21.9704 C.ar    1  UNL1        0.0178
     36 C           4.4205    0.2485   25.4183 C.3     1  UNL1        0.0995
     37 C           3.7454    0.4126   26.7476 C.ar    1  UNL1       -0.0030
     38 C           3.5497    1.7829   27.3254 C.ar    1  UNL1        0.0178
     39 C           2.8745    1.9470   28.6548 C.ar    1  UNL1        0.0986
     40 N           2.3951    0.7407   29.4064 N.ar    1  UNL1       -0.2423
     41 C           2.5908   -0.6297   28.8287 C.ar    1  UNL1        0.0986
     42 C           3.2659   -0.7938   27.4993 C.ar    1  UNL1        0.0178
@<TRIPOS>BOND
     1    13    14   ar
     2    14    15   ar
     3    15    16   ar
     4    16    17   ar
     5    17    18   ar
     6    17    19    1
     7    19    20    1
     8    20    21    1
     9    21    12    1
    10    12     1    1
    11     1    24    1
    12    24    25    1
    13    25    26    1
    14    26    27    1
    15    27    28    1
    16    28    29    1
    17    29    30    1
    18    30    31   ar
    19    31    32   ar
    20    32    33   ar
    21    33    34   ar
    22    34    35   ar
    23    28    36    1
    24    36    37    1
    25    37    38   ar
    26    38    39   ar
    27    39    40   ar
    28    40    41   ar
    29    41    42   ar
    30     2     1    1
    31     2     3    1
    32     3     4    1
    33     4     5    1
    34     5     6    1
    35     6     7   ar
    36     7     8   ar
    37     8     9   ar
    38     9    10   ar
    39    10    11   ar
    40    21    22    1
    41    18    13   ar
    42    35    30   ar
    43    42    37   ar
    44    11     2    1
    45    22    16    1
    46    11     6   ar
    47    20    23    1
