@<TRIPOS>MOLECULE
*****
 32 36 0 0 0
SMALL
GASTEIGER

@<TRIPOS>ATOM
      1 N          -7.7076  -15.8884   25.4336 N.pl3   1  UNL1       -0.2931
      2 C          -8.1672  -15.1267   26.6413 C.3     1  UNL1        0.0940
      3 C          -7.0054  -15.0049   27.5823 C.3     1  UNL1        0.0233
      4 C          -5.8278  -15.6913   26.9560 C.3     1  UNL1        0.0233
      5 C          -6.2617  -16.2372   25.6281 C.3     1  UNL1        0.0940
      6 C          -6.9665  -16.6666   24.3638 C.3     1  UNL1        0.1131
      7 N          -8.4058  -16.2477   24.3097 N.am    1  UNL1       -0.2761
      8 C          -9.2447  -16.5988   23.1169 C.2     1  UNL1        0.2275
      9 O         -10.6746  -16.3491   22.7386 O.2     1  UNL1       -0.2748
     10 C          -9.0062  -15.4778   25.4485 C.3     1  UNL1        0.1131
     11 C         -10.2247  -16.9417   21.8552 C.ar    1  UNL1        0.0877
     12 C         -10.3584  -17.7298   23.1244 C.ar    1  UNL1        0.0147
     13 C          -9.5194  -17.3787   24.3172 C.ar    1  UNL1        0.0350
     14 C          -8.5466  -16.2394   24.2407 C.ar    1  UNL1        0.1317
     15 N          -8.4130  -15.4513   22.9715 N.ar    1  UNL1       -0.2285
     16 C          -9.2520  -15.8024   21.7787 C.ar    1  UNL1        0.1105
     17 N         -11.9028  -17.6437   19.4696 N.1     1  UNL1       -0.1908
     18 C         -11.0638  -17.2928   20.6624 C.1     1  UNL1        0.1020
     19 C          -8.6443  -17.3688   21.9781 C.3     1  UNL1        0.1110
     20 C          -8.1629  -18.7730   22.1935 C.3     1  UNL1        0.1655
     21 S          -6.8085  -19.1857   21.6983 S.O2    1  UNL1        0.0097
     22 O          -6.7752  -17.9901   20.7931 O.2     1  UNL1       -0.1686
     23 O          -6.8418  -20.3813   22.6035 O.2     1  UNL1       -0.1686
     24 C          -5.4541  -19.5984   21.2030 C.ar    1  UNL1        0.1131
     25 C          -5.3348  -20.5906   20.0844 C.ar    1  UNL1        0.0190
     26 C          -3.9805  -21.0033   19.5891 C.ar    1  UNL1        0.0029
     27 C          -2.7453  -20.4239   20.2125 C.ar    1  UNL1        0.0197
     28 C          -2.8645  -19.4317   21.3311 C.ar    1  UNL1        0.0892
     29 N          -1.8332  -18.6963   22.1346 N.ar    1  UNL1       -0.2362
     30 C          -2.5502  -17.8291   23.1264 C.ar    1  UNL1        0.1345
     31 S          -4.0247  -18.0285   22.9360 S.2     1  UNL1       -0.0632
     32 C          -4.2189  -19.0190   21.8264 C.ar    1  UNL1        0.0656
@<TRIPOS>BOND
     1    17    18    3
     2    18    11    1
     3    11    12   ar
     4    12    13   ar
     5    13    14   ar
     6    14     1    1
     7     1     2    1
     8     2     3    1
     9     3     4    1
    10     4     5    1
    11     5     6    1
    12     6     7    1
    13     7     8   am
    14     8     9    2
    15     8    19    1
    16    19    20    1
    17    20    21    1
    18    21    22    2
    19    21    23    2
    20    21    24    1
    21    24    25   ar
    22    25    26   ar
    23    26    27   ar
    24    27    28   ar
    25    28    29   ar
    26    29    30   ar
    27    30    31   ar
    28    31    32   ar
    29     7    10    1
    30    14    15   ar
    31    15    16   ar
    32    16    11   ar
    33     5     1    1
    34    32    24   ar
    35    10     2    1
    36    32    28   ar
@<TRIPOS>MOLECULE
*****
 32 36 0 0 0
SMALL
GASTEIGER

@<TRIPOS>ATOM
      1 N         -11.3717   -5.4386   18.8896 N.pl3   1  UNL1       -0.2931
      2 C          -9.8966   -5.1941   18.7709 C.3     1  UNL1        0.0940
      3 C          -9.2220   -6.5184   18.5678 C.3     1  UNL1        0.0233
      4 C         -10.2804   -7.5814   18.5609 C.3     1  UNL1        0.0233
      5 C         -11.6090   -6.9141   18.7598 C.3     1  UNL1        0.0940
      6 C         -12.7827   -5.9881   18.9704 C.3     1  UNL1        0.1131
      7 N         -12.3927   -4.5440   19.0819 N.am    1  UNL1       -0.2761
      8 C         -13.4458   -3.4969   19.2933 C.2     1  UNL1        0.2275
      9 O         -13.4161   -2.0049   19.4450 O.2     1  UNL1       -0.2748
     10 C         -10.9496   -4.1470   18.9822 C.3     1  UNL1        0.1131
     11 C         -14.5308   -2.2972   19.5238 C.ar    1  UNL1        0.0877
     12 C         -14.0174   -3.0905   20.6887 C.ar    1  UNL1        0.0147
     13 C         -12.9644   -4.1377   20.4773 C.ar    1  UNL1        0.0350
     14 C         -12.4248   -4.3914   19.1009 C.ar    1  UNL1        0.1317
     15 N         -12.9381   -3.5981   17.9360 N.ar    1  UNL1       -0.2285
     16 C         -13.9911   -2.5510   18.1474 C.ar    1  UNL1        0.1105
     17 N         -16.6367   -0.2029   19.9465 N.1     1  UNL1       -0.1908
     18 C         -15.5838   -1.2501   19.7351 C.1     1  UNL1        0.1020
     19 C         -14.8888   -3.8940   19.3930 C.3     1  UNL1        0.1110
     20 C         -15.5158   -4.7206   18.3097 C.3     1  UNL1        0.1655
     21 S         -16.3516   -5.9142   18.6657 S.O2    1  UNL1        0.0097
     22 O         -15.9794   -5.7443   20.1088 O.2     1  UNL1       -0.1686
     23 O         -16.7238   -6.0841   17.2225 O.2     1  UNL1       -0.1686
     24 C         -17.1874   -7.1078   19.0217 C.ar    1  UNL1        0.1131
     25 C         -18.5531   -6.9179   19.6122 C.ar    1  UNL1        0.0190
     26 C         -19.3889   -8.1114   19.9683 C.ar    1  UNL1        0.0029
     27 C         -18.8590   -9.4950   19.7339 C.ar    1  UNL1        0.0197
     28 C         -17.4933   -9.6849   19.1434 C.ar    1  UNL1        0.0892
     29 N         -16.7107  -10.9178   18.8005 N.ar    1  UNL1       -0.2362
     30 C         -15.3912  -10.4862   18.2325 C.ar    1  UNL1        0.1345
     31 S         -15.3583   -8.9865   18.2244 S.2     1  UNL1       -0.0632
     32 C         -16.6575   -8.4913   18.7873 C.ar    1  UNL1        0.0656
@<TRIPOS>BOND
     1    17    18    3
     2    18    11    1
     3    11    12   ar
     4    12    13   ar
     5    13    14   ar
     6    14     1    1
     7     1     2    1
     8     2     3    1
     9     3     4    1
    10     4     5    1
    11     5     6    1
    12     6     7    1
    13     7     8   am
    14     8     9    2
    15     8    19    1
    16    19    20    1
    17    20    21    1
    18    21    22    2
    19    21    23    2
    20    21    24    1
    21    24    25   ar
    22    25    26   ar
    23    26    27   ar
    24    27    28   ar
    25    28    29   ar
    26    29    30   ar
    27    30    31   ar
    28    31    32   ar
    29     7    10    1
    30    14    15   ar
    31    15    16   ar
    32    16    11   ar
    33     5     1    1
    34    32    24   ar
    35    10     2    1
    36    32    28   ar
@<TRIPOS>MOLECULE
*****
 32 36 0 0 0
SMALL
GASTEIGER

@<TRIPOS>ATOM
      1 N         -10.7365  -17.3298   22.2621 N.pl3   1  UNL1       -0.2931
      2 C         -12.1216  -16.7558   22.2185 C.3     1  UNL1        0.0940
      3 C         -12.9677  -17.6507   21.3622 C.3     1  UNL1        0.0233
      4 C         -12.1053  -18.7779   20.8765 C.3     1  UNL1        0.0233
      5 C         -10.7264  -18.5796   21.4327 C.3     1  UNL1        0.0940
      6 C          -9.4585  -18.1333   22.1200 C.3     1  UNL1        0.1131
      7 N          -9.6204  -16.8697   22.9119 N.am    1  UNL1       -0.2761
      8 C          -8.4507  -16.2949   23.6545 C.2     1  UNL1        0.2275
      9 O          -8.2584  -15.0848   24.5197 O.2     1  UNL1       -0.2748
     10 C         -10.9520  -16.1809   22.9612 C.3     1  UNL1        0.1131
     11 C          -7.2277  -15.6053   24.4902 C.ar    1  UNL1        0.0877
     12 C          -8.1871  -16.5191   25.1935 C.ar    1  UNL1        0.0147
     13 C          -9.3566  -17.0939   24.4508 C.ar    1  UNL1        0.0350
     14 C          -9.5669  -16.7550   23.0048 C.ar    1  UNL1        0.1317
     15 N          -8.6075  -15.8412   22.3015 N.ar    1  UNL1       -0.2285
     16 C          -7.4379  -15.2664   23.0442 C.ar    1  UNL1        0.1105
     17 N          -4.8885  -14.4557   25.9756 N.1     1  UNL1       -0.1908
     18 C          -6.0581  -15.0305   25.2329 C.1     1  UNL1        0.1020
     19 C          -7.1191  -16.9837   23.6052 C.3     1  UNL1        0.1110
     20 C          -6.9694  -18.2736   22.8543 C.3     1  UNL1        0.1655
     21 S          -5.7615  -18.5058   21.9958 S.O2    1  UNL1        0.0097
     22 O          -6.5570  -18.1399   20.7778 O.2     1  UNL1       -0.1686
     23 O          -4.9660  -18.8717   23.2137 O.2     1  UNL1       -0.1686
     24 C          -4.5536  -18.7380   21.1371 C.ar    1  UNL1        0.1131
     25 C          -4.5301  -19.8843   20.1700 C.ar    1  UNL1        0.0190
     26 C          -3.3224  -20.1165   19.3114 C.ar    1  UNL1        0.0029
     27 C          -2.1380  -19.2023   19.4198 C.ar    1  UNL1        0.0197
     28 C          -2.1615  -18.0560   20.3869 C.ar    1  UNL1        0.0892
     29 N          -1.1509  -16.9964   20.7122 N.ar    1  UNL1       -0.2362
     30 C          -1.7342  -16.1093   21.7718 C.ar    1  UNL1        0.1345
     31 S          -3.1052  -16.6207   22.1015 S.2     1  UNL1       -0.0632
     32 C          -3.3694  -17.8238   21.2456 C.ar    1  UNL1        0.0656
@<TRIPOS>BOND
     1    17    18    3
     2    18    11    1
     3    11    12   ar
     4    12    13   ar
     5    13    14   ar
     6    14     1    1
     7     1     2    1
     8     2     3    1
     9     3     4    1
    10     4     5    1
    11     5     6    1
    12     6     7    1
    13     7     8   am
    14     8     9    2
    15     8    19    1
    16    19    20    1
    17    20    21    1
    18    21    22    2
    19    21    23    2
    20    21    24    1
    21    24    25   ar
    22    25    26   ar
    23    26    27   ar
    24    27    28   ar
    25    28    29   ar
    26    29    30   ar
    27    30    31   ar
    28    31    32   ar
    29     7    10    1
    30    14    15   ar
    31    15    16   ar
    32    16    11   ar
    33     5     1    1
    34    32    24   ar
    35    10     2    1
    36    32    28   ar
@<TRIPOS>MOLECULE
*****
 32 36 0 0 0
SMALL
GASTEIGER

@<TRIPOS>ATOM
      1 N         -14.8625   -8.0825   18.4570 N.pl3   1  UNL1       -0.2931
      2 C         -15.1466   -9.4741   17.9747 C.3     1  UNL1        0.0940
      3 C         -16.4476   -9.9167   18.5759 C.3     1  UNL1        0.0233
      4 C         -16.9676   -8.7984   19.4299 C.3     1  UNL1        0.0233
      5 C         -15.9880   -7.6648   19.3563 C.3     1  UNL1        0.0940
      6 C         -14.8482   -6.7089   19.0989 C.3     1  UNL1        0.1131
      7 N         -13.7983   -7.2630   18.1820 N.am    1  UNL1       -0.2761
      8 C         -12.5993   -6.4344   17.8272 C.2     1  UNL1        0.2275
      9 O         -11.3923   -6.6631   16.9665 O.2     1  UNL1       -0.2748
     10 C         -13.9475   -8.6456   17.6198 C.3     1  UNL1        0.1131
     11 C         -11.2652   -5.5972   17.3926 C.ar    1  UNL1        0.0877
     12 C         -11.2441   -6.4604   18.6192 C.ar    1  UNL1        0.0147
     13 C         -12.4432   -7.2888   18.9739 C.ar    1  UNL1        0.0350
     14 C         -13.6634   -7.2540   18.1021 C.ar    1  UNL1        0.1317
     15 N         -13.6845   -6.3908   16.8756 N.ar    1  UNL1       -0.2285
     16 C         -12.4854   -5.5623   16.5209 C.ar    1  UNL1        0.1105
     17 N          -8.8672   -3.9402   16.6829 N.1     1  UNL1       -0.1908
     18 C         -10.0662   -4.7687   17.0378 C.1     1  UNL1        0.1020
     19 C         -12.4502   -5.0517   18.3893 C.3     1  UNL1        0.1110
     20 C         -13.5193   -4.4826   19.2742 C.3     1  UNL1        0.1655
     21 S         -13.8719   -3.0274   19.1837 S.O2    1  UNL1        0.0097
     22 O         -13.0585   -2.7540   20.4141 O.2     1  UNL1       -0.1686
     23 O         -14.6852   -3.3009   17.9534 O.2     1  UNL1       -0.1686
     24 C         -14.2244   -1.5722   19.0933 C.ar    1  UNL1        0.1131
     25 C         -15.4836   -1.0646   19.7309 C.ar    1  UNL1        0.0190
     26 C         -15.8361    0.3905   19.6405 C.ar    1  UNL1        0.0029
     27 C         -14.9293    1.3382   18.9125 C.ar    1  UNL1        0.0197
     28 C         -13.6701    0.8305   18.2749 C.ar    1  UNL1        0.0892
     29 N         -12.5897    1.5217   17.4971 N.ar    1  UNL1       -0.2362
     30 C         -11.5695    0.4937   17.1069 C.ar    1  UNL1        0.1345
     31 S         -12.0193   -0.8329   17.6434 S.2     1  UNL1       -0.0632
     32 C         -13.3176   -0.6247   18.3653 C.ar    1  UNL1        0.0656
@<TRIPOS>BOND
     1    17    18    3
     2    18    11    1
     3    11    12   ar
     4    12    13   ar
     5    13    14   ar
     6    14     1    1
     7     1     2    1
     8     2     3    1
     9     3     4    1
    10     4     5    1
    11     5     6    1
    12     6     7    1
    13     7     8   am
    14     8     9    2
    15     8    19    1
    16    19    20    1
    17    20    21    1
    18    21    22    2
    19    21    23    2
    20    21    24    1
    21    24    25   ar
    22    25    26   ar
    23    26    27   ar
    24    27    28   ar
    25    28    29   ar
    26    29    30   ar
    27    30    31   ar
    28    31    32   ar
    29     7    10    1
    30    14    15   ar
    31    15    16   ar
    32    16    11   ar
    33     5     1    1
    34    32    24   ar
    35    10     2    1
    36    32    28   ar
@<TRIPOS>MOLECULE
*****
 32 36 0 0 0
SMALL
GASTEIGER

@<TRIPOS>ATOM
      1 N         -11.6097  -17.0604   20.8258 N.pl3   1  UNL1       -0.2931
      2 C         -12.9783  -16.4566   20.7139 C.3     1  UNL1        0.0940
      3 C         -12.9545  -15.4581   19.5948 C.3     1  UNL1        0.0233
      4 C         -11.5711  -15.4448   19.0150 C.3     1  UNL1        0.0233
      5 C         -10.7400  -16.4351   19.7757 C.3     1  UNL1        0.0940
      6 C         -10.1580  -17.4791   20.6980 C.3     1  UNL1        0.1131
      7 N         -11.1438  -18.0134   21.6943 N.am    1  UNL1       -0.2761
      8 C         -10.7194  -19.0589   22.6826 C.2     1  UNL1        0.2275
      9 O         -11.4196  -19.7948   23.7863 O.2     1  UNL1       -0.2748
     10 C         -12.5540  -17.5022   21.7023 C.3     1  UNL1        0.1131
     11 C         -10.3369  -20.1972   23.7907 C.ar    1  UNL1        0.0877
     12 C         -10.7570  -20.5987   22.4078 C.ar    1  UNL1        0.0147
     13 C         -11.1812  -19.5531   21.4196 C.ar    1  UNL1        0.0350
     14 C         -11.1854  -18.1060   21.8142 C.ar    1  UNL1        0.1317
     15 N         -10.7654  -17.7044   23.1970 N.ar    1  UNL1       -0.2285
     16 C         -10.3411  -18.7500   24.1853 C.ar    1  UNL1        0.1105
     17 N          -9.4885  -22.2883   25.7673 N.1     1  UNL1       -0.1908
     18 C          -9.9126  -21.2427   24.7790 C.1     1  UNL1        0.1020
     19 C          -9.3092  -19.5701   22.6746 C.3     1  UNL1        0.1110
     20 C          -8.1644  -18.6102   22.5410 C.3     1  UNL1        0.1655
     21 S          -6.8630  -19.0719   21.9550 S.O2    1  UNL1        0.0097
     22 O          -6.7726  -17.8047   21.1575 O.2     1  UNL1       -0.1686
     23 O          -6.9533  -20.3391   22.7526 O.2     1  UNL1       -0.1686
     24 C          -5.5616  -19.5335   21.3690 C.ar    1  UNL1        0.1131
     25 C          -5.5557  -20.5253   20.2437 C.ar    1  UNL1        0.0190
     26 C          -4.2544  -20.9868   19.6577 C.ar    1  UNL1        0.0029
     27 C          -2.9589  -20.4567   20.1970 C.ar    1  UNL1        0.0197
     28 C          -2.9649  -19.4650   21.3223 C.ar    1  UNL1        0.0892
     29 N          -1.8547  -18.7720   22.0552 N.ar    1  UNL1       -0.2362
     30 C          -2.4699  -17.8821   23.0942 C.ar    1  UNL1        0.1345
     31 S          -3.9603  -18.0251   23.0035 S.2     1  UNL1       -0.0632
     32 C          -4.2662  -19.0034   21.9083 C.ar    1  UNL1        0.0656
@<TRIPOS>BOND
     1    17    18    3
     2    18    11    1
     3    11    12   ar
     4    12    13   ar
     5    13    14   ar
     6    14     1    1
     7     1     2    1
     8     2     3    1
     9     3     4    1
    10     4     5    1
    11     5     6    1
    12     6     7    1
    13     7     8   am
    14     8     9    2
    15     8    19    1
    16    19    20    1
    17    20    21    1
    18    21    22    2
    19    21    23    2
    20    21    24    1
    21    24    25   ar
    22    25    26   ar
    23    26    27   ar
    24    27    28   ar
    25    28    29   ar
    26    29    30   ar
    27    30    31   ar
    28    31    32   ar
    29     7    10    1
    30    14    15   ar
    31    15    16   ar
    32    16    11   ar
    33     5     1    1
    34    32    24   ar
    35    10     2    1
    36    32    28   ar
@<TRIPOS>MOLECULE
*****
 32 36 0 0 0
SMALL
GASTEIGER

@<TRIPOS>ATOM
      1 N         -11.3033   -5.3493   18.9030 N.pl3   1  UNL1       -0.2931
      2 C          -9.8142   -5.1812   18.9689 C.3     1  UNL1        0.0940
      3 C          -9.1879   -6.5365   18.8249 C.3     1  UNL1        0.0233
      4 C         -10.2900   -7.5422   18.6699 C.3     1  UNL1        0.0233
      5 C         -11.5973   -6.8085   18.7182 C.3     1  UNL1        0.0940
      6 C         -12.7396   -5.8248   18.8017 C.3     1  UNL1        0.1131
      7 N         -12.2935   -4.4046   18.9865 N.am    1  UNL1       -0.2761
      8 C         -13.3101   -3.3063   19.0876 C.2     1  UNL1        0.2275
      9 O         -13.2237   -1.8199   19.2694 O.2     1  UNL1       -0.2748
     10 C         -10.8308   -4.0827   19.0701 C.3     1  UNL1        0.1131
     11 C         -14.3530   -2.0542   19.2068 C.ar    1  UNL1        0.0877
     12 C         -13.9993   -2.8629   20.4195 C.ar    1  UNL1        0.0147
     13 C         -12.9827   -3.9612   20.3183 C.ar    1  UNL1        0.0350
     14 C         -12.3199   -4.2508   19.0042 C.ar    1  UNL1        0.1317
     15 N         -12.6736   -3.4421   17.7914 N.ar    1  UNL1       -0.2285
     16 C         -13.6901   -2.3438   17.8927 C.ar    1  UNL1        0.1105
     17 N         -16.3860    0.1425   19.4092 N.1     1  UNL1       -0.1908
     18 C         -15.3695   -0.9558   19.3079 C.1     1  UNL1        0.1020
     19 C         -14.7728   -3.6282   19.0040 C.3     1  UNL1        0.1110
     20 C         -15.2744   -4.5695   17.9494 C.3     1  UNL1        0.1655
     21 S         -16.0192   -5.8102   18.3443 S.O2    1  UNL1        0.0097
     22 O         -15.6693   -6.4391   17.0282 O.2     1  UNL1       -0.1686
     23 O         -16.3692   -5.1814   19.6604 O.2     1  UNL1       -0.1686
     24 C         -16.7640   -7.0510   18.7391 C.ar    1  UNL1        0.1131
     25 C         -16.0733   -8.1196   19.5333 C.ar    1  UNL1        0.0190
     26 C         -16.8180   -9.3603   19.9281 C.ar    1  UNL1        0.0029
     27 C         -18.2536   -9.5325   19.5287 C.ar    1  UNL1        0.0197
     28 C         -18.9444   -8.4638   18.7344 C.ar    1  UNL1        0.0892
     29 N         -20.3421   -8.3550   18.2010 N.ar    1  UNL1       -0.2362
     30 C         -20.4611   -7.0469   17.4766 C.ar    1  UNL1        0.1345
     31 S         -19.1370   -6.3474   17.5622 S.2     1  UNL1       -0.0632
     32 C         -18.1996   -7.2231   18.3396 C.ar    1  UNL1        0.0656
@<TRIPOS>BOND
     1    17    18    3
     2    18    11    1
     3    11    12   ar
     4    12    13   ar
     5    13    14   ar
     6    14     1    1
     7     1     2    1
     8     2     3    1
     9     3     4    1
    10     4     5    1
    11     5     6    1
    12     6     7    1
    13     7     8   am
    14     8     9    2
    15     8    19    1
    16    19    20    1
    17    20    21    1
    18    21    22    2
    19    21    23    2
    20    21    24    1
    21    24    25   ar
    22    25    26   ar
    23    26    27   ar
    24    27    28   ar
    25    28    29   ar
    26    29    30   ar
    27    30    31   ar
    28    31    32   ar
    29     7    10    1
    30    14    15   ar
    31    15    16   ar
    32    16    11   ar
    33     5     1    1
    34    32    24   ar
    35    10     2    1
    36    32    28   ar
@<TRIPOS>MOLECULE
*****
 32 36 0 0 0
SMALL
GASTEIGER

@<TRIPOS>ATOM
      1 N         -14.5522   -7.7239   18.4926 N.pl3   1  UNL1       -0.2931
      2 C         -14.8760   -9.1399   18.1183 C.3     1  UNL1        0.0940
      3 C         -16.1667   -9.5123   18.7856 C.3     1  UNL1        0.0233
      4 C         -16.6406   -8.3264   19.5725 C.3     1  UNL1        0.0233
      5 C         -15.6428   -7.2211   19.3914 C.3     1  UNL1        0.0940
      6 C         -14.4937   -6.3091   19.0350 C.3     1  UNL1        0.1131
      7 N         -13.4817   -6.9476   18.1305 N.am    1  UNL1       -0.2761
      8 C         -12.2786   -6.1708   17.6845 C.2     1  UNL1        0.2275
      9 O         -11.1018   -6.4841   16.8086 O.2     1  UNL1       -0.2748
     10 C         -13.6728   -8.3630   17.6721 C.3     1  UNL1        0.1131
     11 C         -10.9426   -5.3936   17.1545 C.ar    1  UNL1        0.0877
     12 C         -10.9040   -6.1624   18.4419 C.ar    1  UNL1        0.0147
     13 C         -12.1072   -6.9391   18.8879 C.ar    1  UNL1        0.0350
     14 C         -13.3490   -6.9471   18.0465 C.ar    1  UNL1        0.1317
     15 N         -13.3876   -6.1783   16.7591 N.ar    1  UNL1       -0.2285
     16 C         -12.1844   -5.4015   16.3131 C.ar    1  UNL1        0.1105
     17 N          -8.5364   -3.8401   16.2622 N.1     1  UNL1       -0.1908
     18 C          -9.7395   -4.6168   16.7084 C.1     1  UNL1        0.1020
     19 C         -12.0875   -4.7554   18.1429 C.3     1  UNL1        0.1110
     20 C         -13.2046   -4.0349   18.8378 C.3     1  UNL1        0.1655
     21 S         -13.4264   -2.5731   18.5846 S.O2    1  UNL1        0.0097
     22 O         -14.3852   -2.9098   17.4813 O.2     1  UNL1       -0.1686
     23 O         -12.4676   -2.2364   19.6880 O.2     1  UNL1       -0.1686
     24 C         -13.6482   -1.1114   18.3314 C.ar    1  UNL1        0.1131
     25 C         -12.7167   -0.3565   17.4301 C.ar    1  UNL1        0.0190
     26 C         -12.9385    1.1051   17.1768 C.ar    1  UNL1        0.0029
     27 C         -14.0919    1.8121   17.8249 C.ar    1  UNL1        0.0197
     28 C         -15.0235    1.0572   18.7261 C.ar    1  UNL1        0.0892
     29 N         -16.2369    1.4826   19.4986 N.ar    1  UNL1       -0.2362
     30 C         -16.7650    0.2838   20.2292 C.ar    1  UNL1        0.1345
     31 S         -15.8780   -0.8826   19.9084 S.2     1  UNL1       -0.0632
     32 C         -14.8017   -0.4045   18.9794 C.ar    1  UNL1        0.0656
@<TRIPOS>BOND
     1    17    18    3
     2    18    11    1
     3    11    12   ar
     4    12    13   ar
     5    13    14   ar
     6    14     1    1
     7     1     2    1
     8     2     3    1
     9     3     4    1
    10     4     5    1
    11     5     6    1
    12     6     7    1
    13     7     8   am
    14     8     9    2
    15     8    19    1
    16    19    20    1
    17    20    21    1
    18    21    22    2
    19    21    23    2
    20    21    24    1
    21    24    25   ar
    22    25    26   ar
    23    26    27   ar
    24    27    28   ar
    25    28    29   ar
    26    29    30   ar
    27    30    31   ar
    28    31    32   ar
    29     7    10    1
    30    14    15   ar
    31    15    16   ar
    32    16    11   ar
    33     5     1    1
    34    32    24   ar
    35    10     2    1
    36    32    28   ar
@<TRIPOS>MOLECULE
*****
 32 36 0 0 0
SMALL
GASTEIGER

@<TRIPOS>ATOM
      1 N          -2.7932  -17.5370   21.5375 N.pl3   1  UNL1       -0.2931
      2 C          -1.3850  -17.1290   21.2209 C.3     1  UNL1        0.0940
      3 C          -0.9525  -17.8712   19.9913 C.3     1  UNL1        0.0233
      4 C          -2.0936  -18.7380   19.5479 C.3     1  UNL1        0.0233
      5 C          -3.2312  -18.5315   20.5035 C.3     1  UNL1        0.0940
      6 C          -4.1867  -18.1314   21.6018 C.3     1  UNL1        0.1131
      7 N          -3.6112  -17.1313   22.5603 N.am    1  UNL1       -0.2761
      8 C          -4.4366  -16.6325   23.7091 C.2     1  UNL1        0.2275
      9 O          -4.1893  -15.6624   24.8262 O.2     1  UNL1       -0.2748
     10 C          -2.2103  -16.6300   22.3699 C.3     1  UNL1        0.1131
     11 C          -5.2692  -16.0405   24.9843 C.ar    1  UNL1        0.0877
     12 C          -4.5605  -17.3585   25.0864 C.ar    1  UNL1        0.0147
     13 C          -3.7352  -17.8573   23.9375 C.ar    1  UNL1        0.0350
     14 C          -3.6186  -17.0381   22.6864 C.ar    1  UNL1        0.1317
     15 N          -4.3273  -15.7200   22.5843 N.ar    1  UNL1       -0.2285
     16 C          -5.1526  -15.2212   23.7332 C.ar    1  UNL1        0.1105
     17 N          -6.9199  -15.0428   27.2820 N.1     1  UNL1       -0.1908
     18 C          -6.0945  -15.5416   26.1331 C.1     1  UNL1        0.1020
     19 C          -5.8375  -17.1338   23.8995 C.3     1  UNL1        0.1110
     20 C          -6.7657  -17.2300   22.7251 C.3     1  UNL1        0.1655
     21 S          -8.2250  -17.5006   22.9426 S.O2    1  UNL1        0.0097
     22 O          -8.0450  -18.8935   22.4159 O.2     1  UNL1       -0.1686
     23 O          -8.4049  -16.1077   23.4694 O.2     1  UNL1       -0.1686
     24 C          -9.6842  -17.7714   23.1601 C.ar    1  UNL1        0.1131
     25 C         -10.1443  -18.4290   24.4273 C.ar    1  UNL1        0.0190
     26 C         -11.6034  -18.6997   24.6449 C.ar    1  UNL1        0.0029
     27 C         -12.6027  -18.3128   23.5951 C.ar    1  UNL1        0.0197
     28 C         -12.1427  -17.6552   22.3279 C.ar    1  UNL1        0.0892
     29 N         -12.8897  -17.1653   21.1229 N.ar    1  UNL1       -0.2362
     30 C         -11.8921  -16.5918   20.1607 C.ar    1  UNL1        0.1345
     31 S         -10.5285  -16.7273   20.7710 S.2     1  UNL1       -0.0632
     32 C         -10.6834  -17.3845   22.1104 C.ar    1  UNL1        0.0656
@<TRIPOS>BOND
     1    17    18    3
     2    18    11    1
     3    11    12   ar
     4    12    13   ar
     5    13    14   ar
     6    14     1    1
     7     1     2    1
     8     2     3    1
     9     3     4    1
    10     4     5    1
    11     5     6    1
    12     6     7    1
    13     7     8   am
    14     8     9    2
    15     8    19    1
    16    19    20    1
    17    20    21    1
    18    21    22    2
    19    21    23    2
    20    21    24    1
    21    24    25   ar
    22    25    26   ar
    23    26    27   ar
    24    27    28   ar
    25    28    29   ar
    26    29    30   ar
    27    30    31   ar
    28    31    32   ar
    29     7    10    1
    30    14    15   ar
    31    15    16   ar
    32    16    11   ar
    33     5     1    1
    34    32    24   ar
    35    10     2    1
    36    32    28   ar
@<TRIPOS>MOLECULE
*****
 32 36 0 0 0
SMALL
GASTEIGER

@<TRIPOS>ATOM
      1 N         -10.6582   -5.6592   18.2343 N.pl3   1  UNL1       -0.2931
      2 C          -9.4710   -6.1949   18.9782 C.3     1  UNL1        0.0940
      3 C          -9.3624   -7.6616   18.6835 C.3     1  UNL1        0.0233
      4 C         -10.4825   -8.0323   17.7572 C.3     1  UNL1        0.0233
      5 C         -11.2834   -6.7948   17.4796 C.3     1  UNL1        0.0940
      6 C         -11.8892   -5.4153   17.3831 C.3     1  UNL1        0.1131
      7 N         -11.1582   -4.3833   18.1897 N.am    1  UNL1       -0.2761
      8 C         -11.6364   -2.9616   18.1988 C.2     1  UNL1        0.2275
      9 O         -11.1628   -1.7072   18.8713 O.2     1  UNL1       -0.2748
     10 C          -9.9491   -4.7730   18.9873 C.3     1  UNL1        0.1131
     11 C         -12.0925   -1.3939   18.2618 C.ar    1  UNL1        0.0877
     12 C         -12.4667   -2.3183   19.3823 C.ar    1  UNL1        0.0147
     13 C         -11.9886   -3.7400   19.3731 C.ar    1  UNL1        0.0350
     14 C         -11.1363   -4.2373   18.2434 C.ar    1  UNL1        0.1317
     15 N         -10.7621   -3.3130   17.1229 N.ar    1  UNL1       -0.2285
     16 C         -11.2402   -1.8913   17.1321 C.ar    1  UNL1        0.1105
     17 N         -13.0486    1.4496   18.2801 N.1     1  UNL1       -0.1908
     18 C         -12.5706    0.0278   18.2709 C.1     1  UNL1        0.1020
     19 C         -12.8455   -2.5719   17.4012 C.3     1  UNL1        0.1110
     20 C         -13.9515   -3.5615   17.1840 C.3     1  UNL1        0.1655
     21 S         -15.3328   -3.2652   17.6883 S.O2    1  UNL1        0.0097
     22 O         -15.4806   -2.1909   16.6519 O.2     1  UNL1       -0.1686
     23 O         -15.1850   -4.3394   18.7247 O.2     1  UNL1       -0.1686
     24 C         -16.7141   -2.9688   18.1925 C.ar    1  UNL1        0.1131
     25 C         -17.8706   -3.8178   17.7547 C.ar    1  UNL1        0.0190
     26 C         -19.2518   -3.5215   18.2589 C.ar    1  UNL1        0.0029
     27 C         -19.4767   -2.3760   19.2010 C.ar    1  UNL1        0.0197
     28 C         -18.3202   -1.5270   19.6388 C.ar    1  UNL1        0.0892
     29 N         -18.2355   -0.3402   20.5523 N.ar    1  UNL1       -0.2362
     30 C         -16.8019    0.0968   20.6126 C.ar    1  UNL1        0.1345
     31 S         -16.0005   -0.8198   19.7364 S.2     1  UNL1       -0.0632
     32 C         -16.9389   -1.8234   19.1346 C.ar    1  UNL1        0.0656
@<TRIPOS>BOND
     1    17    18    3
     2    18    11    1
     3    11    12   ar
     4    12    13   ar
     5    13    14   ar
     6    14     1    1
     7     1     2    1
     8     2     3    1
     9     3     4    1
    10     4     5    1
    11     5     6    1
    12     6     7    1
    13     7     8   am
    14     8     9    2
    15     8    19    1
    16    19    20    1
    17    20    21    1
    18    21    22    2
    19    21    23    2
    20    21    24    1
    21    24    25   ar
    22    25    26   ar
    23    26    27   ar
    24    27    28   ar
    25    28    29   ar
    26    29    30   ar
    27    30    31   ar
    28    31    32   ar
    29     7    10    1
    30    14    15   ar
    31    15    16   ar
    32    16    11   ar
    33     5     1    1
    34    32    24   ar
    35    10     2    1
    36    32    28   ar
