@<TRIPOS>MOLECULE
*****
 39 44 0 0 0
SMALL
GASTEIGER

@<TRIPOS>ATOM
      1 C           1.1189    1.2376   28.3335 C.2     1  UNL1        0.2252
      2 O          -0.1596    1.8744   28.7913 O.2     1  UNL1       -0.2749
      3 N           1.3548    0.9953   26.8721 N.am    1  UNL1       -0.2794
      4 C           0.3121    1.3899   25.8685 C.3     1  UNL1        0.0953
      5 C           0.5480    1.1477   24.4071 C.3     1  UNL1        0.0442
      6 C           1.8267    0.5108   23.9492 C.3     1  UNL1        0.0933
      7 C           2.8693    0.1163   24.9528 C.3     1  UNL1        0.0442
      8 C           2.6334    0.3585   26.4142 C.3     1  UNL1        0.0953
      9 N           2.0626    0.2686   22.4878 N.ar    1  UNL1       -0.2817
     10 C           2.9890   -0.7555   21.9022 C.ar    1  UNL1        0.3315
     11 O           3.8422   -1.7171   22.6750 O.2     1  UNL1       -0.2463
     12 N           2.9124   -0.6490   20.4079 N.ar    1  UNL1       -0.2799
     13 C           1.9386    0.4408   20.0701 C.ar    1  UNL1        0.0819
     14 C           1.4623    0.9900   18.7581 C.ar    1  UNL1        0.0484
     15 C           0.4608    2.1063   18.7315 C.ar    1  UNL1        0.1417
     16 F          -0.0155    2.6556   17.4194 F       1  UNL1       -0.2041
     17 C          -0.0644    2.6735   20.0170 C.ar    1  UNL1        0.0312
     18 C           0.4119    2.1242   21.3291 C.ar    1  UNL1        0.0211
     19 C           1.4134    1.0079   21.3556 C.ar    1  UNL1        0.0798
     20 C           3.6755   -1.4855   19.4241 C.3     1  UNL1        0.1105
     21 C           3.6898   -2.9792   19.5617 C.3     1  UNL1        0.0228
     22 C           4.2095   -4.2173   20.2302 C.3     1  UNL1        0.0020
     23 C           3.1946   -4.3282   19.1313 C.3     1  UNL1        0.0020
     24 N           4.2470    0.0537   31.3440 N.3     1  UNL1       -0.2689
     25 C           4.3314    1.3856   30.6589 C.3     1  UNL1        0.0729
     26 C           3.2887    1.7802   29.6554 C.3     1  UNL1        0.0264
     27 C           2.1616    0.8430   29.3370 C.3     1  UNL1        0.0795
     28 C           2.0772   -0.4888   30.0220 C.3     1  UNL1        0.0264
     29 C           3.1199   -0.8834   31.0256 C.3     1  UNL1        0.0729
     30 C           5.2897   -0.3409   32.3476 C.3     1  UNL1        0.0993
     31 N           6.4434   -5.4068   32.4168 N.pl3   1  UNL1       -0.3426
     32 C           6.8158   -3.9942   32.0764 C.ar    1  UNL1        0.1251
     33 C           5.8665   -2.8738   32.3822 C.ar    1  UNL1        0.0310
     34 C           6.2390   -1.4612   32.0418 C.ar    1  UNL1       -0.0018
     35 C           7.5608   -1.1690   31.3955 C.ar    1  UNL1        0.0179
     36 C           8.5100   -2.2895   31.0898 C.ar    1  UNL1        0.1000
     37 N           8.1376   -3.7020   31.4302 N.ar    1  UNL1       -0.2296
     38 H           5.5759   -5.5987   32.8410 H       1  UNL1        0.1437
     39 H           7.0665   -6.1422   32.2161 H       1  UNL1        0.1437
@<TRIPOS>BOND
     1    31    32    1
     2    32    33   ar
     3    33    34   ar
     4    34    30    1
     5    30    24    1
     6    24    25    1
     7    25    26    1
     8    26    27    1
     9    27     1    1
    10     1     2    2
    11     1     3   am
    12     3     4    1
    13     4     5    1
    14     5     6    1
    15     6     9    1
    16     9    10   ar
    17    10    11    2
    18    10    12   ar
    19    12    20    1
    20    20    21    1
    21    21    22    1
    22    22    23    1
    23    12    13   ar
    24    13    14   ar
    25    14    15   ar
    26    15    16    1
    27    15    17   ar
    28    17    18   ar
    29    18    19   ar
    30     6     7    1
    31     7     8    1
    32    27    28    1
    33    28    29    1
    34    34    35   ar
    35    35    36   ar
    36    36    37   ar
    37    37    32   ar
    38    29    24    1
    39     8     3    1
    40    19     9   ar
    41    23    21    1
    42    19    13   ar
    43    31    38    1
    44    31    39    1
@<TRIPOS>MOLECULE
*****
 39 44 0 0 0
SMALL
GASTEIGER

@<TRIPOS>ATOM
      1 C         -18.2831    0.4053   20.0039 C.2     1  UNL1        0.2252
      2 O         -19.7450    0.2776   19.6931 O.2     1  UNL1       -0.2749
      3 N         -17.3413   -0.7074   19.6504 N.am    1  UNL1       -0.2794
      4 C         -17.8613   -1.9477   18.9861 C.3     1  UNL1        0.0953
      5 C         -16.9195   -3.0603   18.6326 C.3     1  UNL1        0.0442
      6 C         -15.4575   -2.9327   18.9434 C.3     1  UNL1        0.0933
      7 C         -14.9376   -1.6924   19.6076 C.3     1  UNL1        0.0442
      8 C         -15.8794   -0.5798   19.9612 C.3     1  UNL1        0.0953
      9 N         -14.5157   -4.0453   18.5899 N.ar    1  UNL1       -0.2817
     10 C         -13.1071   -3.8858   18.0995 C.ar    1  UNL1        0.3315
     11 O         -12.3930   -2.5857   17.8765 O.2     1  UNL1       -0.2463
     12 N         -12.5380   -5.2547   17.8712 N.ar    1  UNL1       -0.2799
     13 C         -13.5948   -6.2603   18.2205 C.ar    1  UNL1        0.0819
     14 C         -13.6021   -7.7600   18.1916 C.ar    1  UNL1        0.0484
     15 C         -14.8316   -8.5122   18.6067 C.ar    1  UNL1        0.1417
     16 F         -14.8389  -10.0119   18.5778 F       1  UNL1       -0.2041
     17 C         -16.0539   -7.7647   19.0509 C.ar    1  UNL1        0.0312
     18 C         -16.0466   -6.2650   19.0799 C.ar    1  UNL1        0.0211
     19 C         -14.8171   -5.5128   18.6647 C.ar    1  UNL1        0.0798
     20 C         -11.1549   -5.5639   17.3799 C.3     1  UNL1        0.1105
     21 C         -10.2133   -6.3553   18.2387 C.3     1  UNL1        0.0228
     22 C          -9.5804   -7.6641   18.6078 C.3     1  UNL1        0.0020
     23 C          -9.2154   -6.4169   19.3569 C.3     1  UNL1        0.0020
     24 N         -16.7230    4.1260   21.9968 N.3     1  UNL1       -0.2689
     25 C         -16.7733    4.0418   20.4999 C.3     1  UNL1        0.0729
     26 C         -17.2933    2.8015   19.8356 C.3     1  UNL1        0.0264
     27 C         -17.7631    1.6455   20.6682 C.3     1  UNL1        0.0795
     28 C         -17.7127    1.7298   22.1650 C.3     1  UNL1        0.0264
     29 C         -17.1927    2.9700   22.8293 C.3     1  UNL1        0.0729
     30 C         -16.2029    5.3663   22.6611 C.3     1  UNL1        0.0993
     31 N         -15.3200    5.0859   27.7740 N.pl3   1  UNL1       -0.3426
     32 C         -14.8031    5.1162   26.3661 C.ar    1  UNL1        0.1251
     33 C         -15.7615    5.2261   25.2174 C.ar    1  UNL1        0.0310
     34 C         -15.2445    5.2564   23.8097 C.ar    1  UNL1       -0.0018
     35 C         -13.7692    5.1767   23.5505 C.ar    1  UNL1        0.0179
     36 C         -12.8109    5.0668   24.6992 C.ar    1  UNL1        0.1000
     37 N         -13.3279    5.0365   26.1070 N.ar    1  UNL1       -0.2296
     38 H         -16.2883    5.1382   27.9441 H       1  UNL1        0.1437
     39 H         -14.6910    5.0138   28.5278 H       1  UNL1        0.1437
@<TRIPOS>BOND
     1    31    32    1
     2    32    33   ar
     3    33    34   ar
     4    34    30    1
     5    30    24    1
     6    24    25    1
     7    25    26    1
     8    26    27    1
     9    27     1    1
    10     1     2    2
    11     1     3   am
    12     3     4    1
    13     4     5    1
    14     5     6    1
    15     6     9    1
    16     9    10   ar
    17    10    11    2
    18    10    12   ar
    19    12    20    1
    20    20    21    1
    21    21    22    1
    22    22    23    1
    23    12    13   ar
    24    13    14   ar
    25    14    15   ar
    26    15    16    1
    27    15    17   ar
    28    17    18   ar
    29    18    19   ar
    30     6     7    1
    31     7     8    1
    32    27    28    1
    33    28    29    1
    34    34    35   ar
    35    35    36   ar
    36    36    37   ar
    37    37    32   ar
    38    29    24    1
    39     8     3    1
    40    19     9   ar
    41    23    21    1
    42    19    13   ar
    43    31    38    1
    44    31    39    1
@<TRIPOS>MOLECULE
*****
 39 44 0 0 0
SMALL
GASTEIGER

@<TRIPOS>ATOM
      1 C           1.4019    1.3395   28.4312 C.2     1  UNL1        0.2252
      2 O           0.1694    2.1229   28.7734 O.2     1  UNL1       -0.2749
      3 N           1.6900    0.9805   27.0035 N.am    1  UNL1       -0.2794
      4 C           0.7456    1.4049   25.9182 C.3     1  UNL1        0.0953
      5 C           1.0337    1.0459   24.4906 C.3     1  UNL1        0.0442
      6 C           2.2663    0.2624   24.1482 C.3     1  UNL1        0.0933
      7 C           3.2106   -0.1619   25.2336 C.3     1  UNL1        0.0442
      8 C           2.9225    0.1971   26.6612 C.3     1  UNL1        0.0953
      9 N           2.5543   -0.0966   22.7206 N.ar    1  UNL1       -0.2817
     10 C           2.1287    0.6835   21.5122 C.ar    1  UNL1        0.3315
     11 O           1.3402    1.9595   21.5192 O.2     1  UNL1       -0.2463
     12 N           2.6299   -0.0365   20.2955 N.ar    1  UNL1       -0.2799
     13 C           3.3654   -1.2616   20.7520 C.ar    1  UNL1        0.0819
     14 C           4.0716   -2.3481   19.9965 C.ar    1  UNL1        0.0484
     15 C           4.7311   -3.4716   20.7398 C.ar    1  UNL1        0.1417
     16 F           5.4373   -4.5582   19.9843 F       1  UNL1       -0.2041
     17 C           4.6843   -3.5088   22.2386 C.ar    1  UNL1        0.0312
     18 C           3.9781   -2.4223   22.9941 C.ar    1  UNL1        0.0211
     19 C           3.3187   -1.2987   22.2508 C.ar    1  UNL1        0.0798
     20 C           2.4307    0.3931   18.8722 C.3     1  UNL1        0.1105
     21 C           3.4283   -0.0005   17.8233 C.3     1  UNL1        0.0228
     22 C           4.7494    0.2072   17.1441 C.3     1  UNL1        0.0020
     23 C           3.8349   -0.8900   16.6860 C.3     1  UNL1        0.0020
     24 N           4.2352    0.0663   31.6871 N.3     1  UNL1       -0.2689
     25 C           3.1616   -0.8707   31.2184 C.3     1  UNL1        0.0729
     26 C           2.2172   -0.4463   30.1331 C.3     1  UNL1        0.0264
     27 C           2.3464    0.9151   29.5165 C.3     1  UNL1        0.0795
     28 C           3.4199    1.8520   29.9852 C.3     1  UNL1        0.0264
     29 C           4.3643    1.4275   31.0705 C.3     1  UNL1        0.0729
     30 C           5.1796   -0.3582   32.7724 C.3     1  UNL1        0.0993
     31 N           6.4771   -5.3673   32.2976 N.pl3   1  UNL1       -0.3426
     32 C           6.8595   -3.9172   32.2620 C.ar    1  UNL1        0.1251
     33 C           5.8283   -2.8626   32.5350 C.ar    1  UNL1        0.0310
     34 C           6.2108   -1.4127   32.4994 C.ar    1  UNL1       -0.0018
     35 C           7.6245   -1.0173   32.1907 C.ar    1  UNL1        0.0179
     36 C           8.6556   -2.0718   31.9176 C.ar    1  UNL1        0.1000
     37 N           8.2731   -3.5218   31.9533 N.ar    1  UNL1       -0.2296
     38 H           5.5493   -5.6268   32.5002 H       1  UNL1        0.1437
     39 H           7.1539   -6.0594   32.1184 H       1  UNL1        0.1437
@<TRIPOS>BOND
     1    31    32    1
     2    32    33   ar
     3    33    34   ar
     4    34    30    1
     5    30    24    1
     6    24    25    1
     7    25    26    1
     8    26    27    1
     9    27     1    1
    10     1     2    2
    11     1     3   am
    12     3     4    1
    13     4     5    1
    14     5     6    1
    15     6     9    1
    16     9    10   ar
    17    10    11    2
    18    10    12   ar
    19    12    20    1
    20    20    21    1
    21    21    22    1
    22    22    23    1
    23    12    13   ar
    24    13    14   ar
    25    14    15   ar
    26    15    16    1
    27    15    17   ar
    28    17    18   ar
    29    18    19   ar
    30     6     7    1
    31     7     8    1
    32    27    28    1
    33    28    29    1
    34    34    35   ar
    35    35    36   ar
    36    36    37   ar
    37    37    32   ar
    38    29    24    1
    39     8     3    1
    40    19     9   ar
    41    23    21    1
    42    19    13   ar
    43    31    38    1
    44    31    39    1
@<TRIPOS>MOLECULE
*****
 39 44 0 0 0
SMALL
GASTEIGER

@<TRIPOS>ATOM
      1 C           1.4150    1.2445   27.0763 C.2     1  UNL1        0.2252
      2 O           0.0791    1.9228   27.1488 O.2     1  UNL1       -0.2749
      3 N           2.0185    0.9172   25.7427 N.am    1  UNL1       -0.2794
      4 C           1.2862    1.2682   24.4816 C.3     1  UNL1        0.0953
      5 C           1.8897    0.9410   23.1479 C.3     1  UNL1        0.0442
      6 C           3.2257    0.2626   23.0754 C.3     1  UNL1        0.0933
      7 C           3.9579   -0.0884   24.3365 C.3     1  UNL1        0.0442
      8 C           3.3544    0.2389   25.6701 C.3     1  UNL1        0.0953
      9 N           3.8292   -0.0647   21.7417 N.ar    1  UNL1       -0.2817
     10 C           4.2257   -1.4304   21.2646 C.ar    1  UNL1        0.3315
     11 O           4.0883   -2.7086   22.0374 O.2     1  UNL1       -0.2463
     12 N           4.7838   -1.2934   19.8791 N.ar    1  UNL1       -0.2799
     13 C           4.7322    0.1570   19.4998 C.ar    1  UNL1        0.0819
     14 C           5.1462    0.8842   18.2550 C.ar    1  UNL1        0.0484
     15 C           4.9703    2.3709   18.1614 C.ar    1  UNL1        0.1417
     16 F           5.3843    3.0982   16.9165 F       1  UNL1       -0.2041
     17 C           4.3803    3.1303   19.3126 C.ar    1  UNL1        0.0312
     18 C           3.9663    2.4031   20.5574 C.ar    1  UNL1        0.0211
     19 C           4.1423    0.9164   20.6510 C.ar    1  UNL1        0.0798
     20 C           5.3024   -2.4106   19.0230 C.3     1  UNL1        0.1105
     21 C           4.5664   -3.7165   18.9673 C.3     1  UNL1        0.0228
     22 C           4.5686   -5.2006   18.7495 C.3     1  UNL1        0.0020
     23 C           3.2895   -4.4943   19.0885 C.3     1  UNL1        0.0020
     24 N           3.6120    0.1914   30.8597 N.3     1  UNL1       -0.2689
     25 C           2.5122   -0.6974   30.3588 C.3     1  UNL1        0.0729
     26 C           1.7799   -0.3464   29.0977 C.3     1  UNL1        0.0264
     27 C           2.1473    0.8934   28.3375 C.3     1  UNL1        0.0795
     28 C           3.2470    1.7822   28.8383 C.3     1  UNL1        0.0264
     29 C           3.9793    1.4311   30.0994 C.3     1  UNL1        0.0729
     30 C           4.3443   -0.1597   32.1208 C.3     1  UNL1        0.0993
     31 N           6.2835   -4.9610   32.5531 N.pl3   1  UNL1       -0.3426
     32 C           6.4836   -3.4980   32.2888 C.ar    1  UNL1        0.1251
     33 C           5.3139   -2.5603   32.3370 C.ar    1  UNL1        0.0310
     34 C           5.5141   -1.0974   32.0726 C.ar    1  UNL1       -0.0018
     35 C           6.8839   -0.5722   31.7602 C.ar    1  UNL1        0.0179
     36 C           8.0536   -1.5100   31.7120 C.ar    1  UNL1        0.1000
     37 N           7.8535   -2.9729   31.9764 N.ar    1  UNL1       -0.2296
     38 H           5.3844   -5.3057   32.7582 H       1  UNL1        0.1437
     39 H           7.0512   -5.5764   32.5215 H       1  UNL1        0.1437
@<TRIPOS>BOND
     1    31    32    1
     2    32    33   ar
     3    33    34   ar
     4    34    30    1
     5    30    24    1
     6    24    25    1
     7    25    26    1
     8    26    27    1
     9    27     1    1
    10     1     2    2
    11     1     3   am
    12     3     4    1
    13     4     5    1
    14     5     6    1
    15     6     9    1
    16     9    10   ar
    17    10    11    2
    18    10    12   ar
    19    12    20    1
    20    20    21    1
    21    21    22    1
    22    22    23    1
    23    12    13   ar
    24    13    14   ar
    25    14    15   ar
    26    15    16    1
    27    15    17   ar
    28    17    18   ar
    29    18    19   ar
    30     6     7    1
    31     7     8    1
    32    27    28    1
    33    28    29    1
    34    34    35   ar
    35    35    36   ar
    36    36    37   ar
    37    37    32   ar
    38    29    24    1
    39     8     3    1
    40    19     9   ar
    41    23    21    1
    42    19    13   ar
    43    31    38    1
    44    31    39    1
@<TRIPOS>MOLECULE
*****
 39 44 0 0 0
SMALL
GASTEIGER

@<TRIPOS>ATOM
      1 C           2.2679    2.5197   25.6718 C.2     1  UNL1        0.2252
      2 O           3.2552    2.7711   26.7726 O.2     1  UNL1       -0.2749
      3 N           2.7229    1.9012   24.3832 N.am    1  UNL1       -0.2794
      4 C           4.1651    1.5340   24.1956 C.3     1  UNL1        0.0953
      5 C           4.6200    0.9154   22.9070 C.3     1  UNL1        0.0442
      6 C           3.6327    0.6640   21.8060 C.3     1  UNL1        0.0933
      7 C           2.1906    1.0312   21.9937 C.3     1  UNL1        0.0442
      8 C           1.7356    1.6498   23.2822 C.3     1  UNL1        0.0953
      9 N           4.0876    0.0454   20.5174 N.ar    1  UNL1       -0.2817
     10 C           4.4642    0.7859   19.2685 C.ar    1  UNL1        0.3315
     11 O           4.4519    2.2751   19.0889 O.2     1  UNL1       -0.2463
     12 N           4.8551   -0.2242   18.2308 N.ar    1  UNL1       -0.2799
     13 C           4.7202   -1.5890   18.8384 C.ar    1  UNL1        0.0819
     14 C           4.9681   -2.9619   18.2874 C.ar    1  UNL1        0.0484
     15 C           4.7415   -4.1682   19.1496 C.ar    1  UNL1        0.1417
     16 F           4.9893   -5.5412   18.5985 F       1  UNL1       -0.2041
     17 C           4.2671   -4.0016   20.5628 C.ar    1  UNL1        0.0312
     18 C           4.0193   -2.6287   21.1138 C.ar    1  UNL1        0.0211
     19 C           4.2459   -1.4224   20.2516 C.ar    1  UNL1        0.0798
     20 C           5.3025    0.0776   16.8312 C.3     1  UNL1        0.1105
     21 C           6.3302    1.1423   16.5854 C.3     1  UNL1        0.0228
     22 C           7.7482    1.5372   16.2969 C.3     1  UNL1        0.0020
     23 C           6.6921    2.5915   16.4481 C.3     1  UNL1        0.0020
     24 N          -2.0587    3.6213   26.2346 N.3     1  UNL1       -0.2689
     25 C          -1.5607    2.2811   26.6886 C.3     1  UNL1        0.0729
     26 C          -0.1185    1.9139   26.5010 C.3     1  UNL1        0.0264
     27 C           0.8257    2.8869   25.8594 C.3     1  UNL1        0.0795
     28 C           0.3278    4.2271   25.4054 C.3     1  UNL1        0.0264
     29 C          -1.1144    4.5942   25.5930 C.3     1  UNL1        0.0729
     30 C          -3.5009    3.9885   26.4222 C.3     1  UNL1        0.0993
     31 N          -4.5677    2.5729   21.5378 N.pl3   1  UNL1       -0.3426
     32 C          -4.9727    3.2564   22.8101 C.ar    1  UNL1        0.1251
     33 C          -4.0343    3.2807   23.9801 C.ar    1  UNL1        0.0310
     34 C          -4.4394    3.9642   25.2524 C.ar    1  UNL1       -0.0018
     35 C          -5.7829    4.6233   25.3547 C.ar    1  UNL1        0.0179
     36 C          -6.7213    4.5990   24.1848 C.ar    1  UNL1        0.1000
     37 N          -6.3162    3.9155   22.9125 N.ar    1  UNL1       -0.2296
     38 H          -3.6859    2.1402   21.4705 H       1  UNL1        0.1437
     39 H          -5.1837    2.5569   20.7699 H       1  UNL1        0.1437
@<TRIPOS>BOND
     1    31    32    1
     2    32    33   ar
     3    33    34   ar
     4    34    30    1
     5    30    24    1
     6    24    25    1
     7    25    26    1
     8    26    27    1
     9    27     1    1
    10     1     2    2
    11     1     3   am
    12     3     4    1
    13     4     5    1
    14     5     6    1
    15     6     9    1
    16     9    10   ar
    17    10    11    2
    18    10    12   ar
    19    12    20    1
    20    20    21    1
    21    21    22    1
    22    22    23    1
    23    12    13   ar
    24    13    14   ar
    25    14    15   ar
    26    15    16    1
    27    15    17   ar
    28    17    18   ar
    29    18    19   ar
    30     6     7    1
    31     7     8    1
    32    27    28    1
    33    28    29    1
    34    34    35   ar
    35    35    36   ar
    36    36    37   ar
    37    37    32   ar
    38    29    24    1
    39     8     3    1
    40    19     9   ar
    41    23    21    1
    42    19    13   ar
    43    31    38    1
    44    31    39    1
@<TRIPOS>MOLECULE
*****
 39 44 0 0 0
SMALL
GASTEIGER

@<TRIPOS>ATOM
      1 C           2.5660    1.0091   28.9929 C.2     1  UNL1        0.2252
      2 O           1.5109    2.0367   29.2770 O.2     1  UNL1       -0.2749
      3 N           2.7901    0.5329   27.5883 N.am    1  UNL1       -0.2794
      4 C           1.9592    1.0843   26.4678 C.3     1  UNL1        0.0953
      5 C           2.1833    0.6081   25.0632 C.3     1  UNL1        0.0442
      6 C           3.2385   -0.4196   24.7790 C.3     1  UNL1        0.0933
      7 C           4.0693   -0.9710   25.8995 C.3     1  UNL1        0.0442
      8 C           3.8452   -0.4948   27.3041 C.3     1  UNL1        0.0953
      9 N           3.4626   -0.8958   23.3744 N.ar    1  UNL1       -0.2817
     10 C           4.4819   -1.9060   22.9380 C.ar    1  UNL1        0.3315
     11 O           5.4561   -2.6174   23.8295 O.2     1  UNL1       -0.2463
     12 N           4.3560   -2.0799   21.4534 N.ar    1  UNL1       -0.2799
     13 C           3.2589   -1.1772   20.9723 C.ar    1  UNL1        0.0819
     14 C           2.6913   -0.9270   19.6066 C.ar    1  UNL1        0.0484
     15 C           1.5716    0.0549   19.4281 C.ar    1  UNL1        0.1417
     16 F           1.0040    0.3051   18.0623 F       1  UNL1       -0.2041
     17 C           1.0195    0.7868   20.6153 C.ar    1  UNL1        0.0312
     18 C           1.5870    0.5366   21.9811 C.ar    1  UNL1        0.0211
     19 C           2.7067   -0.4454   22.1595 C.ar    1  UNL1        0.0798
     20 C           5.1822   -2.9957   20.5998 C.3     1  UNL1        0.1105
     21 C           4.5176   -4.0717   19.7930 C.3     1  UNL1        0.0228
     22 C           4.5859   -5.1282   18.7304 C.3     1  UNL1        0.0020
     23 C           3.2983   -4.8786   19.4581 C.3     1  UNL1        0.0020
     24 N           5.0587   -0.6453   32.3543 N.3     1  UNL1       -0.2689
     25 C           5.5580    0.5212   31.5541 C.3     1  UNL1        0.0729
     26 C           4.7271    1.0726   30.4336 C.3     1  UNL1        0.0264
     27 C           3.3969    0.4576   30.1134 C.3     1  UNL1        0.0795
     28 C           2.8977   -0.7088   30.9135 C.3     1  UNL1        0.0264
     29 C           3.7286   -1.2602   32.0340 C.3     1  UNL1        0.0729
     30 C           5.8896   -1.1967   33.4748 C.3     1  UNL1        0.0993
     31 N           3.6871    0.4909   37.8681 N.pl3   1  UNL1       -0.3426
     32 C           4.8847    0.3911   36.9703 C.ar    1  UNL1        0.1251
     33 C           4.7884   -0.3530   35.6714 C.ar    1  UNL1        0.0310
     34 C           5.9860   -0.4527   34.7737 C.ar    1  UNL1       -0.0018
     35 C           7.2798    0.1916   35.1748 C.ar    1  UNL1        0.0179
     36 C           7.3760    0.9356   36.4737 C.ar    1  UNL1        0.1000
     37 N           6.1785    1.0354   37.3714 N.ar    1  UNL1       -0.2296
     38 H           2.8379    0.0680   37.6048 H       1  UNL1        0.1437
     39 H           3.7504    0.9792   38.7206 H       1  UNL1        0.1437
@<TRIPOS>BOND
     1    31    32    1
     2    32    33   ar
     3    33    34   ar
     4    34    30    1
     5    30    24    1
     6    24    25    1
     7    25    26    1
     8    26    27    1
     9    27     1    1
    10     1     2    2
    11     1     3   am
    12     3     4    1
    13     4     5    1
    14     5     6    1
    15     6     9    1
    16     9    10   ar
    17    10    11    2
    18    10    12   ar
    19    12    20    1
    20    20    21    1
    21    21    22    1
    22    22    23    1
    23    12    13   ar
    24    13    14   ar
    25    14    15   ar
    26    15    16    1
    27    15    17   ar
    28    17    18   ar
    29    18    19   ar
    30     6     7    1
    31     7     8    1
    32    27    28    1
    33    28    29    1
    34    34    35   ar
    35    35    36   ar
    36    36    37   ar
    37    37    32   ar
    38    29    24    1
    39     8     3    1
    40    19     9   ar
    41    23    21    1
    42    19    13   ar
    43    31    38    1
    44    31    39    1
@<TRIPOS>MOLECULE
*****
 39 44 0 0 0
SMALL
GASTEIGER

@<TRIPOS>ATOM
      1 C          -2.2035    4.4517   19.0055 C.2     1  UNL1        0.2252
      2 O          -2.0849    5.3375   17.8009 O.2     1  UNL1       -0.2749
      3 N          -1.1422    3.4315   19.2936 N.am    1  UNL1       -0.2794
      4 C           0.0376    3.2974   18.3770 C.3     1  UNL1        0.0953
      5 C           1.0989    2.2772   18.6651 C.3     1  UNL1        0.0442
      6 C           0.9804    1.3912   19.8698 C.3     1  UNL1        0.0933
      7 C          -0.1994    1.5255   20.7862 C.3     1  UNL1        0.0442
      8 C          -1.2607    2.5456   20.4982 C.3     1  UNL1        0.0953
      9 N           2.0417    0.3711   20.1578 N.ar    1  UNL1       -0.2817
     10 C           2.8125   -0.4118   19.1366 C.ar    1  UNL1        0.3315
     11 O           2.6572   -0.3121   17.6480 O.2     1  UNL1       -0.2463
     12 N           3.7657   -1.3119   19.8653 N.ar    1  UNL1       -0.2799
     13 C           3.5841   -1.0853   21.3370 C.ar    1  UNL1        0.0819
     14 C           4.2513   -1.6918   22.5357 C.ar    1  UNL1        0.0484
     15 C           3.8529   -1.2580   23.9152 C.ar    1  UNL1        0.1417
     16 F           4.5201   -1.8645   25.1141 F       1  UNL1       -0.2041
     17 C           2.7875   -0.2178   24.0960 C.ar    1  UNL1        0.0312
     18 C           2.1203    0.3887   22.8973 C.ar    1  UNL1        0.0211
     19 C           2.5186   -0.0451   21.5177 C.ar    1  UNL1        0.0798
     20 C           4.7311   -2.2705   19.2334 C.3     1  UNL1        0.1105
     21 C           4.4034   -3.7330   19.1709 C.3     1  UNL1        0.0228
     22 C           4.6609   -5.0989   18.6071 C.3     1  UNL1        0.0020
     23 C           3.5785   -4.9001   19.6264 C.3     1  UNL1        0.0020
     24 N          -5.7429    4.8542   21.7551 N.3     1  UNL1       -0.2689
     25 C          -4.6250    5.8524   21.8205 C.3     1  UNL1        0.0729
     26 C          -3.4452    5.7182   20.9039 C.3     1  UNL1        0.0264
     27 C          -3.3833    4.5858   19.9220 C.3     1  UNL1        0.0795
     28 C          -4.5011    3.5877   19.8567 C.3     1  UNL1        0.0264
     29 C          -5.6809    3.7219   20.7732 C.3     1  UNL1        0.0729
     30 C          -6.9227    4.9884   22.6716 C.3     1  UNL1        0.0993
     31 N          -4.3389    4.1198   27.0954 N.pl3   1  UNL1       -0.3426
     32 C          -5.4197    4.8365   26.3414 C.ar    1  UNL1        0.1251
     33 C          -5.6308    4.5541   24.8834 C.ar    1  UNL1        0.0310
     34 C          -6.7116    5.2708   24.1296 C.ar    1  UNL1       -0.0018
     35 C          -7.5812    6.2698   24.8336 C.ar    1  UNL1        0.0179
     36 C          -7.3700    6.5522   26.2916 C.ar    1  UNL1        0.1000
     37 N          -6.2892    5.8355   27.0455 N.ar    1  UNL1       -0.2296
     38 H          -3.7681    3.4641   26.6333 H       1  UNL1        0.1437
     39 H          -4.2003    4.3052   28.0523 H       1  UNL1        0.1437
@<TRIPOS>BOND
     1    31    32    1
     2    32    33   ar
     3    33    34   ar
     4    34    30    1
     5    30    24    1
     6    24    25    1
     7    25    26    1
     8    26    27    1
     9    27     1    1
    10     1     2    2
    11     1     3   am
    12     3     4    1
    13     4     5    1
    14     5     6    1
    15     6     9    1
    16     9    10   ar
    17    10    11    2
    18    10    12   ar
    19    12    20    1
    20    20    21    1
    21    21    22    1
    22    22    23    1
    23    12    13   ar
    24    13    14   ar
    25    14    15   ar
    26    15    16    1
    27    15    17   ar
    28    17    18   ar
    29    18    19   ar
    30     6     7    1
    31     7     8    1
    32    27    28    1
    33    28    29    1
    34    34    35   ar
    35    35    36   ar
    36    36    37   ar
    37    37    32   ar
    38    29    24    1
    39     8     3    1
    40    19     9   ar
    41    23    21    1
    42    19    13   ar
    43    31    38    1
    44    31    39    1
@<TRIPOS>MOLECULE
*****
 39 44 0 0 0
SMALL
GASTEIGER

@<TRIPOS>ATOM
      1 C           6.7357   -4.0451   31.2215 C.2     1  UNL1        0.2252
      2 O           6.9119   -5.4518   31.7117 O.2     1  UNL1       -0.2749
      3 N           6.6053   -3.7738   29.7520 N.am    1  UNL1       -0.2794
      4 C           6.6511   -4.9091   28.7728 C.3     1  UNL1        0.0953
      5 C           6.5207   -4.6378   27.3033 C.3     1  UNL1        0.0442
      6 C           6.3445   -3.2311   26.8131 C.3     1  UNL1        0.0933
      7 C           6.2987   -2.0959   27.7923 C.3     1  UNL1        0.0442
      8 C           6.4291   -2.3672   29.2618 C.3     1  UNL1        0.0953
      9 N           6.2141   -2.9597   25.3436 N.ar    1  UNL1       -0.2817
     10 C           7.1284   -3.4681   24.2686 C.ar    1  UNL1        0.3315
     11 O           8.3337   -4.3370   24.4743 O.2     1  UNL1       -0.2463
     12 N           6.6258   -2.9549   22.9518 N.ar    1  UNL1       -0.2799
     13 C           5.4009   -2.1295   23.2129 C.ar    1  UNL1        0.0819
     14 C           4.4844   -1.3755   22.2956 C.ar    1  UNL1        0.0484
     15 C           3.3134   -0.6245   22.8565 C.ar    1  UNL1        0.1417
     16 F           2.3967    0.1295   21.9392 F       1  UNL1       -0.2041
     17 C           3.0589   -0.6275   24.3348 C.ar    1  UNL1        0.0312
     18 C           3.9754   -1.3815   25.2521 C.ar    1  UNL1        0.0211
     19 C           5.1464   -2.1324   24.6911 C.ar    1  UNL1        0.0798
     20 C           7.2403   -3.2206   21.6094 C.3     1  UNL1        0.1105
     21 C           6.3630   -3.4152   20.4082 C.3     1  UNL1        0.0228
     22 C           5.9477   -3.0133   19.0241 C.3     1  UNL1        0.0020
     23 C           5.2589   -4.1544   19.7121 C.3     1  UNL1        0.0020
     24 N           6.5983   -0.6392   34.1593 N.3     1  UNL1       -0.2689
     25 C           7.9054   -1.0515   33.5496 C.3     1  UNL1        0.0729
     26 C           7.9512   -2.1868   32.5703 C.3     1  UNL1        0.0264
     27 C           6.6899   -2.9098   32.2008 C.3     1  UNL1        0.0795
     28 C           5.3829   -2.4976   32.8105 C.3     1  UNL1        0.0264
     29 C           5.3371   -1.3623   33.7898 C.3     1  UNL1        0.0729
     30 C           6.5525    0.4961   35.1386 C.3     1  UNL1        0.0993
     31 N           2.9935    0.5426   38.9243 N.pl3   1  UNL1       -0.3426
     32 C           3.4555    0.9927   37.5700 C.ar    1  UNL1        0.1251
     33 C           4.7731    0.5193   37.0314 C.ar    1  UNL1        0.0310
     34 C           5.2350    0.9694   35.6771 C.ar    1  UNL1       -0.0018
     35 C           4.3794    1.8928   34.8614 C.ar    1  UNL1        0.0179
     36 C           3.0619    2.3661   35.4000 C.ar    1  UNL1        0.1000
     37 N           2.6000    1.9160   36.7543 N.ar    1  UNL1       -0.2296
     38 H           3.5550   -0.0634   39.4597 H       1  UNL1        0.1437
     39 H           2.1287    0.8533   39.2777 H       1  UNL1        0.1437
@<TRIPOS>BOND
     1    31    32    1
     2    32    33   ar
     3    33    34   ar
     4    34    30    1
     5    30    24    1
     6    24    25    1
     7    25    26    1
     8    26    27    1
     9    27     1    1
    10     1     2    2
    11     1     3   am
    12     3     4    1
    13     4     5    1
    14     5     6    1
    15     6     9    1
    16     9    10   ar
    17    10    11    2
    18    10    12   ar
    19    12    20    1
    20    20    21    1
    21    21    22    1
    22    22    23    1
    23    12    13   ar
    24    13    14   ar
    25    14    15   ar
    26    15    16    1
    27    15    17   ar
    28    17    18   ar
    29    18    19   ar
    30     6     7    1
    31     7     8    1
    32    27    28    1
    33    28    29    1
    34    34    35   ar
    35    35    36   ar
    36    36    37   ar
    37    37    32   ar
    38    29    24    1
    39     8     3    1
    40    19     9   ar
    41    23    21    1
    42    19    13   ar
    43    31    38    1
    44    31    39    1
@<TRIPOS>MOLECULE
*****
 39 44 0 0 0
SMALL
GASTEIGER

@<TRIPOS>ATOM
      1 C           1.9344    1.2865   26.2550 C.2     1  UNL1        0.2252
      2 O           0.7115    2.1443   26.3914 O.2     1  UNL1       -0.2749
      3 N           2.3888    0.8390   24.8973 N.am    1  UNL1       -0.2794
      4 C           1.6203    1.2493   23.6762 C.3     1  UNL1        0.0953
      5 C           2.0748    0.8018   22.3185 C.3     1  UNL1        0.0442
      6 C           3.2977   -0.0561   22.1820 C.3     1  UNL1        0.0933
      7 C           4.0661   -0.4663   23.4031 C.3     1  UNL1        0.0442
      8 C           3.6117   -0.0188   24.7607 C.3     1  UNL1        0.0953
      9 N           3.7522   -0.5036   20.8243 N.ar    1  UNL1       -0.2817
     10 C           4.0409    0.3878   19.6530 C.ar    1  UNL1        0.3315
     11 O           3.9260    1.8833   19.6337 O.2     1  UNL1       -0.2463
     12 N           4.4648   -0.4788   18.5045 N.ar    1  UNL1       -0.2799
     13 C           4.4381   -1.9058   18.9659 C.ar    1  UNL1        0.0819
     14 C           4.7578   -3.1932   18.2657 C.ar    1  UNL1        0.0484
     15 C           4.6371   -4.4960   18.9994 C.ar    1  UNL1        0.1417
     16 F           4.9569   -5.7835   18.2992 F       1  UNL1       -0.2041
     17 C           4.1967   -4.5113   20.4332 C.ar    1  UNL1        0.0312
     18 C           3.8769   -3.2239   21.1333 C.ar    1  UNL1        0.0211
     19 C           3.9976   -1.9212   20.3997 C.ar    1  UNL1        0.0798
     20 C           4.8482   -0.0021   17.1349 C.3     1  UNL1        0.1105
     21 C           6.0540    0.8719   16.9552 C.3     1  UNL1        0.0228
     22 C           6.6615    2.1761   16.5308 C.3     1  UNL1        0.0020
     23 C           7.5350    1.0815   17.0682 C.3     1  UNL1        0.0020
     24 N           4.2398    0.0557   29.9183 N.3     1  UNL1       -0.2689
     25 C           2.9849   -0.6747   29.5412 C.3     1  UNL1        0.0729
     26 C           2.2165   -0.2644   28.3201 C.3     1  UNL1        0.0264
     27 C           2.7028    0.8763   27.4761 C.3     1  UNL1        0.0795
     28 C           3.9576    1.6066   27.8531 C.3     1  UNL1        0.0264
     29 C           4.7261    1.1963   29.0742 C.3     1  UNL1        0.0729
     30 C           5.0083   -0.3546   31.1394 C.3     1  UNL1        0.0993
     31 N           6.4345   -5.1419   32.5704 N.pl3   1  UNL1       -0.3426
     32 C           6.6900   -3.8912   31.7826 C.ar    1  UNL1        0.1251
     33 C           5.7213   -2.7482   31.8549 C.ar    1  UNL1        0.0310
     34 C           5.9769   -1.4975   31.0671 C.ar    1  UNL1       -0.0018
     35 C           7.2012   -1.3899   30.2071 C.ar    1  UNL1        0.0179
     36 C           8.1698   -2.5329   30.1349 C.ar    1  UNL1        0.1000
     37 N           7.9142   -3.7835   30.9226 N.ar    1  UNL1       -0.2296
     38 H           5.6310   -5.2126   33.1348 H       1  UNL1        0.1437
     39 H           7.0703   -5.8920   32.5229 H       1  UNL1        0.1437
@<TRIPOS>BOND
     1    31    32    1
     2    32    33   ar
     3    33    34   ar
     4    34    30    1
     5    30    24    1
     6    24    25    1
     7    25    26    1
     8    26    27    1
     9    27     1    1
    10     1     2    2
    11     1     3   am
    12     3     4    1
    13     4     5    1
    14     5     6    1
    15     6     9    1
    16     9    10   ar
    17    10    11    2
    18    10    12   ar
    19    12    20    1
    20    20    21    1
    21    21    22    1
    22    22    23    1
    23    12    13   ar
    24    13    14   ar
    25    14    15   ar
    26    15    16    1
    27    15    17   ar
    28    17    18   ar
    29    18    19   ar
    30     6     7    1
    31     7     8    1
    32    27    28    1
    33    28    29    1
    34    34    35   ar
    35    35    36   ar
    36    36    37   ar
    37    37    32   ar
    38    29    24    1
    39     8     3    1
    40    19     9   ar
    41    23    21    1
    42    19    13   ar
    43    31    38    1
    44    31    39    1
