@<TRIPOS>MOLECULE
*****
 54 59 0 0 0
SMALL
GASTEIGER

@<TRIPOS>ATOM
      1 C           4.6283   -2.6228   22.9909 C.3     1  UNL1        0.1686
      2 C           4.5041   -2.0369   24.3661 C.3     1  UNL1        0.0437
      3 C           3.5406   -0.9155   24.6193 C.3     1  UNL1        0.0071
      4 C           2.7014   -0.3800   23.4974 C.3     1  UNL1        0.0404
      5 C           1.7379    0.7414   23.7506 C.3     1  UNL1        0.1687
      6 C           1.6136    1.3274   25.1258 C.3     1  UNL1        0.0437
      7 C           2.4529    0.7919   26.2479 C.3     1  UNL1        0.0049
      8 C           2.3286    1.3778   27.6231 C.3     1  UNL1        0.0156
      9 C           3.1679    0.8423   28.7450 C.3     1  UNL1        0.0508
     10 N           3.0436    1.4282   30.1203 N.3     1  UNL1       -0.3222
     11 C           4.1314   -0.2791   28.4918 C.3     1  UNL1        0.0155
     12 C           4.2556   -0.8650   27.1166 C.3     1  UNL1        0.0014
     13 C           3.4164   -0.3295   25.9946 C.3     1  UNL1        0.0004
     14 C           4.3799   -1.4509   25.7414 C.3     1  UNL1        0.0000
     15 C           2.8256   -0.9659   22.1221 C.3     1  UNL1        0.0068
     16 C           2.1353   -0.6470   20.8292 C.3     1  UNL1        0.0002
     17 C           2.6721   -1.5714   19.7769 C.3     1  UNL1        0.0001
     18 C           3.6942   -2.4615   20.4195 C.3     1  UNL1        0.0034
     19 C           3.7891   -2.0873   21.8689 C.3     1  UNL1        0.0370
     20 C           4.7042   -3.2056   21.4664 C.3     1  UNL1        0.0036
     21 H           3.6828    0.9477   30.7536 H       1  UNL1        0.1188
     22 H           2.0861    1.3148   30.4530 H       1  UNL1        0.1188
     23 C           4.4830   -3.5370   19.7330 C.3     1  UNL1        0.0002
     24 C           3.8641   -4.8815   19.4893 C.3     1  UNL1        0.0000
     25 C           5.8907   -3.2680   19.2903 C.3     1  UNL1        0.0014
     26 C           6.1462   -2.4567   18.0548 C.3     1  UNL1        0.0171
     27 C           6.9301   -1.1809   18.1441 C.3     1  UNL1        0.0686
     28 N           6.7852   -0.1355   17.0782 N.3     1  UNL1       -0.2975
     29 H           6.4597   -0.6143   16.2385 H       1  UNL1        0.1232
     30 C           5.8692    1.0327   17.2931 C.3     1  UNL1        0.0686
     31 C           4.4977    0.8159   17.8608 C.3     1  UNL1        0.0188
     32 C           3.8027    1.9284   18.5882 C.3     1  UNL1        0.0226
     33 C           4.5383    2.7182   19.6299 C.3     1  UNL1        0.0871
     34 N           4.3101    2.4357   21.0852 N.pl3   1  UNL1       -0.3326
     35 H           3.4935    2.7620   21.5279 H       1  UNL1        0.1468
     36 C           5.3260    1.6559   21.8662 C.ar    1  UNL1        0.0476
     37 C           6.1501    0.6042   21.1846 C.ar    1  UNL1        0.0350
     38 C           7.1660   -0.1757   21.9655 C.ar    1  UNL1        0.1001
     39 N           7.3578    0.0963   23.4281 N.ar    1  UNL1       -0.2437
     40 C           6.5337    1.1482   24.1098 C.ar    1  UNL1        0.0833
     41 C           6.7255    1.4202   25.5724 C.ar    1  UNL1        0.0305
     42 C           5.9015    2.4719   26.2541 C.ar    1  UNL1        0.0592
     43 CL          6.0933    2.7440   27.7167 Cl      1  UNL1       -0.0822
     44 C           4.8856    3.2517   25.4731 C.ar    1  UNL1        0.0115
     45 C           4.6938    2.9797   24.0105 C.ar    1  UNL1        0.0036
     46 C           5.5178    1.9279   23.3288 C.ar    1  UNL1        0.0309
     47 O           5.5918   -3.7442   22.7377 O.3     1  UNL1       -0.4523
     48 C           8.1221   -3.4825   23.2659 C.3     1  UNL1        0.1212
     49 C           6.7549   -3.9565   23.6608 C.2     1  UNL1        0.3174
     50 O           6.5508   -4.6430   24.9788 O.2     1  UNL1       -0.2501
     51 O           0.8986    1.2769   22.6285 O.3     1  UNL1       -0.4523
     52 C           0.6496    2.7518   22.5161 C.2     1  UNL1        0.3174
     53 C          -0.6671    3.3253   22.9489 C.3     1  UNL1        0.1212
     54 O           1.7173    3.6533   21.9707 O.2     1  UNL1       -0.2501
@<TRIPOS>BOND
     1    48    49    1
     2    49    50    2
     3    49    47    1
     4     1    47    1
     5     1     2    1
     6     3     2    1
     7     3     4    1
     8     4     5    1
     9     5    51    1
    10    51    52    1
    11    52    53    1
    12    52    54    2
    13     5     6    1
    14     7     6    1
    15     7     8    1
    16     8     9    1
    17     9    10    1
    18     9    11    1
    19    11    12    1
    20    12    13    1
    21    13    14    1
    22     4    15    1
    23    15    16    1
    24    16    17    1
    25    18    17    1
    26    18    23    1
    27    23    24    1
    28    23    25    1
    29    25    26    1
    30    26    27    1
    31    27    28    1
    32    28    30    1
    33    30    31    1
    34    31    32    1
    35    32    33    1
    36    33    34    1
    37    34    36    1
    38    36    37   ar
    39    37    38   ar
    40    38    39   ar
    41    39    40   ar
    42    40    41   ar
    43    41    42   ar
    44    42    43    1
    45    42    44   ar
    46    44    45   ar
    47    45    46   ar
    48    18    19    1
    49    19    20    1
    50    19     1    1
    51    13     3    1
    52    19    15    1
    53    13     7    1
    54    46    36   ar
    55    46    40   ar
    56    10    21    1
    57    10    22    1
    58    28    29    1
    59    34    35    1
@<TRIPOS>MOLECULE
*****
 54 59 0 0 0
SMALL
GASTEIGER

@<TRIPOS>ATOM
      1 C           2.6763   -1.0106   21.4757 C.3     1  UNL1        0.1686
      2 C           2.1286   -0.0895   22.5252 C.3     1  UNL1        0.0437
      3 C           2.6448   -0.1636   23.9316 C.3     1  UNL1        0.0071
      4 C           3.7088   -1.1588   24.2886 C.3     1  UNL1        0.0404
      5 C           4.2250   -1.2329   25.6950 C.3     1  UNL1        0.1687
      6 C           3.6773   -0.3117   26.7444 C.3     1  UNL1        0.0437
      7 C           2.6133    0.6836   26.3875 C.3     1  UNL1        0.0049
      8 C           2.0656    1.6047   27.4370 C.3     1  UNL1        0.0156
      9 C           1.0016    2.6000   27.0801 C.3     1  UNL1        0.0508
     10 N           0.4538    3.5212   28.1296 N.3     1  UNL1       -0.3222
     11 C           0.4854    2.6740   25.6736 C.3     1  UNL1        0.0155
     12 C           1.0331    1.7529   24.6242 C.3     1  UNL1        0.0014
     13 C           2.0970    0.7577   24.9811 C.3     1  UNL1        0.0004
     14 C           1.5808    0.8317   23.5747 C.3     1  UNL1        0.0000
     15 C           4.2565   -2.0800   23.2391 C.3     1  UNL1        0.0068
     16 C           5.3010   -3.1552   23.2934 C.3     1  UNL1        0.0002
     17 C           5.4303   -3.7456   21.9206 C.3     1  UNL1        0.0001
     18 C           4.4657   -3.0353   21.0178 C.3     1  UNL1        0.0034
     19 C           3.7403   -2.0059   21.8326 C.3     1  UNL1        0.0370
     20 C           3.3241   -2.0479   20.3921 C.3     1  UNL1        0.0036
     21 H          -0.2552    4.1258   27.7147 H       1  UNL1        0.1188
     22 H           1.2091    4.0929   28.5079 H       1  UNL1        0.1188
     23 C           4.2623   -3.3068   19.5566 C.3     1  UNL1        0.0002
     24 C           3.3142   -4.3835   19.1186 C.3     1  UNL1        0.0000
     25 C           5.0071   -2.5016   18.5335 C.3     1  UNL1        0.0014
     26 C           6.4965   -2.3541   18.6341 C.3     1  UNL1        0.0171
     27 C           7.1772   -1.1732   18.0080 C.3     1  UNL1        0.0686
     28 N           6.5370   -0.4648   16.8511 N.3     1  UNL1       -0.2975
     29 H           5.5298   -0.4926   17.0097 H       1  UNL1        0.1232
     30 C           6.8899    0.9632   16.5577 C.3     1  UNL1        0.0686
     31 C           7.4825    1.8253   17.6327 C.3     1  UNL1        0.0188
     32 C           6.6034    2.7481   18.4237 C.3     1  UNL1        0.0226
     33 C           5.1174    2.5437   18.4330 C.3     1  UNL1        0.0871
     34 N           4.4857    1.6803   19.4844 N.pl3   1  UNL1       -0.3326
     35 H           3.9758    0.8798   19.2230 H       1  UNL1        0.1468
     36 C           4.6308    2.0367   20.9342 C.ar    1  UNL1        0.0476
     37 C           3.8007    3.1390   21.5223 C.ar    1  UNL1        0.0350
     38 C           3.9458    3.4955   22.9722 C.ar    1  UNL1        0.1001
     39 N           4.9210    2.7495   23.8339 N.ar    1  UNL1       -0.2437
     40 C           5.7511    1.6471   23.2458 C.ar    1  UNL1        0.0833
     41 C           6.7263    0.9012   24.1075 C.ar    1  UNL1        0.0305
     42 C           7.5564   -0.2011   23.5195 C.ar    1  UNL1        0.0592
     43 CL          8.5315   -0.9470   24.3812 Cl      1  UNL1       -0.0822
     44 C           7.4112   -0.5575   22.0697 C.ar    1  UNL1        0.0115
     45 C           6.4361    0.1884   21.2080 C.ar    1  UNL1        0.0036
     46 C           5.6060    1.2908   21.7960 C.ar    1  UNL1        0.0309
     47 O           2.1600   -0.9365   20.0693 O.3     1  UNL1       -0.4523
     48 C           1.2939    1.0225   18.5990 C.3     1  UNL1        0.1212
     49 C           1.0820    0.0450   19.7168 C.2     1  UNL1        0.3174
     50 O          -0.2081    0.0490   20.4822 O.2     1  UNL1       -0.2501
     51 O           5.2890   -2.2282   26.0519 O.3     1  UNL1       -0.4523
     52 C           6.1682   -1.9911   27.2439 C.2     1  UNL1        0.3174
     53 C           6.2680   -3.0304   28.3208 C.3     1  UNL1        0.1212
     54 O           6.9478   -0.7147   27.3588 O.2     1  UNL1       -0.2501
@<TRIPOS>BOND
     1    48    49    1
     2    49    50    2
     3    49    47    1
     4     1    47    1
     5     1     2    1
     6     3     2    1
     7     3     4    1
     8     4     5    1
     9     5    51    1
    10    51    52    1
    11    52    53    1
    12    52    54    2
    13     5     6    1
    14     7     6    1
    15     7     8    1
    16     8     9    1
    17     9    10    1
    18     9    11    1
    19    11    12    1
    20    12    13    1
    21    13    14    1
    22     4    15    1
    23    15    16    1
    24    16    17    1
    25    18    17    1
    26    18    23    1
    27    23    24    1
    28    23    25    1
    29    25    26    1
    30    26    27    1
    31    27    28    1
    32    28    30    1
    33    30    31    1
    34    31    32    1
    35    32    33    1
    36    33    34    1
    37    34    36    1
    38    36    37   ar
    39    37    38   ar
    40    38    39   ar
    41    39    40   ar
    42    40    41   ar
    43    41    42   ar
    44    42    43    1
    45    42    44   ar
    46    44    45   ar
    47    45    46   ar
    48    18    19    1
    49    19    20    1
    50    19     1    1
    51    13     3    1
    52    19    15    1
    53    13     7    1
    54    46    36   ar
    55    46    40   ar
    56    10    21    1
    57    10    22    1
    58    28    29    1
    59    34    35    1
@<TRIPOS>MOLECULE
*****
 54 59 0 0 0
SMALL
GASTEIGER

@<TRIPOS>ATOM
      1 C           5.0897   -2.9287   22.2908 C.3     1  UNL1        0.1686
      2 C           5.4309   -2.7668   23.7424 C.3     1  UNL1        0.0437
      3 C           4.6476   -1.8134   24.5952 C.3     1  UNL1        0.0071
      4 C           3.5229   -1.0219   23.9964 C.3     1  UNL1        0.0404
      5 C           2.7395   -0.0685   24.8493 C.3     1  UNL1        0.1687
      6 C           3.0808    0.0934   26.3009 C.3     1  UNL1        0.0437
      7 C           4.2055   -0.6981   26.8998 C.3     1  UNL1        0.0049
      8 C           4.5468   -0.5362   28.3514 C.3     1  UNL1        0.0156
      9 C           5.6714   -1.3278   28.9502 C.3     1  UNL1        0.0508
     10 N           6.0127   -1.1659   30.4019 N.3     1  UNL1       -0.3222
     11 C           6.4548   -2.2812   28.0974 C.3     1  UNL1        0.0155
     12 C           6.1135   -2.4431   26.6458 C.3     1  UNL1        0.0014
     13 C           4.9889   -1.6515   26.0470 C.3     1  UNL1        0.0004
     14 C           5.7723   -2.6050   25.1941 C.3     1  UNL1        0.0000
     15 C           3.1816   -1.1837   22.5447 C.3     1  UNL1        0.0068
     16 C           2.1346   -0.5434   21.6824 C.3     1  UNL1        0.0002
     17 C           2.2709   -1.1010   20.2966 C.3     1  UNL1        0.0001
     18 C           3.4021   -2.0860   20.3025 C.3     1  UNL1        0.0034
     19 C           3.9650   -2.1371   21.6919 C.3     1  UNL1        0.0370
     20 C           4.6557   -3.0474   20.7201 C.3     1  UNL1        0.0036
     21 H           6.7963   -1.7751   30.6369 H       1  UNL1        0.1188
     22 H           5.2044   -1.4167   30.9713 H       1  UNL1        0.1188
     23 C           3.8856   -2.8804   19.1255 C.3     1  UNL1        0.0002
     24 C           3.4748   -4.3145   18.9687 C.3     1  UNL1        0.0000
     25 C           4.7800   -2.2407   18.1053 C.3     1  UNL1        0.0014
     26 C           4.2500   -1.1506   17.2216 C.3     1  UNL1        0.0171
     27 C           5.1299    0.0047   16.8459 C.3     1  UNL1        0.0686
     28 N           6.6217   -0.1501   16.8692 N.3     1  UNL1       -0.2975
     29 H           6.8719   -0.7138   16.0568 H       1  UNL1        0.1232
     30 C           7.5022    1.0639   16.8417 C.3     1  UNL1        0.0686
     31 C           8.1703    1.5345   18.0996 C.3     1  UNL1        0.0188
     32 C           9.2425    0.7008   18.7363 C.3     1  UNL1        0.0226
     33 C           8.8788   -0.5555   19.4707 C.3     1  UNL1        0.0871
     34 N           7.5093   -0.7080   20.0634 N.pl3   1  UNL1       -0.3326
     35 H           6.8213   -1.2261   19.5864 H       1  UNL1        0.1468
     36 C           7.1880   -0.0713   21.3830 C.ar    1  UNL1        0.0476
     37 C           8.0177   -0.3901   22.5914 C.ar    1  UNL1        0.0350
     38 C           7.6965    0.2467   23.9110 C.ar    1  UNL1        0.1001
     39 N           6.5456    1.2022   24.0223 N.ar    1  UNL1       -0.2437
     40 C           5.7159    1.5210   22.8139 C.ar    1  UNL1        0.0833
     41 C           4.5650    2.4766   22.9252 C.ar    1  UNL1        0.0305
     42 C           3.7354    2.7954   21.7169 C.ar    1  UNL1        0.0592
     43 CL          2.5845    3.7510   21.8282 Cl      1  UNL1       -0.0822
     44 C           4.0566    2.1587   20.3973 C.ar    1  UNL1        0.0115
     45 C           5.2075    1.2031   20.2860 C.ar    1  UNL1        0.0036
     46 C           6.0372    0.8843   21.4943 C.ar    1  UNL1        0.0309
     47 O           5.8730   -3.8821   21.4379 O.3     1  UNL1       -0.4523
     48 C           8.4619   -3.8611   21.2207 C.3     1  UNL1        0.1212
     49 C           7.2188   -4.3635   21.8931 C.2     1  UNL1        0.3174
     50 O           7.3214   -5.3474   23.0208 O.2     1  UNL1       -0.2501
     51 O           1.6148    0.7231   24.2504 O.3     1  UNL1       -0.4523
     52 C           0.9629    1.8173   25.0426 C.2     1  UNL1        0.3174
     53 C          -0.2960    1.5401   25.8096 C.3     1  UNL1        0.1212
     54 O           1.5698    3.1889   25.0677 O.2     1  UNL1       -0.2501
@<TRIPOS>BOND
     1    48    49    1
     2    49    50    2
     3    49    47    1
     4     1    47    1
     5     1     2    1
     6     3     2    1
     7     3     4    1
     8     4     5    1
     9     5    51    1
    10    51    52    1
    11    52    53    1
    12    52    54    2
    13     5     6    1
    14     7     6    1
    15     7     8    1
    16     8     9    1
    17     9    10    1
    18     9    11    1
    19    11    12    1
    20    12    13    1
    21    13    14    1
    22     4    15    1
    23    15    16    1
    24    16    17    1
    25    18    17    1
    26    18    23    1
    27    23    24    1
    28    23    25    1
    29    25    26    1
    30    26    27    1
    31    27    28    1
    32    28    30    1
    33    30    31    1
    34    31    32    1
    35    32    33    1
    36    33    34    1
    37    34    36    1
    38    36    37   ar
    39    37    38   ar
    40    38    39   ar
    41    39    40   ar
    42    40    41   ar
    43    41    42   ar
    44    42    43    1
    45    42    44   ar
    46    44    45   ar
    47    45    46   ar
    48    18    19    1
    49    19    20    1
    50    19     1    1
    51    13     3    1
    52    19    15    1
    53    13     7    1
    54    46    36   ar
    55    46    40   ar
    56    10    21    1
    57    10    22    1
    58    28    29    1
    59    34    35    1
@<TRIPOS>MOLECULE
*****
 54 59 0 0 0
SMALL
GASTEIGER

@<TRIPOS>ATOM
      1 C           2.2919   -0.6507   21.4420 C.3     1  UNL1        0.1686
      2 C           1.7204    0.2405   22.5045 C.3     1  UNL1        0.0437
      3 C           2.2389    0.1601   23.9098 C.3     1  UNL1        0.0071
      4 C           3.3290   -0.8116   24.2525 C.3     1  UNL1        0.0404
      5 C           3.8475   -0.8920   25.6577 C.3     1  UNL1        0.1687
      6 C           3.2760   -0.0008   26.7202 C.3     1  UNL1        0.0437
      7 C           2.1858    0.9709   26.3775 C.3     1  UNL1        0.0049
      8 C           1.6143    1.8622   27.4401 C.3     1  UNL1        0.0156
      9 C           0.5242    2.8338   27.0973 C.3     1  UNL1        0.0508
     10 N          -0.0475    3.7251   28.1599 N.3     1  UNL1       -0.3222
     11 C           0.0056    2.9143   25.6921 C.3     1  UNL1        0.0155
     12 C           0.5772    2.0230   24.6296 C.3     1  UNL1        0.0014
     13 C           1.6673    1.0514   24.9723 C.3     1  UNL1        0.0004
     14 C           1.1487    1.1318   23.5671 C.3     1  UNL1        0.0000
     15 C           3.9006   -1.7029   23.1899 C.3     1  UNL1        0.0068
     16 C           4.9732   -2.7506   23.2289 C.3     1  UNL1        0.0002
     17 C           5.1177   -3.3177   21.8478 C.3     1  UNL1        0.0001
     18 C           4.1342   -2.6204   20.9553 C.3     1  UNL1        0.0034
     19 C           3.3821   -1.6224   21.7847 C.3     1  UNL1        0.0370
     20 C           2.9666   -1.6548   20.3438 C.3     1  UNL1        0.0036
     21 H          -0.7725    4.3166   27.7537 H       1  UNL1        0.1188
     22 H           0.6925    4.3112   28.5464 H       1  UNL1        0.1188
     23 C           3.9376   -2.8763   19.4904 C.3     1  UNL1        0.0002
     24 C           3.2991   -4.1536   19.0311 C.3     1  UNL1        0.0000
     25 C           4.3795   -1.8549   18.4847 C.3     1  UNL1        0.0014
     26 C           5.8356   -1.5240   18.3419 C.3     1  UNL1        0.0171
     27 C           6.8698   -2.5944   18.5285 C.3     1  UNL1        0.0686
     28 N           8.3268   -2.2587   18.4081 N.3     1  UNL1       -0.2975
     29 H           8.3813   -1.3283   17.9937 H       1  UNL1        0.1232
     30 C           9.1956   -2.2399   19.6307 C.3     1  UNL1        0.0686
     31 C           8.6187   -2.6047   20.9664 C.3     1  UNL1        0.0188
     32 C           8.2526   -1.5280   21.9445 C.3     1  UNL1        0.0226
     33 C           7.4864   -0.3239   21.4825 C.3     1  UNL1        0.0871
     34 N           6.6555    0.4559   22.4579 N.pl3   1  UNL1       -0.3326
     35 H           6.8025    0.3493   23.4255 H       1  UNL1        0.1468
     36 C           5.6004    1.3982   21.9590 C.ar    1  UNL1        0.0476
     37 C           5.2160    1.3941   20.5092 C.ar    1  UNL1        0.0350
     38 C           4.1609    2.3364   20.0102 C.ar    1  UNL1        0.1001
     39 N           3.4903    3.2829   20.9612 N.ar    1  UNL1       -0.2437
     40 C           3.8748    3.2871   22.4112 C.ar    1  UNL1        0.0833
     41 C           3.2042    4.2336   23.3622 C.ar    1  UNL1        0.0305
     42 C           3.5885    4.2378   24.8120 C.ar    1  UNL1        0.0592
     43 CL          2.9179    5.1843   25.7631 Cl      1  UNL1       -0.0822
     44 C           4.6436    3.2954   25.3109 C.ar    1  UNL1        0.0115
     45 C           5.3142    2.3490   24.3599 C.ar    1  UNL1        0.0036
     46 C           4.9298    2.3447   22.9100 C.ar    1  UNL1        0.0309
     47 O           1.7734   -0.5702   20.0368 O.3     1  UNL1       -0.4523
     48 C           1.0227    1.4300   18.5585 C.3     1  UNL1        0.1212
     49 C           0.7497    0.4641   19.6732 C.2     1  UNL1        0.3174
     50 O          -0.5469    0.5325   20.4242 O.2     1  UNL1       -0.2501
     51 O           4.9377   -1.8638   26.0004 O.3     1  UNL1       -0.4523
     52 C           6.3283   -1.3679   26.2655 C.2     1  UNL1        0.3174
     53 C           7.0085   -1.6992   27.5606 C.3     1  UNL1        0.1212
     54 O           7.0387   -0.5406   25.2354 O.2     1  UNL1       -0.2501
@<TRIPOS>BOND
     1    48    49    1
     2    49    50    2
     3    49    47    1
     4     1    47    1
     5     1     2    1
     6     3     2    1
     7     3     4    1
     8     4     5    1
     9     5    51    1
    10    51    52    1
    11    52    53    1
    12    52    54    2
    13     5     6    1
    14     7     6    1
    15     7     8    1
    16     8     9    1
    17     9    10    1
    18     9    11    1
    19    11    12    1
    20    12    13    1
    21    13    14    1
    22     4    15    1
    23    15    16    1
    24    16    17    1
    25    18    17    1
    26    18    23    1
    27    23    24    1
    28    23    25    1
    29    25    26    1
    30    26    27    1
    31    27    28    1
    32    28    30    1
    33    30    31    1
    34    31    32    1
    35    32    33    1
    36    33    34    1
    37    34    36    1
    38    36    37   ar
    39    37    38   ar
    40    38    39   ar
    41    39    40   ar
    42    40    41   ar
    43    41    42   ar
    44    42    43    1
    45    42    44   ar
    46    44    45   ar
    47    45    46   ar
    48    18    19    1
    49    19    20    1
    50    19     1    1
    51    13     3    1
    52    19    15    1
    53    13     7    1
    54    46    36   ar
    55    46    40   ar
    56    10    21    1
    57    10    22    1
    58    28    29    1
    59    34    35    1
@<TRIPOS>MOLECULE
*****
 54 59 0 0 0
SMALL
GASTEIGER

@<TRIPOS>ATOM
      1 C           5.0868   -3.1608   22.4565 C.3     1  UNL1        0.1686
      2 C           5.2866   -2.7637   23.8891 C.3     1  UNL1        0.0437
      3 C           4.4725   -1.6507   24.4794 C.3     1  UNL1        0.0071
      4 C           3.4586   -0.9348   23.6372 C.3     1  UNL1        0.0404
      5 C           2.6446    0.1782   24.2275 C.3     1  UNL1        0.1687
      6 C           2.8444    0.5753   25.6601 C.3     1  UNL1        0.0437
      7 C           3.8584   -0.1406   26.5024 C.3     1  UNL1        0.0049
      8 C           4.0582    0.2565   27.9350 C.3     1  UNL1        0.0156
      9 C           5.0721   -0.4594   28.7772 C.3     1  UNL1        0.0508
     10 N           5.2720   -0.0623   30.2099 N.3     1  UNL1       -0.3222
     11 C           5.8862   -1.5724   28.1869 C.3     1  UNL1        0.0155
     12 C           5.6863   -1.9695   26.7543 C.3     1  UNL1        0.0014
     13 C           4.6724   -1.2536   25.9121 C.3     1  UNL1        0.0004
     14 C           5.4865   -2.3666   25.3217 C.3     1  UNL1        0.0000
     15 C           3.2588   -1.3319   22.2045 C.3     1  UNL1        0.0068
     16 C           2.3408   -0.8129   21.1379 C.3     1  UNL1        0.0002
     17 C           2.5874   -1.6052   19.8883 C.3     1  UNL1        0.0001
     18 C           3.6579   -2.6138   20.1827 C.3     1  UNL1        0.0034
     19 C           4.0728   -2.4449   21.6142 C.3     1  UNL1        0.0370
     20 C           4.8092   -3.5326   20.8898 C.3     1  UNL1        0.0036
     21 H           5.9939   -0.6493   30.6278 H       1  UNL1        0.1188
     22 H           4.3977   -0.1827   30.7212 H       1  UNL1        0.1188
     23 C           4.2156   -3.6155   19.2153 C.3     1  UNL1        0.0002
     24 C           3.6772   -5.0153   19.1913 C.3     1  UNL1        0.0000
     25 C           5.3116   -3.2172   18.2719 C.3     1  UNL1        0.0014
     26 C           6.0339   -1.9172   18.4674 C.3     1  UNL1        0.0171
     27 C           5.6793   -0.7280   17.6247 C.3     1  UNL1        0.0686
     28 N           6.7083   -0.1149   16.7218 N.3     1  UNL1       -0.2975
     29 H           6.4609   -0.3823   15.7690 H       1  UNL1        0.1232
     30 C           6.9108    1.3713   16.7157 C.3     1  UNL1        0.0686
     31 C           7.0257    2.1178   18.0117 C.3     1  UNL1        0.0188
     32 C           6.0114    3.1643   18.3669 C.3     1  UNL1        0.0226
     33 C           4.5609    2.7973   18.4733 C.3     1  UNL1        0.0871
     34 N           4.0901    1.9172   19.5930 N.pl3   1  UNL1       -0.3326
     35 H           3.6474    1.0609   19.3932 H       1  UNL1        0.1468
     36 C           4.2939    2.3418   21.0172 C.ar    1  UNL1        0.0476
     37 C           3.4603    3.4457   21.5973 C.ar    1  UNL1        0.0350
     38 C           3.6640    3.8703   23.0215 C.ar    1  UNL1        0.1001
     39 N           4.7014    3.1911   23.8655 N.ar    1  UNL1       -0.2437
     40 C           5.5351    2.0872   23.2854 C.ar    1  UNL1        0.0833
     41 C           6.5725    1.4080   24.1294 C.ar    1  UNL1        0.0305
     42 C           7.4062    0.3042   23.5493 C.ar    1  UNL1        0.0592
     43 CL          8.4437   -0.3751   24.3933 Cl      1  UNL1       -0.0822
     44 C           7.2024   -0.1204   22.1252 C.ar    1  UNL1        0.0115
     45 C           6.1650    0.5588   21.2812 C.ar    1  UNL1        0.0036
     46 C           5.3313    1.6626   21.8612 C.ar    1  UNL1        0.0309
     47 O           5.9008   -4.2739   21.8661 O.3     1  UNL1       -0.4523
     48 C           8.4195   -3.6364   21.8723 C.3     1  UNL1        0.1212
     49 C           7.3009   -4.5157   22.3471 C.2     1  UNL1        0.3174
     50 O           7.5823   -5.6370   23.3030 O.2     1  UNL1       -0.2501
     51 O           1.6306    0.8941   23.3852 O.3     1  UNL1       -0.4523
     52 C           0.4915    1.6199   24.0376 C.2     1  UNL1        0.3174
     53 C           0.0489    2.9516   23.5079 C.3     1  UNL1        0.1212
     54 O          -0.2050    1.0139   25.2199 O.2     1  UNL1       -0.2501
@<TRIPOS>BOND
     1    48    49    1
     2    49    50    2
     3    49    47    1
     4     1    47    1
     5     1     2    1
     6     3     2    1
     7     3     4    1
     8     4     5    1
     9     5    51    1
    10    51    52    1
    11    52    53    1
    12    52    54    2
    13     5     6    1
    14     7     6    1
    15     7     8    1
    16     8     9    1
    17     9    10    1
    18     9    11    1
    19    11    12    1
    20    12    13    1
    21    13    14    1
    22     4    15    1
    23    15    16    1
    24    16    17    1
    25    18    17    1
    26    18    23    1
    27    23    24    1
    28    23    25    1
    29    25    26    1
    30    26    27    1
    31    27    28    1
    32    28    30    1
    33    30    31    1
    34    31    32    1
    35    32    33    1
    36    33    34    1
    37    34    36    1
    38    36    37   ar
    39    37    38   ar
    40    38    39   ar
    41    39    40   ar
    42    40    41   ar
    43    41    42   ar
    44    42    43    1
    45    42    44   ar
    46    44    45   ar
    47    45    46   ar
    48    18    19    1
    49    19    20    1
    50    19     1    1
    51    13     3    1
    52    19    15    1
    53    13     7    1
    54    46    36   ar
    55    46    40   ar
    56    10    21    1
    57    10    22    1
    58    28    29    1
    59    34    35    1
@<TRIPOS>MOLECULE
*****
 54 59 0 0 0
SMALL
GASTEIGER

@<TRIPOS>ATOM
      1 C           3.8347   -1.8709   21.9023 C.3     1  UNL1        0.1686
      2 C           4.8387   -2.8156   22.4932 C.3     1  UNL1        0.0437
      3 C           5.2167   -2.6996   23.9402 C.3     1  UNL1        0.0071
      4 C           4.5907   -1.6388   24.7961 C.3     1  UNL1        0.0404
      5 C           4.9688   -1.5227   26.2431 C.3     1  UNL1        0.1687
      6 C           5.9728   -2.4675   26.8340 C.3     1  UNL1        0.0437
      7 C           6.5989   -3.5284   25.9781 C.3     1  UNL1        0.0049
      8 C           7.6029   -4.4731   26.5690 C.3     1  UNL1        0.0156
      9 C           8.2289   -5.5339   25.7131 C.3     1  UNL1        0.0508
     10 N           9.2330   -6.4788   26.3040 N.3     1  UNL1       -0.3222
     11 C           7.8509   -5.6500   24.2661 C.3     1  UNL1        0.0155
     12 C           6.8468   -4.7052   23.6752 C.3     1  UNL1        0.0014
     13 C           6.2208   -3.6444   24.5311 C.3     1  UNL1        0.0004
     14 C           5.8428   -3.7605   23.0842 C.3     1  UNL1        0.0000
     15 C           3.5866   -0.6939   24.2052 C.3     1  UNL1        0.0068
     16 C           2.8084    0.4432   24.7978 C.3     1  UNL1        0.0002
     17 C           1.9494    1.0299   23.7171 C.3     1  UNL1        0.0001
     18 C           2.1968    0.2554   22.4566 C.3     1  UNL1        0.0034
     19 C           3.2086   -0.8100   22.7582 C.3     1  UNL1        0.0370
     20 C           2.7343   -0.8044   21.3352 C.3     1  UNL1        0.0036
     21 H           9.5524   -7.1285   25.5855 H       1  UNL1        0.1188
     22 H           8.8011   -7.0006   27.0666 H       1  UNL1        0.1188
     23 C           1.5464    0.5029   21.1278 C.3     1  UNL1        0.0002
     24 C           0.5908   -0.5049   20.5611 C.3     1  UNL1        0.0000
     25 C           1.8516    1.7582   20.3657 C.3     1  UNL1        0.0014
     26 C           3.0577    1.8210   19.4761 C.3     1  UNL1        0.0171
     27 C           3.0544    1.1078   18.1565 C.3     1  UNL1        0.0686
     28 N           3.9148   -0.1046   17.9571 N.3     1  UNL1       -0.2975
     29 H           3.2839   -0.8980   17.8432 H       1  UNL1        0.1232
     30 C           4.8855   -0.1558   16.8147 C.3     1  UNL1        0.0686
     31 C           6.3496    0.0543   17.0645 C.3     1  UNL1        0.0188
     32 C           6.8184    1.2826   17.7867 C.3     1  UNL1        0.0226
     33 C           6.8993    1.2870   19.2845 C.3     1  UNL1        0.0871
     34 N           6.4074    0.1048   20.0657 N.pl3   1  UNL1       -0.3326
     35 H           5.5056   -0.2539   19.9002 H       1  UNL1        0.1468
     36 C           7.2894   -0.5310   21.0990 C.ar    1  UNL1        0.0476
     37 C           8.1770   -1.6803   20.7230 C.ar    1  UNL1        0.0350
     38 C           9.0591   -2.3162   21.7562 C.ar    1  UNL1        0.1001
     39 N           9.0536   -1.8027   23.1656 N.ar    1  UNL1       -0.2437
     40 C           8.1660   -0.6534   23.5417 C.ar    1  UNL1        0.0833
     41 C           8.1604   -0.1399   24.9511 C.ar    1  UNL1        0.0305
     42 C           7.2729    1.0093   25.3272 C.ar    1  UNL1        0.0592
     43 CL          7.2674    1.5227   26.7365 Cl      1  UNL1       -0.0822
     44 C           6.3909    1.6451   24.2939 C.ar    1  UNL1        0.0115
     45 C           6.3964    1.1316   22.8845 C.ar    1  UNL1        0.0036
     46 C           7.2839   -0.0176   22.5084 C.ar    1  UNL1        0.0309
     47 O           3.4566   -1.9869   20.4553 O.3     1  UNL1       -0.4523
     48 C           3.4180   -4.3508   19.3780 C.3     1  UNL1        0.1212
     49 C           4.1002   -3.0324   19.5935 C.2     1  UNL1        0.3174
     50 O           5.4261   -2.7596   18.9472 O.2     1  UNL1       -0.2501
     51 O           4.3427   -0.4618   27.0990 O.3     1  UNL1       -0.4523
     52 C           3.7094   -0.8310   28.4077 C.2     1  UNL1        0.3174
     53 C           4.5517   -0.9409   29.6440 C.3     1  UNL1        0.1212
     54 O           2.2337   -1.0903   28.4801 O.2     1  UNL1       -0.2501
@<TRIPOS>BOND
     1    48    49    1
     2    49    50    2
     3    49    47    1
     4     1    47    1
     5     1     2    1
     6     3     2    1
     7     3     4    1
     8     4     5    1
     9     5    51    1
    10    51    52    1
    11    52    53    1
    12    52    54    2
    13     5     6    1
    14     7     6    1
    15     7     8    1
    16     8     9    1
    17     9    10    1
    18     9    11    1
    19    11    12    1
    20    12    13    1
    21    13    14    1
    22     4    15    1
    23    15    16    1
    24    16    17    1
    25    18    17    1
    26    18    23    1
    27    23    24    1
    28    23    25    1
    29    25    26    1
    30    26    27    1
    31    27    28    1
    32    28    30    1
    33    30    31    1
    34    31    32    1
    35    32    33    1
    36    33    34    1
    37    34    36    1
    38    36    37   ar
    39    37    38   ar
    40    38    39   ar
    41    39    40   ar
    42    40    41   ar
    43    41    42   ar
    44    42    43    1
    45    42    44   ar
    46    44    45   ar
    47    45    46   ar
    48    18    19    1
    49    19    20    1
    50    19     1    1
    51    13     3    1
    52    19    15    1
    53    13     7    1
    54    46    36   ar
    55    46    40   ar
    56    10    21    1
    57    10    22    1
    58    28    29    1
    59    34    35    1
@<TRIPOS>MOLECULE
*****
 54 59 0 0 0
SMALL
GASTEIGER

@<TRIPOS>ATOM
      1 C           3.1844   -1.2801   21.9074 C.3     1  UNL1        0.1686
      2 C           2.8131   -0.5057   23.1372 C.3     1  UNL1        0.0437
      3 C           3.5095   -0.7824   24.4365 C.3     1  UNL1        0.0071
      4 C           4.5772   -1.8336   24.5062 C.3     1  UNL1        0.0404
      5 C           5.2736   -2.1104   25.8056 C.3     1  UNL1        0.1687
      6 C           4.9022   -1.3360   27.0353 C.3     1  UNL1        0.0437
      7 C           3.8345   -0.2847   26.9657 C.3     1  UNL1        0.0049
      8 C           3.4632    0.4898   28.1955 C.3     1  UNL1        0.0156
      9 C           2.3955    1.5410   28.1258 C.3     1  UNL1        0.0508
     10 N           2.0241    2.3155   29.3556 N.3     1  UNL1       -0.3222
     11 C           1.6991    1.8178   26.8264 C.3     1  UNL1        0.0155
     12 C           2.0704    1.0433   25.5967 C.3     1  UNL1        0.0014
     13 C           3.1381   -0.0079   25.6663 C.3     1  UNL1        0.0004
     14 C           2.4417    0.2689   24.3669 C.3     1  UNL1        0.0000
     15 C           4.9485   -2.6082   23.2764 C.3     1  UNL1        0.0068
     16 C           5.9538   -3.6961   23.0410 C.3     1  UNL1        0.0002
     17 C           5.8788   -4.0918   21.5960 C.3     1  UNL1        0.0001
     18 C           4.8271   -3.2483   20.9385 C.3     1  UNL1        0.0034
     19 C           4.2521   -2.3314   21.9770 C.3     1  UNL1        0.0370
     20 C           3.6463   -2.1663   20.6148 C.3     1  UNL1        0.0036
     21 H           1.2870    2.9826   29.1276 H       1  UNL1        0.1188
     22 H           2.8420    2.8175   29.7011 H       1  UNL1        0.1188
     23 C           4.4215   -3.3109   19.4957 C.3     1  UNL1        0.0002
     24 C           3.3201   -4.2337   19.0655 C.3     1  UNL1        0.0000
     25 C           5.1175   -2.4505   18.4831 C.3     1  UNL1        0.0014
     26 C           4.3296   -1.7933   17.3889 C.3     1  UNL1        0.0171
     27 C           4.0320   -0.3247   17.4571 C.3     1  UNL1        0.0686
     28 N           4.6581    0.5185   18.5281 N.3     1  UNL1       -0.2975
     29 H           5.3757   -0.0546   18.9722 H       1  UNL1        0.1232
     30 C           5.3055    1.8240   18.1723 C.3     1  UNL1        0.0686
     31 C           6.7994    1.9547   18.2082 C.3     1  UNL1        0.0188
     32 C           7.6636    0.7774   17.8660 C.3     1  UNL1        0.0226
     33 C           8.2071   -0.0964   18.9573 C.3     1  UNL1        0.0871
     34 N           7.2798   -0.6839   19.9796 N.pl3   1  UNL1       -0.3326
     35 H           6.4212   -1.0749   19.6983 H       1  UNL1        0.1468
     36 C           7.6607   -0.6757   21.4304 C.ar    1  UNL1        0.0476
     37 C           8.7112   -1.6199   21.9354 C.ar    1  UNL1        0.0350
     38 C           9.0922   -1.6117   23.3862 C.ar    1  UNL1        0.1001
     39 N           8.4226   -0.6593   24.3320 N.ar    1  UNL1       -0.2437
     40 C           7.3721    0.2849   23.8270 C.ar    1  UNL1        0.0833
     41 C           6.7025    1.2373   24.7729 C.ar    1  UNL1        0.0305
     42 C           5.6520    2.1814   24.2680 C.ar    1  UNL1        0.0592
     43 CL          4.9824    3.1338   25.2138 Cl      1  UNL1       -0.0822
     44 C           5.2711    2.1732   22.8172 C.ar    1  UNL1        0.0115
     45 C           5.9407    1.2208   21.8713 C.ar    1  UNL1        0.0036
     46 C           6.9912    0.2767   22.3762 C.ar    1  UNL1        0.0309
     47 O           2.4880   -1.0033   20.6080 O.3     1  UNL1       -0.4523
     48 C           0.2148    0.2401   20.4166 C.3     1  UNL1        0.1212
     49 C           1.7145    0.2691   20.4278 C.2     1  UNL1        0.3174
     50 O           2.4407    1.5707   20.2587 O.2     1  UNL1       -0.2501
     51 O           6.3413   -3.1617   25.8752 O.3     1  UNL1       -0.4523
     52 C           6.8667   -3.6101   27.2067 C.2     1  UNL1        0.3174
     53 C           6.3660   -4.8839   27.8202 C.3     1  UNL1        0.1212
     54 O           7.8928   -2.7844   27.9248 O.2     1  UNL1       -0.2501
@<TRIPOS>BOND
     1    48    49    1
     2    49    50    2
     3    49    47    1
     4     1    47    1
     5     1     2    1
     6     3     2    1
     7     3     4    1
     8     4     5    1
     9     5    51    1
    10    51    52    1
    11    52    53    1
    12    52    54    2
    13     5     6    1
    14     7     6    1
    15     7     8    1
    16     8     9    1
    17     9    10    1
    18     9    11    1
    19    11    12    1
    20    12    13    1
    21    13    14    1
    22     4    15    1
    23    15    16    1
    24    16    17    1
    25    18    17    1
    26    18    23    1
    27    23    24    1
    28    23    25    1
    29    25    26    1
    30    26    27    1
    31    27    28    1
    32    28    30    1
    33    30    31    1
    34    31    32    1
    35    32    33    1
    36    33    34    1
    37    34    36    1
    38    36    37   ar
    39    37    38   ar
    40    38    39   ar
    41    39    40   ar
    42    40    41   ar
    43    41    42   ar
    44    42    43    1
    45    42    44   ar
    46    44    45   ar
    47    45    46   ar
    48    18    19    1
    49    19    20    1
    50    19     1    1
    51    13     3    1
    52    19    15    1
    53    13     7    1
    54    46    36   ar
    55    46    40   ar
    56    10    21    1
    57    10    22    1
    58    28    29    1
    59    34    35    1
@<TRIPOS>MOLECULE
*****
 54 59 0 0 0
SMALL
GASTEIGER

@<TRIPOS>ATOM
      1 C           3.9635   -1.6080   22.8330 C.3     1  UNL1        0.1686
      2 C           3.5582   -0.8458   24.0597 C.3     1  UNL1        0.0437
      3 C           2.4192    0.1281   23.9953 C.3     1  UNL1        0.0071
      4 C           1.6856    0.3399   22.7042 C.3     1  UNL1        0.0404
      5 C           0.5466    1.3138   22.6399 C.3     1  UNL1        0.1687
      6 C           0.1413    2.0760   23.8665 C.3     1  UNL1        0.0437
      7 C           0.8750    1.8643   25.1576 C.3     1  UNL1        0.0049
      8 C           0.4696    2.6265   26.3843 C.3     1  UNL1        0.0156
      9 C           1.2033    2.4147   27.6753 C.3     1  UNL1        0.0508
     10 N           0.7980    3.1769   28.9021 N.3     1  UNL1       -0.3222
     11 C           2.3423    1.4408   27.7397 C.3     1  UNL1        0.0155
     12 C           2.7476    0.6786   26.5131 C.3     1  UNL1        0.0014
     13 C           2.0139    0.8903   25.2220 C.3     1  UNL1        0.0004
     14 C           3.1529   -0.0836   25.2864 C.3     1  UNL1        0.0000
     15 C           2.0909   -0.4224   21.4775 C.3     1  UNL1        0.0068
     16 C           1.5586   -0.4236   20.0752 C.3     1  UNL1        0.0002
     17 C           2.3686   -1.3984   19.2728 C.3     1  UNL1        0.0001
     18 C           3.4015   -1.9995   20.1794 C.3     1  UNL1        0.0034
     19 C           3.2299   -1.3963   21.5419 C.3     1  UNL1        0.0370
     20 C           4.3428   -2.3981   21.4541 C.3     1  UNL1        0.0036
     21 H           1.3993    2.9108   29.6819 H       1  UNL1        0.1188
     22 H          -0.1721    2.9608   29.1316 H       1  UNL1        0.1188
     23 C           4.4262   -3.0240   19.7914 C.3     1  UNL1        0.0002
     24 C           4.0440   -4.4719   19.7055 C.3     1  UNL1        0.0000
     25 C           5.8331   -2.6005   19.4892 C.3     1  UNL1        0.0014
     26 C           6.2225   -2.2385   18.0866 C.3     1  UNL1        0.0171
     27 C           5.8103   -0.9159   17.5115 C.3     1  UNL1        0.0686
     28 N           6.8039   -0.0843   16.7557 N.3     1  UNL1       -0.2975
     29 H           6.3290    0.2536   15.9186 H       1  UNL1        0.1232
     30 C           7.4329    1.1106   17.4088 C.3     1  UNL1        0.0686
     31 C           8.6870    0.9507   18.2161 C.3     1  UNL1        0.0188
     32 C           8.6274    0.3256   19.5783 C.3     1  UNL1        0.0226
     33 C           7.8940    1.0169   20.6893 C.3     1  UNL1        0.0871
     34 N           6.5251    0.5509   21.0881 N.pl3   1  UNL1       -0.3326
     35 H           6.3845   -0.3832   21.3653 H       1  UNL1        0.1468
     36 C           5.3705    1.5082   21.0645 C.ar    1  UNL1        0.0476
     37 C           4.6081    1.7326   19.7924 C.ar    1  UNL1        0.0350
     38 C           3.4535    2.6899   19.7687 C.ar    1  UNL1        0.1001
     39 N           3.0613    3.4227   21.0173 N.ar    1  UNL1       -0.2437
     40 C           3.8237    3.1984   22.2896 C.ar    1  UNL1        0.0833
     41 C           3.4315    3.9312   23.5382 C.ar    1  UNL1        0.0305
     42 C           4.1938    3.7069   24.8104 C.ar    1  UNL1        0.0592
     43 CL          3.8016    4.4398   26.0590 Cl      1  UNL1       -0.0822
     44 C           5.3484    2.7496   24.8339 C.ar    1  UNL1        0.0115
     45 C           5.7406    2.0167   23.5853 C.ar    1  UNL1        0.0036
     46 C           4.9783    2.2411   22.3131 C.ar    1  UNL1        0.0309
     47 O           5.1025   -2.5820   22.8974 O.3     1  UNL1       -0.4523
     48 C           7.3754   -1.6068   23.6931 C.3     1  UNL1        0.1212
     49 C           6.1543   -2.4371   23.9570 C.2     1  UNL1        0.3174
     50 O           5.9849   -3.1224   25.2806 O.2     1  UNL1       -0.2501
     51 O          -0.1871    1.5255   21.3487 O.3     1  UNL1       -0.4523
     52 C          -0.9644    2.7890   21.1263 C.2     1  UNL1        0.3174
     53 C          -0.2722    4.1178   21.1971 C.3     1  UNL1        0.1212
     54 O          -2.4341    2.7235   20.8331 O.2     1  UNL1       -0.2501
@<TRIPOS>BOND
     1    48    49    1
     2    49    50    2
     3    49    47    1
     4     1    47    1
     5     1     2    1
     6     3     2    1
     7     3     4    1
     8     4     5    1
     9     5    51    1
    10    51    52    1
    11    52    53    1
    12    52    54    2
    13     5     6    1
    14     7     6    1
    15     7     8    1
    16     8     9    1
    17     9    10    1
    18     9    11    1
    19    11    12    1
    20    12    13    1
    21    13    14    1
    22     4    15    1
    23    15    16    1
    24    16    17    1
    25    18    17    1
    26    18    23    1
    27    23    24    1
    28    23    25    1
    29    25    26    1
    30    26    27    1
    31    27    28    1
    32    28    30    1
    33    30    31    1
    34    31    32    1
    35    32    33    1
    36    33    34    1
    37    34    36    1
    38    36    37   ar
    39    37    38   ar
    40    38    39   ar
    41    39    40   ar
    42    40    41   ar
    43    41    42   ar
    44    42    43    1
    45    42    44   ar
    46    44    45   ar
    47    45    46   ar
    48    18    19    1
    49    19    20    1
    50    19     1    1
    51    13     3    1
    52    19    15    1
    53    13     7    1
    54    46    36   ar
    55    46    40   ar
    56    10    21    1
    57    10    22    1
    58    28    29    1
    59    34    35    1
@<TRIPOS>MOLECULE
*****
 54 59 0 0 0
SMALL
GASTEIGER

@<TRIPOS>ATOM
      1 C           3.3248   -0.6611   23.1987 C.3     1  UNL1        0.1686
      2 C           3.8302   -0.8152   24.6025 C.3     1  UNL1        0.0437
      3 C           4.8082   -1.9037   24.9323 C.3     1  UNL1        0.0071
      4 C           5.2807   -2.8381   23.8583 C.3     1  UNL1        0.0404
      5 C           6.2587   -3.9266   24.1881 C.3     1  UNL1        0.1687
      6 C           6.7641   -4.0808   25.5919 C.3     1  UNL1        0.0437
      7 C           6.2915   -3.1463   26.6661 C.3     1  UNL1        0.0049
      8 C           6.7969   -3.3005   28.0699 C.3     1  UNL1        0.0156
      9 C           6.3244   -2.3661   29.1439 C.3     1  UNL1        0.0508
     10 N           6.8298   -2.5202   30.5478 N.3     1  UNL1       -0.3222
     11 C           5.3465   -1.2776   28.8141 C.3     1  UNL1        0.0155
     12 C           4.8411   -1.1234   27.4103 C.3     1  UNL1        0.0014
     13 C           5.3136   -2.0578   26.3363 C.3     1  UNL1        0.0004
     14 C           4.3356   -0.9693   26.0065 C.3     1  UNL1        0.0000
     15 C           4.7753   -2.6840   22.4544 C.3     1  UNL1        0.0068
     16 C           5.0595   -3.4488   21.1958 C.3     1  UNL1        0.0002
     17 C           4.2571   -2.8330   20.0881 C.3     1  UNL1        0.0001
     18 C           3.4771   -1.6876   20.6622 C.3     1  UNL1        0.0034
     19 C           3.7974   -1.5955   22.1246 C.3     1  UNL1        0.0370
     20 C           2.8228   -0.5600   21.6472 C.3     1  UNL1        0.0036
     21 H           6.4075   -1.8063   31.1415 H       1  UNL1        0.1188
     22 H           7.8442   -2.4139   30.5576 H       1  UNL1        0.1188
     23 C           2.5412   -0.7916   19.9064 C.3     1  UNL1        0.0002
     24 C           1.0597   -0.9141   20.1070 C.3     1  UNL1        0.0000
     25 C           3.0868    0.2270   18.9499 C.3     1  UNL1        0.0014
     26 C           3.4134   -0.1674   17.5400 C.3     1  UNL1        0.0171
     27 C           4.7986   -0.6246   17.1908 C.3     1  UNL1        0.0686
     28 N           5.6879    0.2474   16.3549 N.3     1  UNL1       -0.2975
     29 H           5.1084    1.0114   16.0071 H       1  UNL1        0.1232
     30 C           6.9098    0.8720   16.9605 C.3     1  UNL1        0.0686
     31 C           6.8627    2.2882   17.4526 C.3     1  UNL1        0.0188
     32 C           5.8012    2.7093   18.4251 C.3     1  UNL1        0.0226
     33 C           6.1065    2.7612   19.8928 C.3     1  UNL1        0.0871
     34 N           5.6259    1.6659   20.7980 N.pl3   1  UNL1       -0.3326
     35 H           4.7005    1.6753   21.1337 H       1  UNL1        0.1468
     36 C           6.5554    0.5563   21.1916 C.ar    1  UNL1        0.0476
     37 C           7.0359   -0.4210   20.1602 C.ar    1  UNL1        0.0350
     38 C           7.9654   -1.5306   20.5537 C.ar    1  UNL1        0.1001
     39 N           8.4144   -1.6629   21.9788 N.ar    1  UNL1       -0.2437
     40 C           7.9338   -0.6855   23.0104 C.ar    1  UNL1        0.0833
     41 C           8.3828   -0.8177   24.4355 C.ar    1  UNL1        0.0305
     42 C           7.9023    0.1595   25.4670 C.ar    1  UNL1        0.0592
     43 CL          8.3512    0.0273   26.8921 Cl      1  UNL1       -0.0822
     44 C           6.9728    1.2691   25.0733 C.ar    1  UNL1        0.0115
     45 C           6.5239    1.4013   23.6482 C.ar    1  UNL1        0.0036
     46 C           7.0044    0.4241   22.6167 C.ar    1  UNL1        0.0309
     47 O           2.3469    0.4274   22.8689 O.3     1  UNL1       -0.4523
     48 C           0.5250    1.0587   24.6102 C.3     1  UNL1        0.1212
     49 C           1.8433    1.3363   23.9507 C.2     1  UNL1        0.3174
     50 O           2.6582    2.5228   24.3731 O.2     1  UNL1       -0.2501
     51 O           6.7312   -4.8611   23.1140 O.3     1  UNL1       -0.4523
     52 C           8.0323   -5.5903   23.2734 C.2     1  UNL1        0.3174
     53 C           9.3270   -4.8810   23.0079 C.3     1  UNL1        0.1212
     54 O           8.0386   -7.0289   23.6983 O.2     1  UNL1       -0.2501
@<TRIPOS>BOND
     1    48    49    1
     2    49    50    2
     3    49    47    1
     4     1    47    1
     5     1     2    1
     6     3     2    1
     7     3     4    1
     8     4     5    1
     9     5    51    1
    10    51    52    1
    11    52    53    1
    12    52    54    2
    13     5     6    1
    14     7     6    1
    15     7     8    1
    16     8     9    1
    17     9    10    1
    18     9    11    1
    19    11    12    1
    20    12    13    1
    21    13    14    1
    22     4    15    1
    23    15    16    1
    24    16    17    1
    25    18    17    1
    26    18    23    1
    27    23    24    1
    28    23    25    1
    29    25    26    1
    30    26    27    1
    31    27    28    1
    32    28    30    1
    33    30    31    1
    34    31    32    1
    35    32    33    1
    36    33    34    1
    37    34    36    1
    38    36    37   ar
    39    37    38   ar
    40    38    39   ar
    41    39    40   ar
    42    40    41   ar
    43    41    42   ar
    44    42    43    1
    45    42    44   ar
    46    44    45   ar
    47    45    46   ar
    48    18    19    1
    49    19    20    1
    50    19     1    1
    51    13     3    1
    52    19    15    1
    53    13     7    1
    54    46    36   ar
    55    46    40   ar
    56    10    21    1
    57    10    22    1
    58    28    29    1
    59    34    35    1
