@<TRIPOS>MOLECULE
*****
 33 36 0 0 0
SMALL
GASTEIGER

@<TRIPOS>ATOM
      1 N           6.3168   -2.4796   24.5212 N.pl3   1  UNL1       -0.2847
      2 C           4.8341   -2.3660   24.3243 C.3     1  UNL1        0.1141
      3 C           4.2843   -1.4217   23.2967 C.3     1  UNL1        0.1149
      4 N           5.2170   -0.5911   22.4660 N.am    1  UNL1       -0.2760
      5 C           4.6671    0.3532   21.4384 C.2     1  UNL1        0.2257
      6 O           5.5998    1.1839   20.6078 O.2     1  UNL1       -0.2749
      7 C           6.6997   -0.7047   22.6629 C.3     1  UNL1        0.1149
      8 C           7.2495   -1.6490   23.6905 C.3     1  UNL1        0.1141
      9 C           3.1844    0.4669   21.2415 C.3     1  UNL1        0.0853
     10 C           2.4083    1.5180   21.9783 C.3     1  UNL1        0.0096
     11 C           0.9256    1.6316   21.7814 C.3     1  UNL1        0.0005
     12 C           0.2191    0.6941   20.8476 C.3     1  UNL1        0.0005
     13 C           0.9951   -0.3570   20.1108 C.3     1  UNL1        0.0096
     14 C           2.4778   -0.4706   20.3077 C.3     1  UNL1        0.0851
     15 C           3.2539   -1.5217   19.5709 C.2     1  UNL1        0.2231
     16 O           3.6625   -1.2915   18.1461 O.2     1  UNL1       -0.2751
     17 N           3.6213   -2.8030   20.2589 N.am    1  UNL1       -0.2959
     18 H           3.3531   -2.9541   21.1940 H       1  UNL1        0.1502
     19 C           4.3974   -3.8541   19.5220 C.3     1  UNL1        0.1364
     20 C           4.6917   -5.0969   18.7356 C.3     1  UNL1        0.0353
     21 C           3.2797   -4.7715   19.1232 C.3     1  UNL1        0.0353
     22 C           5.7846   -3.3017   19.6650 C.1     1  UNL1        0.0896
     23 N           7.1719   -2.7495   19.8080 N.1     1  UNL1       -0.1943
     24 C           7.5496   -5.4574   26.6841 C.ar    1  UNL1        0.0415
     25 C           7.8764   -4.2965   27.5761 C.ar    1  UNL1        0.1040
     26 N           7.4544   -3.0397   26.8743 N.ar    1  UNL1       -0.2228
     27 C           6.8667   -3.4239   25.5488 C.ar    1  UNL1        0.1629
     28 S           6.9256   -4.9181   25.4312 S.2     1  UNL1       -0.0549
     29 C           7.6795   -7.2348   25.5334 C.3     1  UNL1        0.0202
     30 C           7.8024   -6.9037   26.9912 C.3     1  UNL1        0.1051
     31 C           7.9254   -6.5727   28.4491 C.3     1  UNL1        0.0202
     32 C           8.0552   -8.3500   27.2984 C.1     1  UNL1        0.0758
     33 N           8.3080   -9.7963   27.6054 N.1     1  UNL1       -0.1956
@<TRIPOS>BOND
     1    29    30    1
     2    30    31    1
     3    30    32    1
     4    32    33    3
     5    30    24    1
     6    24    25   ar
     7    25    26   ar
     8    26    27   ar
     9    27     1    1
    10     1     2    1
    11     2     3    1
    12     3     4    1
    13     4     5   am
    14     5     6    2
    15     9     5    1
    16     9    10    1
    17    10    11    1
    18    11    12    1
    19    12    13    1
    20    13    14    1
    21    14    15    1
    22    15    16    2
    23    15    17   am
    24    17    19    1
    25    19    22    1
    26    22    23    3
    27    19    20    1
    28    20    21    1
    29     4     7    1
    30     7     8    1
    31    27    28   ar
    32    28    24   ar
    33     8     1    1
    34    14     9    1
    35    21    19    1
    36    17    18    1
@<TRIPOS>MOLECULE
*****
 33 36 0 0 0
SMALL
GASTEIGER

@<TRIPOS>ATOM
      1 N           6.3685   -3.1158   21.0091 N.pl3   1  UNL1       -0.2847
      2 C           6.8809   -1.7212   20.8029 C.3     1  UNL1        0.1141
      3 C           6.4116   -0.9160   19.6276 C.3     1  UNL1        0.1149
      4 N           5.4298   -1.5053   18.6586 N.am    1  UNL1       -0.2760
      5 C           4.9605   -0.6999   17.4833 C.2     1  UNL1        0.2257
      6 O           3.9788   -1.2892   16.5144 O.2     1  UNL1       -0.2749
      7 C           4.9175   -2.8998   18.8649 C.3     1  UNL1        0.1149
      8 C           5.3868   -3.7051   20.0401 C.3     1  UNL1        0.1141
      9 C           5.4729    0.6947   17.2771 C.3     1  UNL1        0.0853
     10 C           6.6143    0.9428   16.3360 C.3     1  UNL1        0.0096
     11 C           7.1267    2.3375   16.1298 C.3     1  UNL1        0.0005
     12 C           6.4976    3.4839   16.8646 C.3     1  UNL1        0.0005
     13 C           5.3562    3.2357   17.8057 C.3     1  UNL1        0.0096
     14 C           4.8439    1.8412   18.0120 C.3     1  UNL1        0.0851
     15 C           3.7025    1.5930   18.9530 C.2     1  UNL1        0.2231
     16 O           3.7287    2.1772   20.3344 O.2     1  UNL1       -0.2751
     17 N           2.5348    0.7607   18.5128 N.am    1  UNL1       -0.2959
     18 H           2.5176    0.3772   17.6062 H       1  UNL1        0.1502
     19 C           1.3934    0.5125   19.4539 C.3     1  UNL1        0.1364
     20 C           0.5354   -0.1641   20.4814 C.3     1  UNL1        0.0353
     21 C           1.8129   -0.8075   20.0297 C.3     1  UNL1        0.0353
     22 C           0.5776    1.7463   19.2049 C.1     1  UNL1        0.0896
     23 N          -0.2384    2.9801   18.9559 N.1     1  UNL1       -0.1943
     24 C           7.0883   -4.7847   24.4387 C.ar    1  UNL1        0.0415
     25 C           8.0319   -5.5362   23.5470 C.ar    1  UNL1        0.1040
     26 N           7.8771   -5.0024   22.1538 N.ar    1  UNL1       -0.2228
     27 C           6.8379   -3.9211   22.1844 C.ar    1  UNL1        0.1629
     28 S           6.3504   -3.7866   23.5966 S.2     1  UNL1       -0.0549
     29 C           6.5360   -3.5517   26.0742 C.3     1  UNL1        0.0202
     30 C           6.9134   -4.9946   25.9137 C.3     1  UNL1        0.1051
     31 C           7.2909   -6.4374   25.7531 C.3     1  UNL1        0.0202
     32 C           6.7385   -5.2044   27.3886 C.1     1  UNL1        0.0758
     33 N           6.5636   -5.4143   28.8634 N.1     1  UNL1       -0.1956
@<TRIPOS>BOND
     1    29    30    1
     2    30    31    1
     3    30    32    1
     4    32    33    3
     5    30    24    1
     6    24    25   ar
     7    25    26   ar
     8    26    27   ar
     9    27     1    1
    10     1     2    1
    11     2     3    1
    12     3     4    1
    13     4     5   am
    14     5     6    2
    15     9     5    1
    16     9    10    1
    17    10    11    1
    18    11    12    1
    19    12    13    1
    20    13    14    1
    21    14    15    1
    22    15    16    2
    23    15    17   am
    24    17    19    1
    25    19    22    1
    26    22    23    3
    27    19    20    1
    28    20    21    1
    29     4     7    1
    30     7     8    1
    31    27    28   ar
    32    28    24   ar
    33     8     1    1
    34    14     9    1
    35    21    19    1
    36    17    18    1
@<TRIPOS>MOLECULE
*****
 33 36 0 0 0
SMALL
GASTEIGER

@<TRIPOS>ATOM
      1 N           5.4067   -0.9801   26.2297 N.pl3   1  UNL1       -0.2847
      2 C           3.9909   -0.9620   25.7348 C.3     1  UNL1        0.1141
      3 C           3.6889   -0.4910   24.3431 C.3     1  UNL1        0.1149
      4 N           4.8028   -0.0382   23.4463 N.am    1  UNL1       -0.2760
      5 C           4.5008    0.4329   22.0545 C.2     1  UNL1        0.2257
      6 O           5.6146    0.8857   21.1577 O.2     1  UNL1       -0.2749
      7 C           6.2186   -0.0563   23.9412 C.3     1  UNL1        0.1149
      8 C           6.5206   -0.5273   25.3329 C.3     1  UNL1        0.1141
      9 C           3.0849    0.4510   21.5596 C.3     1  UNL1        0.0853
     10 C           2.1974    1.6202   21.8683 C.3     1  UNL1        0.0096
     11 C           0.7815    1.6384   21.3733 C.3     1  UNL1        0.0005
     12 C           0.2532    0.4873   20.5696 C.3     1  UNL1        0.0005
     13 C           1.1407   -0.6819   20.2609 C.3     1  UNL1        0.0096
     14 C           2.5565   -0.7001   20.7559 C.3     1  UNL1        0.0851
     15 C           3.4440   -1.8693   20.4471 C.2     1  UNL1        0.2231
     16 O           4.4070   -2.3734   21.4808 O.2     1  UNL1       -0.2751
     17 N           3.3685   -2.5344   19.1048 N.am    1  UNL1       -0.2959
     18 H           2.7364   -2.2035   18.4264 H       1  UNL1        0.1502
     19 C           4.2560   -3.7036   18.7961 C.3     1  UNL1        0.1364
     20 C           4.7347   -5.1214   18.6935 C.3     1  UNL1        0.0353
     21 C           3.3872   -4.8256   19.2822 C.3     1  UNL1        0.0353
     22 C           5.4330   -2.9877   18.2027 C.1     1  UNL1        0.0896
     23 N           6.6100   -2.2718   17.6093 N.1     1  UNL1       -0.1943
     24 C           6.2570   -2.8762   29.5081 C.ar    1  UNL1        0.0415
     25 C           6.0900   -1.4755   30.0183 C.ar    1  UNL1        0.1040
     26 N           5.7511   -0.5948   28.8524 N.ar    1  UNL1       -0.2228
     27 C           5.7087   -1.4511   27.6215 C.ar    1  UNL1        0.1629
     28 S           6.0214   -2.8611   28.0268 S.2     1  UNL1       -0.0549
     29 C           6.6401   -4.9208   29.0923 C.3     1  UNL1        0.0202
     30 C           6.5995   -4.0805   30.3342 C.3     1  UNL1        0.1051
     31 C           6.5589   -3.2402   31.5760 C.3     1  UNL1        0.0202
     32 C           6.9420   -5.2848   31.1602 C.1     1  UNL1        0.0758
     33 N           7.2845   -6.4890   31.9862 N.1     1  UNL1       -0.1956
@<TRIPOS>BOND
     1    29    30    1
     2    30    31    1
     3    30    32    1
     4    32    33    3
     5    30    24    1
     6    24    25   ar
     7    25    26   ar
     8    26    27   ar
     9    27     1    1
    10     1     2    1
    11     2     3    1
    12     3     4    1
    13     4     5   am
    14     5     6    2
    15     9     5    1
    16     9    10    1
    17    10    11    1
    18    11    12    1
    19    12    13    1
    20    13    14    1
    21    14    15    1
    22    15    16    2
    23    15    17   am
    24    17    19    1
    25    19    22    1
    26    22    23    3
    27    19    20    1
    28    20    21    1
    29     4     7    1
    30     7     8    1
    31    27    28   ar
    32    28    24   ar
    33     8     1    1
    34    14     9    1
    35    21    19    1
    36    17    18    1
@<TRIPOS>MOLECULE
*****
 33 36 0 0 0
SMALL
GASTEIGER

@<TRIPOS>ATOM
      1 N         -13.9556   -0.5879   18.0456 N.pl3   1  UNL1       -0.2847
      2 C         -12.9214   -1.4535   17.3889 C.3     1  UNL1        0.1141
      3 C         -12.6277   -2.8183   17.9373 C.3     1  UNL1        0.1149
      4 N         -13.3681   -3.3176   19.1425 N.am    1  UNL1       -0.2760
      5 C         -13.0743   -4.6825   19.6910 C.2     1  UNL1        0.2257
      6 O         -13.8147   -5.1818   20.8962 O.2     1  UNL1       -0.2749
      7 C         -14.4023   -2.4521   19.7992 C.3     1  UNL1        0.1149
      8 C         -14.6960   -1.0873   19.2507 C.3     1  UNL1        0.1141
      9 C         -12.0401   -5.5481   19.0343 C.3     1  UNL1        0.0853
     10 C         -10.5848   -5.2101   19.1676 C.3     1  UNL1        0.0096
     11 C          -9.5506   -6.0757   18.5109 C.3     1  UNL1        0.0005
     12 C          -9.9718   -7.2792   17.7209 C.3     1  UNL1        0.0005
     13 C         -11.4271   -7.6172   17.5876 C.3     1  UNL1        0.0096
     14 C         -12.4613   -6.7516   18.2443 C.3     1  UNL1        0.0851
     15 C         -13.9166   -7.0896   18.1110 C.2     1  UNL1        0.2231
     16 O         -14.6115   -6.9067   16.7942 O.2     1  UNL1       -0.2751
     17 N         -14.6771   -7.6105   19.2943 N.am    1  UNL1       -0.2959
     18 H         -14.2210   -7.7305   20.1585 H       1  UNL1        0.1502
     19 C         -16.1324   -7.9485   19.1610 C.3     1  UNL1        0.1364
     20 C         -17.6236   -7.7867   19.1703 C.3     1  UNL1        0.0353
     21 C         -16.7412   -6.6269   19.5254 C.3     1  UNL1        0.0353
     22 C         -16.0291   -9.3874   18.7503 C.1     1  UNL1        0.0896
     23 N         -15.9258  -10.8264   18.3397 N.1     1  UNL1       -0.1943
     24 C         -14.9622    3.0904   17.3232 C.ar    1  UNL1        0.0415
     25 C         -14.4407    2.6641   15.9829 C.ar    1  UNL1        0.1040
     26 N         -14.0002    1.2343   16.0904 N.ar    1  UNL1       -0.2228
     27 C         -14.2494    0.7770   17.4971 C.ar    1  UNL1        0.1629
     28 S         -14.8440    1.9241   18.2590 S.2     1  UNL1       -0.0549
     29 C         -14.2079    5.0719   17.2535 C.3     1  UNL1        0.0202
     30 C         -15.5065    4.4453   17.6672 C.3     1  UNL1        0.1051
     31 C         -16.8050    3.8186   18.0809 C.3     1  UNL1        0.0202
     32 C         -16.0507    5.8001   18.0113 C.1     1  UNL1        0.0758
     33 N         -16.5949    7.1548   18.3553 N.1     1  UNL1       -0.1956
@<TRIPOS>BOND
     1    29    30    1
     2    30    31    1
     3    30    32    1
     4    32    33    3
     5    30    24    1
     6    24    25   ar
     7    25    26   ar
     8    26    27   ar
     9    27     1    1
    10     1     2    1
    11     2     3    1
    12     3     4    1
    13     4     5   am
    14     5     6    2
    15     9     5    1
    16     9    10    1
    17    10    11    1
    18    11    12    1
    19    12    13    1
    20    13    14    1
    21    14    15    1
    22    15    16    2
    23    15    17   am
    24    17    19    1
    25    19    22    1
    26    22    23    3
    27    19    20    1
    28    20    21    1
    29     4     7    1
    30     7     8    1
    31    27    28   ar
    32    28    24   ar
    33     8     1    1
    34    14     9    1
    35    21    19    1
    36    17    18    1
@<TRIPOS>MOLECULE
*****
 33 36 0 0 0
SMALL
GASTEIGER

@<TRIPOS>ATOM
      1 N           1.2639    2.0032   19.9586 N.pl3   1  UNL1       -0.2847
      2 C           2.7100    2.3756   20.1005 C.3     1  UNL1        0.1141
      3 C           3.7404    1.7299   19.2223 C.3     1  UNL1        0.1149
      4 N           3.3248    0.7118   18.2022 N.am    1  UNL1       -0.2760
      5 C           4.3553    0.0661   17.3239 C.2     1  UNL1        0.2257
      6 O           3.9396   -0.9520   16.3038 O.2     1  UNL1       -0.2749
      7 C           1.8787    0.3394   18.0602 C.3     1  UNL1        0.1149
      8 C           0.8483    0.9851   18.9384 C.3     1  UNL1        0.1141
      9 C           5.8013    0.4386   17.4659 C.3     1  UNL1        0.0853
     10 C           6.3851    1.5202   16.6061 C.3     1  UNL1        0.0096
     11 C           7.8312    1.8926   16.7481 C.3     1  UNL1        0.0005
     12 C           8.6935    1.1834   17.7498 C.3     1  UNL1        0.0005
     13 C           8.1097    0.1018   18.6096 C.3     1  UNL1        0.0096
     14 C           6.6636   -0.2707   18.4677 C.3     1  UNL1        0.0851
     15 C           6.0799   -1.3523   19.3274 C.2     1  UNL1        0.2231
     16 O           5.9606   -1.1503   20.8090 O.2     1  UNL1       -0.2751
     17 N           5.6153   -2.6359   18.7057 N.am    1  UNL1       -0.2959
     18 H           5.6935   -2.7684   17.7333 H       1  UNL1        0.1502
     19 C           5.0315   -3.7175   19.5655 C.3     1  UNL1        0.1364
     20 C           4.0180   -4.6373   20.1792 C.3     1  UNL1        0.0353
     21 C           3.5914   -3.6273   19.1556 C.3     1  UNL1        0.0353
     22 C           6.2688   -4.1834   20.2740 C.1     1  UNL1        0.0896
     23 N           7.5061   -4.6494   20.9825 N.1     1  UNL1       -0.1943
     24 C          -1.8958    3.3827   21.7414 C.ar    1  UNL1        0.0415
     25 C          -0.8088    3.9022   22.6350 C.ar    1  UNL1        0.1040
     26 N           0.5071    3.4487   22.0759 N.ar    1  UNL1       -0.2228
     27 C           0.2334    2.6489   20.8368 C.ar    1  UNL1        0.1629
     28 S          -1.2517    2.6081   20.6301 S.2     1  UNL1       -0.0549
     29 C          -3.5852    3.3826   20.4584 C.3     1  UNL1        0.0202
     30 C          -3.3685    3.5997   21.9267 C.3     1  UNL1        0.1051
     31 C          -3.1517    3.8169   23.3950 C.3     1  UNL1        0.0202
     32 C          -4.8411    3.8168   22.1119 C.1     1  UNL1        0.0758
     33 N          -6.3136    4.0337   22.2972 N.1     1  UNL1       -0.1956
@<TRIPOS>BOND
     1    29    30    1
     2    30    31    1
     3    30    32    1
     4    32    33    3
     5    30    24    1
     6    24    25   ar
     7    25    26   ar
     8    26    27   ar
     9    27     1    1
    10     1     2    1
    11     2     3    1
    12     3     4    1
    13     4     5   am
    14     5     6    2
    15     9     5    1
    16     9    10    1
    17    10    11    1
    18    11    12    1
    19    12    13    1
    20    13    14    1
    21    14    15    1
    22    15    16    2
    23    15    17   am
    24    17    19    1
    25    19    22    1
    26    22    23    3
    27    19    20    1
    28    20    21    1
    29     4     7    1
    30     7     8    1
    31    27    28   ar
    32    28    24   ar
    33     8     1    1
    34    14     9    1
    35    21    19    1
    36    17    18    1
@<TRIPOS>MOLECULE
*****
 33 36 0 0 0
SMALL
GASTEIGER

@<TRIPOS>ATOM
      1 N           0.5631    2.9144   19.6942 N.pl3   1  UNL1       -0.2847
      2 C           1.3829    3.0266   18.4431 C.3     1  UNL1        0.1141
      3 C           2.8300    2.6318   18.4568 C.3     1  UNL1        0.1149
      4 N           3.4572    2.1250   19.7216 N.am    1  UNL1       -0.2760
      5 C           4.9043    1.7302   19.7353 C.2     1  UNL1        0.2257
      6 O           5.5315    1.2234   21.0001 O.2     1  UNL1       -0.2749
      7 C           2.6373    2.0128   20.9727 C.3     1  UNL1        0.1149
      8 C           1.1903    2.4075   20.9590 C.3     1  UNL1        0.1141
      9 C           5.7241    1.8424   18.4843 C.3     1  UNL1        0.0853
     10 C           6.5922    3.0453   18.2617 C.3     1  UNL1        0.0096
     11 C           7.4121    3.1574   17.0106 C.3     1  UNL1        0.0005
     12 C           7.3639    2.0667   15.9820 C.3     1  UNL1        0.0005
     13 C           6.4958    0.8638   16.2045 C.3     1  UNL1        0.0096
     14 C           5.6759    0.7517   17.4556 C.3     1  UNL1        0.0851
     15 C           4.8078   -0.4512   17.6781 C.2     1  UNL1        0.2231
     16 O           3.7331   -0.7938   16.6893 O.2     1  UNL1       -0.2751
     17 N           5.0144   -1.3115   18.8894 N.am    1  UNL1       -0.2959
     18 H           5.7198   -1.0867   19.5383 H       1  UNL1        0.1502
     19 C           4.1463   -2.5144   19.1119 C.3     1  UNL1        0.1364
     20 C           3.7026   -3.9470   19.1382 C.3     1  UNL1        0.0353
     21 C           5.0668   -3.5937   18.6243 C.3     1  UNL1        0.0353
     22 C           2.9244   -1.8528   19.6768 C.1     1  UNL1        0.0896
     23 N           1.7023   -1.1914   20.2416 N.1     1  UNL1       -0.1943
     24 C          -3.1694    3.7268   20.3826 C.ar    1  UNL1        0.0415
     25 C          -3.0522    4.1063   18.9361 C.ar    1  UNL1        0.1040
     26 N          -1.6398    3.8482   18.5022 N.ar    1  UNL1       -0.2228
     27 C          -0.8840    3.3091   19.6805 C.ar    1  UNL1        0.1629
     28 S          -1.8294    3.2341   20.8426 S.2     1  UNL1       -0.0549
     29 C          -3.5653    4.0334   22.4440 C.3     1  UNL1        0.0202
     30 C          -4.4090    3.8231   21.2217 C.3     1  UNL1        0.1051
     31 C          -5.2528    3.6128   19.9995 C.3     1  UNL1        0.0202
     32 C          -5.6487    3.9194   22.0609 C.1     1  UNL1        0.0758
     33 N          -6.8882    4.0156   22.8999 N.1     1  UNL1       -0.1956
@<TRIPOS>BOND
     1    29    30    1
     2    30    31    1
     3    30    32    1
     4    32    33    3
     5    30    24    1
     6    24    25   ar
     7    25    26   ar
     8    26    27   ar
     9    27     1    1
    10     1     2    1
    11     2     3    1
    12     3     4    1
    13     4     5   am
    14     5     6    2
    15     9     5    1
    16     9    10    1
    17    10    11    1
    18    11    12    1
    19    12    13    1
    20    13    14    1
    21    14    15    1
    22    15    16    2
    23    15    17   am
    24    17    19    1
    25    19    22    1
    26    22    23    3
    27    19    20    1
    28    20    21    1
    29     4     7    1
    30     7     8    1
    31    27    28   ar
    32    28    24   ar
    33     8     1    1
    34    14     9    1
    35    21    19    1
    36    17    18    1
@<TRIPOS>MOLECULE
*****
 33 36 0 0 0
SMALL
GASTEIGER

@<TRIPOS>ATOM
      1 N          -6.1324  -19.5203   21.2693 N.pl3   1  UNL1       -0.2847
      2 C          -7.0433  -18.3551   21.0197 C.3     1  UNL1        0.1141
      3 C          -8.4134  -18.3300   21.6297 C.3     1  UNL1        0.1149
      4 N          -8.8726  -19.4702   22.4894 N.am    1  UNL1       -0.2760
      5 C         -10.2427  -19.4451   23.0995 C.2     1  UNL1        0.2257
      6 O         -10.7019  -20.5853   23.9592 O.2     1  UNL1       -0.2749
      7 C          -7.9617  -20.6355   22.7391 C.3     1  UNL1        0.1149
      8 C          -6.5916  -20.6605   22.1290 C.3     1  UNL1        0.1141
      9 C         -11.1536  -18.2799   22.8498 C.3     1  UNL1        0.0853
     10 C         -12.3019  -18.4167   21.8945 C.3     1  UNL1        0.0096
     11 C         -13.2128  -17.2513   21.6449 C.3     1  UNL1        0.0005
     12 C         -12.9755  -15.9492   22.3506 C.3     1  UNL1        0.0005
     13 C         -11.8272  -15.8124   23.3059 C.3     1  UNL1        0.0096
     14 C         -10.9163  -16.9776   23.5556 C.3     1  UNL1        0.0851
     15 C          -9.7680  -16.8408   24.5109 C.2     1  UNL1        0.2231
     16 O          -9.4781  -17.9337   25.4966 O.2     1  UNL1       -0.2751
     17 N          -8.9096  -15.6111   24.4806 N.am    1  UNL1       -0.2959
     18 H          -9.0999  -14.8938   23.8337 H       1  UNL1        0.1502
     19 C          -7.7613  -15.4742   25.4360 C.3     1  UNL1        0.1364
     20 C          -7.0119  -15.2621   26.7179 C.3     1  UNL1        0.0353
     21 C          -8.5109  -15.2100   26.7081 C.3     1  UNL1        0.0353
     22 C          -6.6129  -15.6909   24.4957 C.1     1  UNL1        0.0896
     23 N          -5.4644  -15.9075   23.5555 N.1     1  UNL1       -0.1943
     24 C          -2.4634  -18.9809   20.1233 C.ar    1  UNL1        0.0415
     25 C          -2.8443  -20.1874   19.3175 C.ar    1  UNL1        0.1040
     26 N          -4.2651  -20.5363   19.6487 N.ar    1  UNL1       -0.2228
     27 C          -4.7623  -19.5454   20.6592 C.ar    1  UNL1        0.1629
     28 S          -3.6488  -18.5842   20.9525 S.2     1  UNL1       -0.0549
     29 C          -1.2720  -18.0622   18.6278 C.3     1  UNL1        0.0202
     30 C          -1.1311  -18.2920   20.1034 C.3     1  UNL1        0.1051
     31 C          -0.9902  -18.5219   21.5790 C.3     1  UNL1        0.0202
     32 C           0.2013  -17.6032   20.0835 C.1     1  UNL1        0.0758
     33 N           1.5335  -16.9144   20.0636 N.1     1  UNL1       -0.1956
@<TRIPOS>BOND
     1    29    30    1
     2    30    31    1
     3    30    32    1
     4    32    33    3
     5    30    24    1
     6    24    25   ar
     7    25    26   ar
     8    26    27   ar
     9    27     1    1
    10     1     2    1
    11     2     3    1
    12     3     4    1
    13     4     5   am
    14     5     6    2
    15     9     5    1
    16     9    10    1
    17    10    11    1
    18    11    12    1
    19    12    13    1
    20    13    14    1
    21    14    15    1
    22    15    16    2
    23    15    17   am
    24    17    19    1
    25    19    22    1
    26    22    23    3
    27    19    20    1
    28    20    21    1
    29     4     7    1
    30     7     8    1
    31    27    28   ar
    32    28    24   ar
    33     8     1    1
    34    14     9    1
    35    21    19    1
    36    17    18    1
@<TRIPOS>MOLECULE
*****
 33 36 0 0 0
SMALL
GASTEIGER

@<TRIPOS>ATOM
      1 N           1.5608    1.4146   22.2689 N.pl3   1  UNL1       -0.2847
      2 C           2.9969    1.8178   22.1107 C.3     1  UNL1        0.1141
      3 C           3.7213    1.5252   20.8303 C.3     1  UNL1        0.1149
      4 N           3.0096    0.8294   19.7080 N.am    1  UNL1       -0.2760
      5 C           3.7341    0.5367   18.4275 C.2     1  UNL1        0.2257
      6 O           3.0224   -0.1591   17.3053 O.2     1  UNL1       -0.2749
      7 C           1.5735    0.4262   19.8662 C.3     1  UNL1        0.1149
      8 C           0.8491    0.7188   21.1467 C.3     1  UNL1        0.1141
      9 C           5.1702    0.9399   18.2693 C.3     1  UNL1        0.0853
     10 C           5.5280    2.3856   18.0905 C.3     1  UNL1        0.0096
     11 C           6.9642    2.7887   17.9323 C.3     1  UNL1        0.0005
     12 C           8.0425    1.7462   17.9529 C.3     1  UNL1        0.0005
     13 C           7.6846    0.3005   18.1317 C.3     1  UNL1        0.0096
     14 C           6.2486   -0.1026   18.2899 C.3     1  UNL1        0.0851
     15 C           5.8907   -1.5483   18.4687 C.2     1  UNL1        0.2231
     16 O           6.2632   -2.5490   17.4151 O.2     1  UNL1       -0.2751
     17 N           5.1605   -1.9933   19.7011 N.am    1  UNL1       -0.2959
     18 H           4.9161   -1.3366   20.3925 H       1  UNL1        0.1502
     19 C           4.8027   -3.4390   19.8798 C.3     1  UNL1        0.1364
     20 C           4.0007   -4.7063   19.8532 C.3     1  UNL1        0.0353
     21 C           3.3993   -3.4274   19.3504 C.3     1  UNL1        0.0353
     22 C           6.0818   -3.9528   20.4714 C.1     1  UNL1        0.0896
     23 N           7.3609   -4.4665   21.0629 N.1     1  UNL1       -0.1943
     24 C           0.2129    1.7330   25.8948 C.ar    1  UNL1        0.0415
     25 C          -0.7701    2.5822   25.1446 C.ar    1  UNL1        0.1040
     26 N          -0.3848    2.5662   23.6950 N.ar    1  UNL1       -0.2228
     27 C           0.8363    1.7073   23.5494 C.ar    1  UNL1        0.1629
     28 S           1.2057    1.1923   24.9089 S.2     1  UNL1       -0.0549
     29 C          -1.2185    1.9391   27.4469 C.3     1  UNL1        0.0202
     30 C           0.2045    1.4706   27.3717 C.3     1  UNL1        0.1051
     31 C           1.6276    1.0022   27.2966 C.3     1  UNL1        0.0202
     32 C           0.1962    1.2083   28.8486 C.1     1  UNL1        0.0758
     33 N           0.1878    0.9459   30.3254 N.1     1  UNL1       -0.1956
@<TRIPOS>BOND
     1    29    30    1
     2    30    31    1
     3    30    32    1
     4    32    33    3
     5    30    24    1
     6    24    25   ar
     7    25    26   ar
     8    26    27   ar
     9    27     1    1
    10     1     2    1
    11     2     3    1
    12     3     4    1
    13     4     5   am
    14     5     6    2
    15     9     5    1
    16     9    10    1
    17    10    11    1
    18    11    12    1
    19    12    13    1
    20    13    14    1
    21    14    15    1
    22    15    16    2
    23    15    17   am
    24    17    19    1
    25    19    22    1
    26    22    23    3
    27    19    20    1
    28    20    21    1
    29     4     7    1
    30     7     8    1
    31    27    28   ar
    32    28    24   ar
    33     8     1    1
    34    14     9    1
    35    21    19    1
    36    17    18    1
@<TRIPOS>MOLECULE
*****
 33 36 0 0 0
SMALL
GASTEIGER

@<TRIPOS>ATOM
      1 N           1.1197    2.2718   20.4663 N.pl3   1  UNL1       -0.2847
      2 C           0.0393    1.7844   21.3856 C.3     1  UNL1        0.1141
      3 C          -0.8306    2.7692   22.1091 C.3     1  UNL1        0.1149
      4 N          -0.6201    4.2414   21.9133 N.am    1  UNL1       -0.2760
      5 C          -1.4900    5.2262   22.6369 C.2     1  UNL1        0.2257
      6 O          -1.2795    6.6983   22.4411 O.2     1  UNL1       -0.2749
      7 C           0.4603    4.7288   20.9941 C.3     1  UNL1        0.1149
      8 C           1.3302    3.7440   20.2706 C.3     1  UNL1        0.1141
      9 C          -2.5704    4.7387   23.5562 C.3     1  UNL1        0.0853
     10 C          -2.2833    4.5474   25.0160 C.3     1  UNL1        0.0096
     11 C          -3.3638    4.0599   25.9352 C.3     1  UNL1        0.0005
     12 C          -4.7313    3.7638   25.3947 C.3     1  UNL1        0.0005
     13 C          -5.0184    3.9552   23.9349 C.3     1  UNL1        0.0096
     14 C          -3.9380    4.4426   23.0157 C.3     1  UNL1        0.0851
     15 C          -4.2251    4.6339   21.5559 C.2     1  UNL1        0.2231
     16 O          -4.5408    6.0015   21.0266 O.2     1  UNL1       -0.2751
     17 N          -4.1966    3.4578   20.6254 N.am    1  UNL1       -0.2959
     18 H          -3.9894    2.5602   20.9729 H       1  UNL1        0.1502
     19 C          -4.4837    3.6491   19.1657 C.3     1  UNL1        0.1364
     20 C          -5.2421    3.6937   17.8723 C.3     1  UNL1        0.0353
     21 C          -5.9406    3.2932   19.1379 C.3     1  UNL1        0.0353
     22 C          -3.1265    4.0714   18.6864 C.1     1  UNL1        0.0896
     23 N          -1.7694    4.4937   18.2071 N.1     1  UNL1       -0.1943
     24 C           3.3229   -0.6754   19.2314 C.ar    1  UNL1        0.0415
     25 C           3.3336    0.2189   18.0271 C.ar    1  UNL1        0.1040
     26 N           2.5096    1.4318   18.3432 N.ar    1  UNL1       -0.2228
     27 C           1.9896    1.2871   19.7427 C.ar    1  UNL1        0.1629
     28 S           2.4923   -0.0152   20.2916 S.2     1  UNL1       -0.0549
     29 C           3.5885   -2.0928   20.7872 C.3     1  UNL1        0.0202
     30 C           4.0204   -1.9978   19.3538 C.3     1  UNL1        0.1051
     31 C           4.4522   -1.9027   17.9205 C.3     1  UNL1        0.0202
     32 C           4.7179   -3.3201   19.4763 C.1     1  UNL1        0.0758
     33 N           5.4153   -4.6423   19.5987 N.1     1  UNL1       -0.1956
@<TRIPOS>BOND
     1    29    30    1
     2    30    31    1
     3    30    32    1
     4    32    33    3
     5    30    24    1
     6    24    25   ar
     7    25    26   ar
     8    26    27   ar
     9    27     1    1
    10     1     2    1
    11     2     3    1
    12     3     4    1
    13     4     5   am
    14     5     6    2
    15     9     5    1
    16     9    10    1
    17    10    11    1
    18    11    12    1
    19    12    13    1
    20    13    14    1
    21    14    15    1
    22    15    16    2
    23    15    17   am
    24    17    19    1
    25    19    22    1
    26    22    23    3
    27    19    20    1
    28    20    21    1
    29     4     7    1
    30     7     8    1
    31    27    28   ar
    32    28    24   ar
    33     8     1    1
    34    14     9    1
    35    21    19    1
    36    17    18    1
