@<TRIPOS>MOLECULE
*****
 33 36 0 0 0
SMALL
GASTEIGER

@<TRIPOS>ATOM
      1 C           7.7520   -7.5382   27.0348 C.3     1  UNL1        0.0952
      2 C           7.2487   -6.1253   27.0557 C.2     1  UNL1        0.2302
      3 O           6.9327   -5.4227   25.7687 O.2     1  UNL1       -0.2745
      4 N           7.0614   -5.4151   28.3636 N.am    1  UNL1       -0.2515
      5 C           7.3774   -6.1177   29.6506 C.2     1  UNL1        0.0695
      6 C           7.1900   -5.4075   30.9584 C.2     1  UNL1        0.0366
      7 C           6.6867   -3.9947   30.9793 C.ar    1  UNL1        0.0993
      8 N           6.4994   -3.2845   32.2872 N.ar    1  UNL1       -0.2265
      9 C           5.9961   -1.8716   32.3081 C.ar    1  UNL1        0.1633
     10 C           5.6801   -1.1689   31.0210 C.ar    1  UNL1        0.1600
     11 N           5.8674   -1.8791   29.7131 N.ar    1  UNL1       -0.2291
     12 C           6.3708   -3.2921   29.6923 C.ar    1  UNL1        0.0985
     13 C           6.5581   -4.0023   28.3845 C.3     1  UNL1        0.1454
     14 N           5.8088   -1.1614   33.6159 N.pl3   1  UNL1       -0.2908
     15 C           6.9379   -0.3718   34.2091 C.3     1  UNL1        0.0960
     16 C           6.7506    0.3384   35.5169 C.3     1  UNL1        0.0650
     17 C           5.4341    0.2590   36.2317 C.3     1  UNL1        0.1694
     18 C           4.3051   -0.5306   35.6385 C.3     1  UNL1        0.0650
     19 C           4.4924   -1.2408   34.3306 C.3     1  UNL1        0.0960
     20 O           5.2468    0.9692   37.5395 O.3     1  UNL1       -0.4768
     21 C           3.8817    1.4356   37.9509 C.ar    1  UNL1        0.1657
     22 C           3.0328    0.5776   38.8414 C.ar    1  UNL1        0.0415
     23 C           1.6677    1.0440   39.2528 C.ar    1  UNL1        0.0329
     24 C           1.1517    2.3684   38.7737 C.ar    1  UNL1        0.1426
     25 F          -0.2133    2.8348   39.1850 F       1  UNL1       -0.2041
     26 C           2.0007    3.2264   37.8831 C.ar    1  UNL1        0.0624
     27 C           3.3657    2.7600   37.4718 C.ar    1  UNL1        0.1760
     28 F           4.2147    3.6180   36.5812 F       1  UNL1       -0.2009
     29 N           5.1768    0.2439   31.0419 N.pl3   1  UNL1       -0.3175
     30 H           5.7337    0.9593   31.4258 H       1  UNL1        0.1482
     31 C           3.8249    0.5670   30.4778 C.3     1  UNL1        0.0706
     32 C           3.6354    1.7987   29.6430 C.3     1  UNL1        0.0212
     33 C           2.6626   -0.3418   30.7484 C.3     1  UNL1        0.0212
@<TRIPOS>BOND
     1     1     2    1
     2     2     3    2
     3     2     4   am
     4     4     5    1
     5     5     6    2
     6     6     7    1
     7     7     8   ar
     8     8     9   ar
     9     9    14    1
    10    14    15    1
    11    15    16    1
    12    16    17    1
    13    17    20    1
    14    20    21    1
    15    21    22   ar
    16    22    23   ar
    17    23    24   ar
    18    24    25    1
    19    24    26   ar
    20    26    27   ar
    21    27    28    1
    22    17    18    1
    23    18    19    1
    24     9    10   ar
    25    10    29    1
    26    29    31    1
    27    31    32    1
    28    31    33    1
    29    10    11   ar
    30    11    12   ar
    31    12    13    1
    32    13     4    1
    33    12     7   ar
    34    19    14    1
    35    27    21   ar
    36    29    30    1
@<TRIPOS>MOLECULE
*****
 33 36 0 0 0
SMALL
GASTEIGER

@<TRIPOS>ATOM
      1 C          -8.1353    5.3386   23.8596 C.3     1  UNL1        0.0952
      2 C          -6.7238    5.2156   24.3521 C.2     1  UNL1        0.2302
      3 O          -6.3674    5.6840   25.7317 O.2     1  UNL1       -0.2745
      4 N          -5.6688    4.6241   23.4649 N.am    1  UNL1       -0.2515
      5 C          -6.0251    4.1557   22.0853 C.2     1  UNL1        0.0695
      6 C          -4.9701    3.5643   21.1981 C.2     1  UNL1        0.0366
      7 C          -3.5586    3.4413   21.6906 C.ar    1  UNL1        0.0993
      8 N          -2.5035    2.8499   20.8035 N.ar    1  UNL1       -0.2265
      9 C          -1.0921    2.7268   21.2960 C.ar    1  UNL1        0.1633
     10 C          -0.7356    3.1953   22.6757 C.ar    1  UNL1        0.1600
     11 N          -1.7907    3.7867   23.5629 N.ar    1  UNL1       -0.2291
     12 C          -3.2022    3.9097   23.0703 C.ar    1  UNL1        0.0985
     13 C          -4.2573    4.5011   23.9574 C.3     1  UNL1        0.1454
     14 N          -0.0370    2.1354   20.4088 N.pl3   1  UNL1       -0.2908
     15 C           0.1932    0.6531   20.4026 C.3     1  UNL1        0.0960
     16 C           1.2482    0.0617   19.5155 C.3     1  UNL1        0.0650
     17 C           2.0731    0.9526   18.6345 C.3     1  UNL1        0.1694
     18 C           1.8429    2.4347   18.6407 C.3     1  UNL1        0.0650
     19 C           0.7878    3.0262   19.5279 C.3     1  UNL1        0.0960
     20 O           3.1282    0.3611   17.7473 O.3     1  UNL1       -0.4768
     21 C           4.1269   -0.6055   18.3115 C.ar    1  UNL1        0.1657
     22 C           4.2157   -1.9983   17.7619 C.ar    1  UNL1        0.0415
     23 C           5.2145   -2.9650   18.3260 C.ar    1  UNL1        0.0329
     24 C           6.1244   -2.5387   19.4397 C.ar    1  UNL1        0.1426
     25 F           7.1232   -3.5053   20.0038 F       1  UNL1       -0.2041
     26 C           6.0356   -1.1458   19.9893 C.ar    1  UNL1        0.0624
     27 C           5.0369   -0.1792   19.4252 C.ar    1  UNL1        0.1760
     28 F           4.9480    1.2137   19.9747 F       1  UNL1       -0.2009
     29 N           0.6758    3.0723   23.1682 N.pl3   1  UNL1       -0.3175
     30 H           1.3107    3.8125   23.0329 H       1  UNL1        0.1482
     31 C           1.1201    1.8214   23.8669 C.3     1  UNL1        0.0706
     32 C           0.3496    1.3074   25.0468 C.3     1  UNL1        0.0212
     33 C           2.3348    1.0847   23.3857 C.3     1  UNL1        0.0212
@<TRIPOS>BOND
     1     1     2    1
     2     2     3    2
     3     2     4   am
     4     4     5    1
     5     5     6    2
     6     6     7    1
     7     7     8   ar
     8     8     9   ar
     9     9    14    1
    10    14    15    1
    11    15    16    1
    12    16    17    1
    13    17    20    1
    14    20    21    1
    15    21    22   ar
    16    22    23   ar
    17    23    24   ar
    18    24    25    1
    19    24    26   ar
    20    26    27   ar
    21    27    28    1
    22    17    18    1
    23    18    19    1
    24     9    10   ar
    25    10    29    1
    26    29    31    1
    27    31    32    1
    28    31    33    1
    29    10    11   ar
    30    11    12   ar
    31    12    13    1
    32    13     4    1
    33    12     7   ar
    34    19    14    1
    35    27    21   ar
    36    29    30    1
@<TRIPOS>MOLECULE
*****
 33 36 0 0 0
SMALL
GASTEIGER

@<TRIPOS>ATOM
      1 C           6.8089   -0.1738   35.3701 C.3     1  UNL1        0.0952
      2 C           5.4663   -0.4166   34.7469 C.2     1  UNL1        0.2302
      3 O           4.3019   -0.8136   35.6050 O.2     1  UNL1       -0.2745
      4 N           5.2881   -0.2626   33.2655 N.am    1  UNL1       -0.2515
      5 C           6.4525    0.1343   32.4073 C.2     1  UNL1        0.0695
      6 C           6.2744    0.2884   30.9259 C.2     1  UNL1        0.0366
      7 C           4.9318    0.0456   30.3027 C.ar    1  UNL1        0.0993
      8 N           4.7536    0.1996   28.8213 N.ar    1  UNL1       -0.2265
      9 C           3.4110   -0.0432   28.1981 C.ar    1  UNL1        0.1633
     10 C           2.2465   -0.4401   29.0563 C.ar    1  UNL1        0.1600
     11 N           2.4247   -0.5942   30.5377 N.ar    1  UNL1       -0.2291
     12 C           3.7674   -0.3514   31.1609 C.ar    1  UNL1        0.0985
     13 C           3.9455   -0.5054   32.6423 C.3     1  UNL1        0.1454
     14 N           3.2329    0.1109   26.7167 N.pl3   1  UNL1       -0.2908
     15 C           3.5798   -1.0228   25.7976 C.3     1  UNL1        0.0960
     16 C           3.4017   -0.8687   24.3162 C.3     1  UNL1        0.0650
     17 C           2.8765    0.4190   23.7539 C.3     1  UNL1        0.1694
     18 C           2.5296    1.5525   24.6729 C.3     1  UNL1        0.0650
     19 C           2.7078    1.3985   26.1543 C.3     1  UNL1        0.0960
     20 O           2.6984    0.5731   22.2725 O.3     1  UNL1       -0.4768
     21 C           3.4154   -0.3487   21.3310 C.ar    1  UNL1        0.1657
     22 C           4.9146   -0.3963   21.3243 C.ar    1  UNL1        0.0415
     23 C           5.6315   -1.3180   20.3828 C.ar    1  UNL1        0.0329
     24 C           4.8493   -2.1922   19.4480 C.ar    1  UNL1        0.1426
     25 F           5.5662   -3.1139   18.5065 F       1  UNL1       -0.2041
     26 C           3.3500   -2.1445   19.4547 C.ar    1  UNL1        0.0624
     27 C           2.6331   -1.2228   20.3962 C.ar    1  UNL1        0.1760
     28 F           1.1338   -1.1752   20.4029 F       1  UNL1       -0.2009
     29 N           0.9039   -0.6830   28.4331 N.pl3   1  UNL1       -0.3175
     30 H           0.7675   -1.4609   27.8452 H       1  UNL1        0.1482
     31 C          -0.2309    0.2594   28.7055 C.3     1  UNL1        0.0706
     32 C          -0.0072    1.7412   28.6416 C.3     1  UNL1        0.0212
     33 C          -1.5895   -0.2802   29.0418 C.3     1  UNL1        0.0212
@<TRIPOS>BOND
     1     1     2    1
     2     2     3    2
     3     2     4   am
     4     4     5    1
     5     5     6    2
     6     6     7    1
     7     7     8   ar
     8     8     9   ar
     9     9    14    1
    10    14    15    1
    11    15    16    1
    12    16    17    1
    13    17    20    1
    14    20    21    1
    15    21    22   ar
    16    22    23   ar
    17    23    24   ar
    18    24    25    1
    19    24    26   ar
    20    26    27   ar
    21    27    28    1
    22    17    18    1
    23    18    19    1
    24     9    10   ar
    25    10    29    1
    26    29    31    1
    27    31    32    1
    28    31    33    1
    29    10    11   ar
    30    11    12   ar
    31    12    13    1
    32    13     4    1
    33    12     7   ar
    34    19    14    1
    35    27    21   ar
    36    29    30    1
@<TRIPOS>MOLECULE
*****
 33 36 0 0 0
SMALL
GASTEIGER

@<TRIPOS>ATOM
      1 C          -7.4099    5.8637   22.9084 C.3     1  UNL1        0.0952
      2 C          -6.0684    5.6132   23.5310 C.2     1  UNL1        0.2302
      3 O          -5.7670    6.1430   24.9015 O.2     1  UNL1       -0.2745
      4 N          -5.0284    4.8329   22.7830 N.am    1  UNL1       -0.2515
      5 C          -5.3299    4.3030   21.4125 C.2     1  UNL1        0.0695
      6 C          -4.2899    3.5227   20.6645 C.2     1  UNL1        0.0366
      7 C          -2.9484    3.2722   21.2871 C.ar    1  UNL1        0.0993
      8 N          -1.9083    2.4919   20.5391 N.ar    1  UNL1       -0.2265
      9 C          -0.5668    2.2414   21.1617 C.ar    1  UNL1        0.1633
     10 C          -0.2653    2.7713   22.5322 C.ar    1  UNL1        0.1600
     11 N          -1.3053    3.5516   23.2802 N.ar    1  UNL1       -0.2291
     12 C          -2.6469    3.8021   22.6576 C.ar    1  UNL1        0.0985
     13 C          -3.6869    4.5824   23.4056 C.3     1  UNL1        0.1454
     14 N           0.4732    1.4611   20.4137 N.pl3   1  UNL1       -0.2908
     15 C           1.4230    2.1681   19.4928 C.3     1  UNL1        0.0960
     16 C           2.4631    1.3878   18.7448 C.3     1  UNL1        0.0650
     17 C           2.5532   -0.0995   18.9178 C.3     1  UNL1        0.1694
     18 C           1.6034   -0.8065   19.8386 C.3     1  UNL1        0.0650
     19 C           0.5634   -0.0261   20.5866 C.3     1  UNL1        0.0960
     20 O           3.5932   -0.8799   18.1698 O.3     1  UNL1       -0.4768
     21 C           4.5822   -1.7223   18.9197 C.ar    1  UNL1        0.1657
     22 C           5.8838   -1.1285   19.3705 C.ar    1  UNL1        0.0415
     23 C           6.8728   -1.9709   20.1205 C.ar    1  UNL1        0.0329
     24 C           6.5601   -3.4071   20.4196 C.ar    1  UNL1        0.1426
     25 F           7.5490   -4.2496   21.1695 F       1  UNL1       -0.2041
     26 C           5.2584   -4.0009   19.9687 C.ar    1  UNL1        0.0624
     27 C           4.2696   -3.1585   19.2188 C.ar    1  UNL1        0.1760
     28 F           2.9679   -3.7523   18.7680 F       1  UNL1       -0.2009
     29 N           1.0762    2.5208   23.1548 N.pl3   1  UNL1       -0.3175
     30 H           1.8287    3.1258   22.9627 H       1  UNL1        0.1482
     31 C           1.2712    1.3484   24.0700 C.3     1  UNL1        0.0706
     32 C           0.3900    1.1808   25.2723 C.3     1  UNL1        0.0212
     33 C           2.3474    0.3437   23.7830 C.3     1  UNL1        0.0212
@<TRIPOS>BOND
     1     1     2    1
     2     2     3    2
     3     2     4   am
     4     4     5    1
     5     5     6    2
     6     6     7    1
     7     7     8   ar
     8     8     9   ar
     9     9    14    1
    10    14    15    1
    11    15    16    1
    12    16    17    1
    13    17    20    1
    14    20    21    1
    15    21    22   ar
    16    22    23   ar
    17    23    24   ar
    18    24    25    1
    19    24    26   ar
    20    26    27   ar
    21    27    28    1
    22    17    18    1
    23    18    19    1
    24     9    10   ar
    25    10    29    1
    26    29    31    1
    27    31    32    1
    28    31    33    1
    29    10    11   ar
    30    11    12   ar
    31    12    13    1
    32    13     4    1
    33    12     7   ar
    34    19    14    1
    35    27    21   ar
    36    29    30    1
@<TRIPOS>MOLECULE
*****
 33 36 0 0 0
SMALL
GASTEIGER

@<TRIPOS>ATOM
      1 C           3.6268   -1.5425   18.3417 C.3     1  UNL1        0.0952
      2 C           4.7205   -2.4282   18.8605 C.2     1  UNL1        0.2302
      3 O           5.5980   -3.1766   17.9014 O.2     1  UNL1       -0.2745
      4 N           4.9368   -2.5655   20.3385 N.am    1  UNL1       -0.2515
      5 C           4.0594   -1.8170   21.2976 C.2     1  UNL1        0.0695
      6 C           4.2757   -1.9543   22.7756 C.2     1  UNL1        0.0366
      7 C           5.3694   -2.8400   23.2944 C.ar    1  UNL1        0.0993
      8 N           5.5857   -2.9772   24.7724 N.ar    1  UNL1       -0.2265
      9 C           6.6794   -3.8629   25.2913 C.ar    1  UNL1        0.1633
     10 C           7.5569   -4.6114   24.3322 C.ar    1  UNL1        0.1600
     11 N           7.3406   -4.4742   22.8542 N.ar    1  UNL1       -0.2291
     12 C           6.2468   -3.5884   22.3353 C.ar    1  UNL1        0.0985
     13 C           6.0305   -3.4512   20.8574 C.3     1  UNL1        0.1454
     14 N           6.8957   -4.0002   26.7692 N.pl3   1  UNL1       -0.2908
     15 C           6.3300   -5.1795   27.5037 C.3     1  UNL1        0.0960
     16 C           6.5463   -5.3168   28.9816 C.3     1  UNL1        0.0650
     17 C           7.3282   -4.2747   29.7252 C.3     1  UNL1        0.1694
     18 C           7.8938   -3.0954   28.9907 C.3     1  UNL1        0.0650
     19 C           7.6775   -2.9582   27.5128 C.3     1  UNL1        0.0960
     20 O           7.5445   -4.4120   31.2031 O.3     1  UNL1       -0.4768
     21 C           7.6810   -3.1870   32.0581 C.ar    1  UNL1        0.1657
     22 C           9.0348   -2.7541   32.5375 C.ar    1  UNL1        0.0415
     23 C           9.1713   -1.5291   33.3925 C.ar    1  UNL1        0.0329
     24 C           7.9541   -0.7371   33.7680 C.ar    1  UNL1        0.1426
     25 F           8.0906    0.4878   34.6229 F       1  UNL1       -0.2041
     26 C           6.6003   -1.1701   33.2885 C.ar    1  UNL1        0.0624
     27 C           6.4638   -2.3950   32.4336 C.ar    1  UNL1        0.1760
     28 F           5.1100   -2.8279   31.9541 F       1  UNL1       -0.2009
     29 N           8.6506   -5.4971   24.8510 N.pl3   1  UNL1       -0.3175
     30 H           9.4021   -5.1080   25.3541 H       1  UNL1        0.1482
     31 C           8.5992   -6.9757   24.6035 C.3     1  UNL1        0.0706
     32 C           7.8995   -7.8755   25.5786 C.3     1  UNL1        0.0212
     33 C           9.2477   -7.5545   23.3810 C.3     1  UNL1        0.0212
@<TRIPOS>BOND
     1     1     2    1
     2     2     3    2
     3     2     4   am
     4     4     5    1
     5     5     6    2
     6     6     7    1
     7     7     8   ar
     8     8     9   ar
     9     9    14    1
    10    14    15    1
    11    15    16    1
    12    16    17    1
    13    17    20    1
    14    20    21    1
    15    21    22   ar
    16    22    23   ar
    17    23    24   ar
    18    24    25    1
    19    24    26   ar
    20    26    27   ar
    21    27    28    1
    22    17    18    1
    23    18    19    1
    24     9    10   ar
    25    10    29    1
    26    29    31    1
    27    31    32    1
    28    31    33    1
    29    10    11   ar
    30    11    12   ar
    31    12    13    1
    32    13     4    1
    33    12     7   ar
    34    19    14    1
    35    27    21   ar
    36    29    30    1
@<TRIPOS>MOLECULE
*****
 33 36 0 0 0
SMALL
GASTEIGER

@<TRIPOS>ATOM
      1 C          -2.3636    4.6350   21.9302 C.3     1  UNL1        0.0952
      2 C          -1.8878    3.5697   20.9874 C.2     1  UNL1        0.2302
      3 O          -2.5965    3.3511   19.6836 O.2     1  UNL1       -0.2745
      4 N          -0.7034    2.7231   21.3485 N.am    1  UNL1       -0.2515
      5 C           0.0052    2.9418   22.6523 C.2     1  UNL1        0.0695
      6 C           1.1897    2.0952   23.0134 C.2     1  UNL1        0.0366
      7 C           1.6655    1.0299   22.0706 C.ar    1  UNL1        0.0993
      8 N           2.8499    0.1833   22.4317 N.ar    1  UNL1       -0.2265
      9 C           3.3257   -0.8819   21.4889 C.ar    1  UNL1        0.1633
     10 C           2.6171   -1.1006   20.1851 C.ar    1  UNL1        0.1600
     11 N           1.4326   -0.2540   19.8240 N.ar    1  UNL1       -0.2291
     12 C           0.9568    0.8113   20.7668 C.ar    1  UNL1        0.0985
     13 C          -0.2276    1.6579   20.4058 C.3     1  UNL1        0.1454
     14 N           4.5102   -1.7285   21.8500 N.pl3   1  UNL1       -0.2908
     15 C           5.8993   -1.1968   21.6556 C.3     1  UNL1        0.0960
     16 C           7.0837   -2.0434   22.0166 C.3     1  UNL1        0.0650
     17 C           6.8790   -3.4217   22.5721 C.3     1  UNL1        0.1694
     18 C           5.4900   -3.9533   22.7666 C.3     1  UNL1        0.0650
     19 C           4.3055   -3.1067   22.4055 C.3     1  UNL1        0.0960
     20 O           8.0635   -4.2683   22.9332 O.3     1  UNL1       -0.4768
     21 C           7.9547   -5.2787   24.0366 C.ar    1  UNL1        0.1657
     22 C           7.4748   -4.8582   25.3940 C.ar    1  UNL1        0.0415
     23 C           7.3661   -5.8686   26.4974 C.ar    1  UNL1        0.0329
     24 C           7.7373   -7.2995   26.2432 C.ar    1  UNL1        0.1426
     25 F           7.6286   -8.3099   27.3465 F       1  UNL1       -0.2041
     26 C           8.2172   -7.7201   24.8857 C.ar    1  UNL1        0.0624
     27 C           8.3259   -6.7097   23.7824 C.ar    1  UNL1        0.1760
     28 F           8.8059   -7.1302   22.4248 F       1  UNL1       -0.2009
     29 N           3.0929   -2.1659   19.2423 N.pl3   1  UNL1       -0.3175
     30 H           2.7057   -3.0700   19.2853 H       1  UNL1        0.1482
     31 C           4.1586   -1.8536   18.2340 C.3     1  UNL1        0.0706
     32 C           5.4388   -2.6352   18.2293 C.3     1  UNL1        0.0212
     33 C           3.9441   -0.7596   17.2303 C.3     1  UNL1        0.0212
@<TRIPOS>BOND
     1     1     2    1
     2     2     3    2
     3     2     4   am
     4     4     5    1
     5     5     6    2
     6     6     7    1
     7     7     8   ar
     8     8     9   ar
     9     9    14    1
    10    14    15    1
    11    15    16    1
    12    16    17    1
    13    17    20    1
    14    20    21    1
    15    21    22   ar
    16    22    23   ar
    17    23    24   ar
    18    24    25    1
    19    24    26   ar
    20    26    27   ar
    21    27    28    1
    22    17    18    1
    23    18    19    1
    24     9    10   ar
    25    10    29    1
    26    29    31    1
    27    31    32    1
    28    31    33    1
    29    10    11   ar
    30    11    12   ar
    31    12    13    1
    32    13     4    1
    33    12     7   ar
    34    19    14    1
    35    27    21   ar
    36    29    30    1
@<TRIPOS>MOLECULE
*****
 33 36 0 0 0
SMALL
GASTEIGER

@<TRIPOS>ATOM
      1 C           1.4691    5.3398   36.4280 C.3     1  UNL1        0.0952
      2 C           1.6664    4.0245   35.7346 C.2     1  UNL1        0.2302
      3 O           2.0352    2.8062   36.5281 O.2     1  UNL1       -0.2745
      4 N           1.4948    3.9274   34.2476 N.am    1  UNL1       -0.2515
      5 C           1.1260    5.1457   33.4541 C.2     1  UNL1        0.0695
      6 C           0.9544    5.0486   31.9671 C.2     1  UNL1        0.0366
      7 C           1.1516    3.7332   31.2736 C.ar    1  UNL1        0.0993
      8 N           0.9800    3.6362   29.7866 N.ar    1  UNL1       -0.2265
      9 C           1.1773    2.3208   29.0932 C.ar    1  UNL1        0.1633
     10 C           1.5461    1.1025   29.8867 C.ar    1  UNL1        0.1600
     11 N           1.7177    1.1995   31.3737 N.ar    1  UNL1       -0.2291
     12 C           1.5204    2.5150   32.0672 C.ar    1  UNL1        0.0985
     13 C           1.6920    2.6120   33.5541 C.3     1  UNL1        0.1454
     14 N           1.0057    2.2238   27.6062 N.pl3   1  UNL1       -0.2908
     15 C          -0.1079    1.3989   27.0320 C.3     1  UNL1        0.0960
     16 C          -0.2795    1.3019   25.5450 C.3     1  UNL1        0.0650
     17 C           0.6625    2.0296   24.6322 C.3     1  UNL1        0.1694
     18 C           1.7760    2.8544   25.2064 C.3     1  UNL1        0.0650
     19 C           1.9476    2.9514   26.6934 C.3     1  UNL1        0.0960
     20 O           0.4909    1.9325   23.1452 O.3     1  UNL1       -0.4768
     21 C           1.1889    0.8483   22.3789 C.ar    1  UNL1        0.1657
     22 C           2.3342    0.1072   23.0026 C.ar    1  UNL1        0.0415
     23 C           3.0322   -0.9771   22.2363 C.ar    1  UNL1        0.0329
     24 C           2.5849   -1.3202   20.8463 C.ar    1  UNL1        0.1426
     25 F           3.2829   -2.4044   20.0799 F       1  UNL1       -0.2041
     26 C           1.4395   -0.5791   20.2226 C.ar    1  UNL1        0.0624
     27 C           0.7416    0.5051   20.9889 C.ar    1  UNL1        0.1760
     28 F          -0.4038    1.2463   20.3652 F       1  UNL1       -0.2009
     29 N           1.7434   -0.2129   29.1933 N.pl3   1  UNL1       -0.3175
     30 H           0.9923   -0.8443   29.1126 H       1  UNL1        0.1482
     31 C           3.0849   -0.5662   28.6227 C.3     1  UNL1        0.0706
     32 C           4.2348   -0.8637   29.5388 C.3     1  UNL1        0.0212
     33 C           3.2765   -0.6221   27.1361 C.3     1  UNL1        0.0212
@<TRIPOS>BOND
     1     1     2    1
     2     2     3    2
     3     2     4   am
     4     4     5    1
     5     5     6    2
     6     6     7    1
     7     7     8   ar
     8     8     9   ar
     9     9    14    1
    10    14    15    1
    11    15    16    1
    12    16    17    1
    13    17    20    1
    14    20    21    1
    15    21    22   ar
    16    22    23   ar
    17    23    24   ar
    18    24    25    1
    19    24    26   ar
    20    26    27   ar
    21    27    28    1
    22    17    18    1
    23    18    19    1
    24     9    10   ar
    25    10    29    1
    26    29    31    1
    27    31    32    1
    28    31    33    1
    29    10    11   ar
    30    11    12   ar
    31    12    13    1
    32    13     4    1
    33    12     7   ar
    34    19    14    1
    35    27    21   ar
    36    29    30    1
@<TRIPOS>MOLECULE
*****
 33 36 0 0 0
SMALL
GASTEIGER

@<TRIPOS>ATOM
      1 C          -6.7412    7.2320   26.2293 C.3     1  UNL1        0.0952
      2 C          -5.9744    6.1165   26.8755 C.2     1  UNL1        0.2302
      3 O          -6.3960    5.5957   28.2175 O.2     1  UNL1       -0.2745
      4 N          -4.7860    5.5219   26.1798 N.am    1  UNL1       -0.2515
      5 C          -4.3644    6.0427   24.8378 C.2     1  UNL1        0.0695
      6 C          -3.1760    5.4480   24.1420 C.2     1  UNL1        0.0366
      7 C          -2.4092    4.3325   24.7882 C.ar    1  UNL1        0.0993
      8 N          -1.2209    3.7379   24.0924 N.ar    1  UNL1       -0.2265
      9 C          -0.4541    2.6223   24.7386 C.ar    1  UNL1        0.1633
     10 C          -0.8757    2.1014   26.0806 C.ar    1  UNL1        0.1600
     11 N          -2.0641    2.6961   26.7764 N.ar    1  UNL1       -0.2291
     12 C          -2.8309    3.8117   26.1302 C.ar    1  UNL1        0.0985
     13 C          -4.0192    4.4063   26.8259 C.3     1  UNL1        0.1454
     14 N           0.7343    2.0277   24.0428 N.pl3   1  UNL1       -0.2908
     15 C           2.1204    2.3551   24.5136 C.3     1  UNL1        0.0960
     16 C           3.3088    1.7604   23.8178 C.3     1  UNL1        0.0650
     17 C           3.1111    0.8383   22.6513 C.3     1  UNL1        0.1694
     18 C           1.7250    0.5110   22.1806 C.3     1  UNL1        0.0650
     19 C           0.5366    1.1056   22.8763 C.3     1  UNL1        0.0960
     20 O           4.2995    0.2437   21.9555 O.3     1  UNL1       -0.4768
     21 C           4.1903   -1.1024   21.3025 C.ar    1  UNL1        0.1657
     22 C           4.4353   -2.3466   22.1035 C.ar    1  UNL1        0.0415
     23 C           4.3261   -3.6927   21.4505 C.ar    1  UNL1        0.0329
     24 C           3.9718   -3.7943   19.9965 C.ar    1  UNL1        0.1426
     25 F           3.8626   -5.1403   19.3435 F       1  UNL1       -0.2041
     26 C           3.7268   -2.5500   19.1955 C.ar    1  UNL1        0.0624
     27 C           3.8360   -1.2040   19.8485 C.ar    1  UNL1        0.1760
     28 F           3.5910    0.0404   19.0474 F       1  UNL1       -0.2009
     29 N          -0.1089    0.9859   26.7268 N.pl3   1  UNL1       -0.3175
     30 H           0.5090    0.4382   26.1907 H       1  UNL1        0.1482
     31 C          -0.2835    0.7048   28.1899 C.3     1  UNL1        0.0706
     32 C           0.4327    1.5445   29.2057 C.3     1  UNL1        0.0212
     33 C          -1.1745   -0.4159   28.6372 C.3     1  UNL1        0.0212
@<TRIPOS>BOND
     1     1     2    1
     2     2     3    2
     3     2     4   am
     4     4     5    1
     5     5     6    2
     6     6     7    1
     7     7     8   ar
     8     8     9   ar
     9     9    14    1
    10    14    15    1
    11    15    16    1
    12    16    17    1
    13    17    20    1
    14    20    21    1
    15    21    22   ar
    16    22    23   ar
    17    23    24   ar
    18    24    25    1
    19    24    26   ar
    20    26    27   ar
    21    27    28    1
    22    17    18    1
    23    18    19    1
    24     9    10   ar
    25    10    29    1
    26    29    31    1
    27    31    32    1
    28    31    33    1
    29    10    11   ar
    30    11    12   ar
    31    12    13    1
    32    13     4    1
    33    12     7   ar
    34    19    14    1
    35    27    21   ar
    36    29    30    1
@<TRIPOS>MOLECULE
*****
 33 36 0 0 0
SMALL
GASTEIGER

@<TRIPOS>ATOM
      1 C           4.7795    2.2178   35.4403 C.3     1  UNL1        0.0952
      2 C           3.6182    1.9782   34.5216 C.2     1  UNL1        0.2302
      3 O           2.2158    2.0701   35.0457 O.2     1  UNL1       -0.2745
      4 N           3.8594    1.6466   33.0787 N.am    1  UNL1       -0.2515
      5 C           5.2618    1.5546   32.5545 C.2     1  UNL1        0.0695
      6 C           5.5029    1.2231   31.1116 C.2     1  UNL1        0.0366
      7 C           4.3417    0.9834   30.1929 C.ar    1  UNL1        0.0993
      8 N           4.5829    0.6519   28.7500 N.ar    1  UNL1       -0.2265
      9 C           3.4216    0.4123   27.8313 C.ar    1  UNL1        0.1633
     10 C           2.0191    0.5042   28.3555 C.ar    1  UNL1        0.1600
     11 N           1.7780    0.8358   29.7984 N.ar    1  UNL1       -0.2291
     12 C           2.9393    1.0754   30.7171 C.ar    1  UNL1        0.0985
     13 C           2.6982    1.4070   32.1600 C.3     1  UNL1        0.1454
     14 N           3.6628    0.0807   26.3885 N.pl3   1  UNL1       -0.2908
     15 C           3.9416   -1.3358   25.9809 C.3     1  UNL1        0.0960
     16 C           4.1828   -1.6673   24.5380 C.3     1  UNL1        0.0650
     17 C           4.1451   -0.5825   23.5027 C.3     1  UNL1        0.1694
     18 C           3.8663    0.8339   23.9103 C.3     1  UNL1        0.0650
     19 C           3.6251    1.1654   25.3532 C.3     1  UNL1        0.0960
     20 O           4.3863   -0.9141   22.0598 O.3     1  UNL1       -0.4768
     21 C           3.4407   -0.4154   21.0075 C.ar    1  UNL1        0.1657
     22 C           1.9661   -0.6481   21.1532 C.ar    1  UNL1        0.0415
     23 C           1.0205   -0.1495   20.1008 C.ar    1  UNL1        0.0329
     24 C           1.5497    0.5819   18.9029 C.ar    1  UNL1        0.1426
     25 F           0.6042    1.0806   17.8506 F       1  UNL1       -0.2041
     26 C           3.0244    0.8146   18.7573 C.ar    1  UNL1        0.0624
     27 C           3.9699    0.3160   19.8095 C.ar    1  UNL1        0.1760
     28 F           5.4446    0.5487   19.6639 F       1  UNL1       -0.2009
     29 N           0.8579    0.2646   27.4368 N.pl3   1  UNL1       -0.3175
     30 H           1.0106   -0.1008   26.5354 H       1  UNL1        0.1482
     31 C          -0.5360    0.5818   27.8913 C.3     1  UNL1        0.0706
     32 C          -1.1630    1.8948   27.5273 C.3     1  UNL1        0.0212
     33 C          -1.3027   -0.4142   28.7099 C.3     1  UNL1        0.0212
@<TRIPOS>BOND
     1     1     2    1
     2     2     3    2
     3     2     4   am
     4     4     5    1
     5     5     6    2
     6     6     7    1
     7     7     8   ar
     8     8     9   ar
     9     9    14    1
    10    14    15    1
    11    15    16    1
    12    16    17    1
    13    17    20    1
    14    20    21    1
    15    21    22   ar
    16    22    23   ar
    17    23    24   ar
    18    24    25    1
    19    24    26   ar
    20    26    27   ar
    21    27    28    1
    22    17    18    1
    23    18    19    1
    24     9    10   ar
    25    10    29    1
    26    29    31    1
    27    31    32    1
    28    31    33    1
    29    10    11   ar
    30    11    12   ar
    31    12    13    1
    32    13     4    1
    33    12     7   ar
    34    19    14    1
    35    27    21   ar
    36    29    30    1
