@<TRIPOS>MOLECULE
*****
 36 38 0 0 0
SMALL
GASTEIGER

@<TRIPOS>ATOM
      1 C          -9.9125  -19.4586   23.7681 C.2     1  UNL1        0.2459
      2 O         -11.0229  -20.4320   24.0313 O.2     1  UNL1       -0.2730
      3 N         -10.1645  -17.9843   23.8826 N.am    1  UNL1       -0.2729
      4 C         -11.5271  -17.4835   24.2603 C.3     1  UNL1        0.1152
      5 C          -8.5499  -19.9594   23.3904 C.3     1  UNL1        0.1738
      6 N          -8.1544  -20.0401   21.9458 N.pl3   1  UNL1       -0.3253
      7 H          -8.8457  -20.1259   21.2502 H       1  UNL1        0.1473
      8 C          -3.8075  -19.8901   20.7914 C.ar    1  UNL1        0.0645
      9 C          -4.3112  -19.0503   21.9276 C.ar    1  UNL1        0.0171
     10 C          -5.7601  -19.1003   22.3124 C.ar    1  UNL1        0.0156
     11 C          -6.7054  -19.9901   21.5610 C.ar    1  UNL1        0.0451
     12 C          -6.2018  -20.8298   20.4247 C.ar    1  UNL1        0.0156
     13 C          -4.7528  -20.7798   20.0399 C.ar    1  UNL1        0.0171
     14 N          -2.3586  -19.8401   20.4066 N.pl3   1  UNL1       -0.2188
     15 H          -1.8636  -20.6752   20.2432 H       1  UNL1        0.1734
     16 S          -1.6639  -18.5176   20.2707 S.O2    1  UNL1        0.0539
     17 O          -0.9480  -18.7606   21.5662 O.2     1  UNL1       -0.1545
     18 O          -2.3798  -18.2747   18.9751 O.2     1  UNL1       -0.1545
     19 C          -0.9691  -17.1951   20.1348 C.3     1  UNL1        0.1724
     20 C          -2.4483  -16.0621   21.9454 C.3     1  UNL1        0.0019
     21 C          -1.1602  -16.1367   21.1803 C.3     1  UNL1        0.0273
     22 C          -9.0541  -17.0109   23.6193 C.3     1  UNL1        0.1139
     23 C          -8.2259  -16.4922   24.7574 C.ar    1  UNL1       -0.0029
     24 C          -8.7333  -16.6010   26.1648 C.ar    1  UNL1       -0.0026
     25 C          -7.9051  -16.0823   27.3027 C.ar    1  UNL1       -0.0003
     26 C          -6.5696  -15.4547   27.0334 C.ar    1  UNL1       -0.0000
     27 C          -6.0623  -15.3458   25.6260 C.ar    1  UNL1       -0.0003
     28 C          -6.8904  -15.8646   24.4880 C.ar    1  UNL1       -0.0026
     29 C          -8.7717  -16.5562   22.2181 C.3     1  UNL1        0.0968
     30 N          -9.8359  -16.6626   21.1663 N.3     1  UNL1       -0.2689
     31 C         -10.2452  -17.9151   20.4496 C.3     1  UNL1        0.0748
     32 C         -11.3398  -17.5617   19.4869 C.3     1  UNL1        0.0480
     33 C         -11.6072  -16.0907   19.6086 C.3     1  UNL1        0.1278
     34 O         -12.6252  -15.3121   18.8292 O.3     1  UNL1       -0.3830
     35 C         -10.6776  -15.5350   20.6466 C.3     1  UNL1        0.1017
     36 H         -12.5951  -14.3806   19.0982 H       1  UNL1        0.2104
@<TRIPOS>BOND
     1    20    21    1
     2    21    19    1
     3    19    16    1
     4    16    17    2
     5    16    18    2
     6    16    14    1
     7    14     8    1
     8     8     9   ar
     9     9    10   ar
    10    10    11   ar
    11    11     6    1
    12     6     5    1
    13     5     1    1
    14     1     2    2
    15     1     3   am
    16     3     4    1
    17     3    22    1
    18    22    29    1
    19    29    30    1
    20    30    31    1
    21    31    32    1
    22    32    33    1
    23    33    34    1
    24    33    35    1
    25    22    23    1
    26    23    24   ar
    27    24    25   ar
    28    25    26   ar
    29    26    27   ar
    30    27    28   ar
    31    11    12   ar
    32    12    13   ar
    33    13     8   ar
    34    35    30    1
    35    28    23   ar
    36    14    15    1
    37     6     7    1
    38    34    36    1
@<TRIPOS>MOLECULE
*****
 36 38 0 0 0
SMALL
GASTEIGER

@<TRIPOS>ATOM
      1 C          -9.0838  -18.5045   21.6078 C.2     1  UNL1        0.2459
      2 O          -9.0933  -18.4143   20.1106 O.2     1  UNL1       -0.2730
      3 N          -9.1202  -17.2535   22.4348 N.am    1  UNL1       -0.2729
      4 C          -9.1661  -15.9124   21.7645 C.3     1  UNL1        0.1152
      5 C          -9.0379  -19.8456   22.2781 C.3     1  UNL1        0.1738
      6 N          -7.7232  -20.4221   22.7131 N.pl3   1  UNL1       -0.3253
      7 H          -7.6692  -20.9580   23.5371 H       1  UNL1        0.1473
      8 C          -4.0257  -19.7017   20.2514 C.ar    1  UNL1        0.0645
      9 C          -5.0252  -20.7333   19.8193 C.ar    1  UNL1        0.0171
     10 C          -6.2577  -20.9734   20.6398 C.ar    1  UNL1        0.0156
     11 C          -6.4907  -20.1819   21.8925 C.ar    1  UNL1        0.0451
     12 C          -5.4912  -19.1503   22.3246 C.ar    1  UNL1        0.0156
     13 C          -4.2587  -18.9102   21.5040 C.ar    1  UNL1        0.0171
     14 N          -2.7932  -19.4616   19.4308 N.pl3   1  UNL1       -0.2188
     15 H          -2.5209  -20.1168   18.7483 H       1  UNL1        0.1734
     16 S          -1.9758  -18.2232   19.6500 S.O2    1  UNL1        0.0539
     17 O          -0.9751  -19.0220   20.4313 O.2     1  UNL1       -0.1545
     18 O          -2.9764  -17.4243   18.8687 O.2     1  UNL1       -0.1545
     19 C          -1.1582  -16.9847   19.8693 C.3     1  UNL1        0.1724
     20 C          -2.3652  -16.0341   21.9644 C.3     1  UNL1        0.0019
     21 C          -1.0976  -16.3573   21.2304 C.3     1  UNL1        0.0273
     22 C          -9.1107  -17.3438   23.9321 C.3     1  UNL1        0.1139
     23 C          -8.0863  -16.5850   24.7227 C.ar    1  UNL1       -0.0029
     24 C          -8.3476  -16.2481   26.1608 C.ar    1  UNL1       -0.0026
     25 C          -7.3232  -15.4893   26.9513 C.ar    1  UNL1       -0.0003
     26 C          -6.0377  -15.0674   26.3038 C.ar    1  UNL1       -0.0000
     27 C          -5.7764  -15.4043   24.8657 C.ar    1  UNL1       -0.0003
     28 C          -6.8008  -16.1631   24.0751 C.ar    1  UNL1       -0.0026
     29 C         -10.1254  -18.1928   24.6387 C.3     1  UNL1        0.0968
     30 N         -11.5763  -18.0888   24.2722 N.3     1  UNL1       -0.2689
     31 C         -12.1321  -17.4061   23.0577 C.3     1  UNL1        0.0748
     32 C         -13.6253  -17.5447   23.0907 C.3     1  UNL1        0.0480
     33 C         -13.9924  -18.3131   24.3256 C.3     1  UNL1        0.1278
     34 O         -15.3818  -18.6807   24.7548 O.3     1  UNL1       -0.3830
     35 C         -12.7259  -18.6495   25.0558 C.3     1  UNL1        0.1017
     36 H         -15.3425  -19.1762   25.5878 H       1  UNL1        0.2104
@<TRIPOS>BOND
     1    20    21    1
     2    21    19    1
     3    19    16    1
     4    16    17    2
     5    16    18    2
     6    16    14    1
     7    14     8    1
     8     8     9   ar
     9     9    10   ar
    10    10    11   ar
    11    11     6    1
    12     6     5    1
    13     5     1    1
    14     1     2    2
    15     1     3   am
    16     3     4    1
    17     3    22    1
    18    22    29    1
    19    29    30    1
    20    30    31    1
    21    31    32    1
    22    32    33    1
    23    33    34    1
    24    33    35    1
    25    22    23    1
    26    23    24   ar
    27    24    25   ar
    28    25    26   ar
    29    26    27   ar
    30    27    28   ar
    31    11    12   ar
    32    12    13   ar
    33    13     8   ar
    34    35    30    1
    35    28    23   ar
    36    14    15    1
    37     6     7    1
    38    34    36    1
@<TRIPOS>MOLECULE
*****
 36 38 0 0 0
SMALL
GASTEIGER

@<TRIPOS>ATOM
      1 C         -10.3424  -17.5549   20.3358 C.2     1  UNL1        0.2459
      2 O         -10.7660  -16.9361   19.0367 O.2     1  UNL1       -0.2730
      3 N         -10.1149  -16.6896   21.5398 N.am    1  UNL1       -0.2729
      4 C         -10.3110  -15.2055   21.4446 C.3     1  UNL1        0.1152
      5 C         -10.1463  -19.0389   20.4309 C.3     1  UNL1        0.1738
      6 N          -8.9872  -19.6885   19.7348 N.pl3   1  UNL1       -0.3253
      7 H          -9.1197  -20.1285   18.8641 H       1  UNL1        0.1473
      8 C          -4.9044  -19.6257   21.6259 C.ar    1  UNL1        0.0645
      9 C          -6.1031  -20.0085   22.4421 C.ar    1  UNL1        0.0171
     10 C          -7.4641  -20.0295   21.8117 C.ar    1  UNL1        0.0156
     11 C          -7.6263  -19.6675   20.3652 C.ar    1  UNL1        0.0451
     12 C          -6.4275  -19.2847   19.5489 C.ar    1  UNL1        0.0156
     13 C          -5.0665  -19.2637   20.1793 C.ar    1  UNL1        0.0171
     14 N          -3.5434  -19.6047   22.2562 N.pl3   1  UNL1       -0.2188
     15 H          -3.3624  -20.1511   23.0550 H       1  UNL1        0.1734
     16 S          -2.4582  -18.7514   21.6697 S.O2    1  UNL1        0.0539
     17 O          -1.6973  -19.9848   21.2830 O.2     1  UNL1       -0.1545
     18 O          -3.2191  -17.5179   22.0563 O.2     1  UNL1       -0.1545
     19 C          -1.3729  -17.8981   21.0830 C.3     1  UNL1        0.1724
     20 C          -2.0036  -17.8154   18.5640 C.3     1  UNL1        0.0019
     21 C          -0.9891  -18.0585   19.6419 C.3     1  UNL1        0.0273
     22 C          -9.6913  -17.3083   22.8389 C.3     1  UNL1        0.1139
     23 C          -8.5624  -16.7076   23.6230 C.ar    1  UNL1       -0.0029
     24 C          -7.1852  -16.6510   23.0315 C.ar    1  UNL1       -0.0026
     25 C          -6.0564  -16.0503   23.8156 C.ar    1  UNL1       -0.0003
     26 C          -6.3048  -15.5061   25.1911 C.ar    1  UNL1       -0.0000
     27 C          -7.6821  -15.5626   25.7826 C.ar    1  UNL1       -0.0003
     28 C          -8.8109  -16.1633   24.9985 C.ar    1  UNL1       -0.0026
     29 C         -10.3966  -18.5279   23.3539 C.3     1  UNL1        0.0968
     30 N         -11.8113  -18.4260   23.8422 N.3     1  UNL1       -0.2689
     31 C         -12.9774  -17.8959   23.0617 C.3     1  UNL1        0.0748
     32 C         -14.1950  -17.9786   23.9338 C.3     1  UNL1        0.0480
     33 C         -13.7814  -18.5599   25.2534 C.3     1  UNL1        0.1278
     34 O         -14.6828  -18.8191   26.4240 O.3     1  UNL1       -0.3830
     35 C         -12.3081  -18.8364   25.1967 C.3     1  UNL1        0.1017
     36 H         -14.1661  -19.1982   27.1522 H       1  UNL1        0.2104
@<TRIPOS>BOND
     1    20    21    1
     2    21    19    1
     3    19    16    1
     4    16    17    2
     5    16    18    2
     6    16    14    1
     7    14     8    1
     8     8     9   ar
     9     9    10   ar
    10    10    11   ar
    11    11     6    1
    12     6     5    1
    13     5     1    1
    14     1     2    2
    15     1     3   am
    16     3     4    1
    17     3    22    1
    18    22    29    1
    19    29    30    1
    20    30    31    1
    21    31    32    1
    22    32    33    1
    23    33    34    1
    24    33    35    1
    25    22    23    1
    26    23    24   ar
    27    24    25   ar
    28    25    26   ar
    29    26    27   ar
    30    27    28   ar
    31    11    12   ar
    32    12    13   ar
    33    13     8   ar
    34    35    30    1
    35    28    23   ar
    36    14    15    1
    37     6     7    1
    38    34    36    1
@<TRIPOS>MOLECULE
*****
 36 38 0 0 0
SMALL
GASTEIGER

@<TRIPOS>ATOM
      1 C          -9.6121  -19.5977   24.2091 C.2     1  UNL1        0.2459
      2 O          -9.7847  -20.8803   24.9674 O.2     1  UNL1       -0.2730
      3 N         -10.7081  -18.5734   24.2084 N.am    1  UNL1       -0.2729
      4 C         -11.9766  -18.8319   24.9660 C.3     1  UNL1        0.1152
      5 C          -8.3435  -19.3392   23.4515 C.3     1  UNL1        0.1738
      6 N          -7.7241  -20.4314   22.6311 N.pl3   1  UNL1       -0.3253
      7 H          -8.1338  -21.3265   22.6134 H       1  UNL1        0.1473
      8 C          -3.9932  -19.6174   20.2505 C.ar    1  UNL1        0.0645
      9 C          -4.9903  -20.6252   19.7608 C.ar    1  UNL1        0.0171
     10 C          -6.2340  -20.8965   20.5543 C.ar    1  UNL1        0.0156
     11 C          -6.4805  -20.1601   21.8376 C.ar    1  UNL1        0.0451
     12 C          -5.4833  -19.1523   22.3273 C.ar    1  UNL1        0.0156
     13 C          -4.2396  -18.8809   21.5338 C.ar    1  UNL1        0.0171
     14 N          -2.7495  -19.3460   19.4570 N.pl3   1  UNL1       -0.2188
     15 H          -2.4993  -19.9423   18.7146 H       1  UNL1        0.1734
     16 S          -1.8870  -18.1661   19.7945 S.O2    1  UNL1        0.0539
     17 O          -0.9584  -19.0633   20.5579 O.2     1  UNL1       -0.1545
     18 O          -2.8156  -17.2690   19.0311 O.2     1  UNL1       -0.1545
     19 C          -1.0244  -16.9862   20.1320 C.3     1  UNL1        0.1724
     20 C          -2.3733  -16.5650   22.3122 C.3     1  UNL1        0.0019
     21 C          -1.3891  -16.0952   21.2823 C.3     1  UNL1        0.0273
     22 C         -10.5354  -17.2908   23.4502 C.3     1  UNL1        0.1139
     23 C         -10.8309  -17.2429   21.9803 C.ar    1  UNL1       -0.0029
     24 C         -10.6174  -18.4615   21.1322 C.ar    1  UNL1       -0.0026
     25 C         -10.9129  -18.4135   19.6624 C.ar    1  UNL1       -0.0003
     26 C         -11.4219  -17.1469   19.0407 C.ar    1  UNL1       -0.0000
     27 C         -11.6355  -15.9283   19.8888 C.ar    1  UNL1       -0.0003
     28 C         -11.3400  -15.9763   21.3586 C.ar    1  UNL1       -0.0026
     29 C         -10.0673  -16.0561   24.1617 C.3     1  UNL1        0.0968
     30 N          -8.5990  -15.7865   24.3091 N.3     1  UNL1       -0.2689
     31 C          -7.7989  -15.9278   25.5699 C.3     1  UNL1        0.0748
     32 C          -6.3786  -15.5570   25.2616 C.3     1  UNL1        0.0480
     33 C          -6.3008  -15.1866   23.8101 C.3     1  UNL1        0.1278
     34 O          -5.0674  -14.7508   23.0762 O.3     1  UNL1       -0.3830
     35 C          -7.6733  -15.3284   23.2214 C.3     1  UNL1        0.1017
     36 H          -5.2893  -14.5707   22.1493 H       1  UNL1        0.2104
@<TRIPOS>BOND
     1    20    21    1
     2    21    19    1
     3    19    16    1
     4    16    17    2
     5    16    18    2
     6    16    14    1
     7    14     8    1
     8     8     9   ar
     9     9    10   ar
    10    10    11   ar
    11    11     6    1
    12     6     5    1
    13     5     1    1
    14     1     2    2
    15     1     3   am
    16     3     4    1
    17     3    22    1
    18    22    29    1
    19    29    30    1
    20    30    31    1
    21    31    32    1
    22    32    33    1
    23    33    34    1
    24    33    35    1
    25    22    23    1
    26    23    24   ar
    27    24    25   ar
    28    25    26   ar
    29    26    27   ar
    30    27    28   ar
    31    11    12   ar
    32    12    13   ar
    33    13     8   ar
    34    35    30    1
    35    28    23   ar
    36    14    15    1
    37     6     7    1
    38    34    36    1
@<TRIPOS>MOLECULE
*****
 36 38 0 0 0
SMALL
GASTEIGER

@<TRIPOS>ATOM
      1 C         -10.7816  -17.9226   20.0964 C.2     1  UNL1        0.2459
      2 O         -11.8097  -17.5878   19.0568 O.2     1  UNL1       -0.2730
      3 N         -10.3646  -16.8881   21.0994 N.am    1  UNL1       -0.2729
      4 C         -10.9756  -15.5187   21.0626 C.3     1  UNL1        0.1152
      5 C         -10.1706  -19.2920   20.1332 C.3     1  UNL1        0.1738
      6 N          -9.1358  -19.6791   19.1187 N.pl3   1  UNL1       -0.3253
      7 H          -9.3877  -19.7796   18.1723 H       1  UNL1        0.1473
      8 C          -4.8798  -20.3810   20.4009 C.ar    1  UNL1        0.0645
      9 C          -5.4026  -18.9812   20.2704 C.ar    1  UNL1        0.0171
     10 C          -6.8213  -18.7472   19.8430 C.ar    1  UNL1        0.0156
     11 C          -7.7171  -19.9130   19.5461 C.ar    1  UNL1        0.0451
     12 C          -7.1943  -21.3129   19.6767 C.ar    1  UNL1        0.0156
     13 C          -5.7757  -21.5468   20.1041 C.ar    1  UNL1        0.0171
     14 N          -3.4612  -20.6150   20.8283 N.pl3   1  UNL1       -0.2188
     15 H          -3.0062  -21.4538   20.5864 H       1  UNL1        0.1734
     16 S          -2.7358  -19.5709   21.6243 S.O2    1  UNL1        0.0539
     17 O          -1.6829  -19.4903   20.5590 O.2     1  UNL1       -0.1545
     18 O          -3.7887  -19.6514   22.6896 O.2     1  UNL1       -0.1545
     19 C          -2.0103  -18.5267   22.4202 C.3     1  UNL1        0.1724
     20 C          -2.3283  -16.0098   21.8597 C.3     1  UNL1        0.0019
     21 C          -2.6655  -17.2065   22.6990 C.3     1  UNL1        0.0273
     22 C          -9.3366  -17.2230   22.1391 C.3     1  UNL1        0.1139
     23 C          -9.5669  -18.3682   23.0801 C.ar    1  UNL1       -0.0029
     24 C         -10.6751  -18.2990   24.0886 C.ar    1  UNL1       -0.0026
     25 C         -10.9054  -19.4442   25.0296 C.ar    1  UNL1       -0.0003
     26 C         -10.0276  -20.6586   24.9619 C.ar    1  UNL1       -0.0000
     27 C          -8.9194  -20.7278   23.9534 C.ar    1  UNL1       -0.0003
     28 C          -8.6891  -19.5826   23.0125 C.ar    1  UNL1       -0.0026
     29 C          -8.0781  -16.4126   22.2378 C.3     1  UNL1        0.0968
     30 N          -7.5272  -16.0438   23.5834 N.3     1  UNL1       -0.2689
     31 C          -6.0799  -16.0564   23.9772 C.3     1  UNL1        0.0748
     32 C          -5.9852  -15.6180   25.4086 C.3     1  UNL1        0.0480
     33 C          -7.3740  -15.3344   25.8994 C.3     1  UNL1        0.1278
     34 O          -7.7446  -14.8693   27.2765 O.3     1  UNL1       -0.3830
     35 C          -8.3271  -15.5976   24.7713 C.3     1  UNL1        0.1017
     36 H          -8.7069  -14.7613   27.3332 H       1  UNL1        0.2104
@<TRIPOS>BOND
     1    20    21    1
     2    21    19    1
     3    19    16    1
     4    16    17    2
     5    16    18    2
     6    16    14    1
     7    14     8    1
     8     8     9   ar
     9     9    10   ar
    10    10    11   ar
    11    11     6    1
    12     6     5    1
    13     5     1    1
    14     1     2    2
    15     1     3   am
    16     3     4    1
    17     3    22    1
    18    22    29    1
    19    29    30    1
    20    30    31    1
    21    31    32    1
    22    32    33    1
    23    33    34    1
    24    33    35    1
    25    22    23    1
    26    23    24   ar
    27    24    25   ar
    28    25    26   ar
    29    26    27   ar
    30    27    28   ar
    31    11    12   ar
    32    12    13   ar
    33    13     8   ar
    34    35    30    1
    35    28    23   ar
    36    14    15    1
    37     6     7    1
    38    34    36    1
@<TRIPOS>MOLECULE
*****
 36 38 0 0 0
SMALL
GASTEIGER

@<TRIPOS>ATOM
      1 C          -9.6067  -16.0263   21.5049 C.2     1  UNL1        0.2459
      2 O          -9.0433  -14.6780   21.1664 O.2     1  UNL1       -0.2730
      3 N         -10.7608  -16.5756   20.7197 N.am    1  UNL1       -0.2729
      4 C         -11.3514  -15.7765   19.5960 C.3     1  UNL1        0.1152
      5 C          -9.0161  -16.8253   22.6286 C.3     1  UNL1        0.1738
      6 N          -7.9623  -16.2190   23.5070 N.pl3   1  UNL1       -0.3253
      7 H          -8.2119  -15.5519   24.1867 H       1  UNL1        0.1473
      8 C          -3.6593  -17.4490   23.0358 C.ar    1  UNL1        0.0645
      9 C          -3.9978  -16.1308   23.6665 C.ar    1  UNL1        0.0171
     10 C          -5.4321  -15.7208   23.8236 C.ar    1  UNL1        0.0156
     11 C          -6.5280  -16.6290   23.3500 C.ar    1  UNL1        0.0451
     12 C          -6.1895  -17.9472   22.7193 C.ar    1  UNL1        0.0156
     13 C          -4.7552  -18.3572   22.5622 C.ar    1  UNL1        0.0171
     14 N          -2.2250  -17.8590   22.8788 N.pl3   1  UNL1       -0.2188
     15 H          -1.6614  -17.9929   23.6747 H       1  UNL1        0.1734
     16 S          -1.6496  -18.0650   21.5090 S.O2    1  UNL1        0.0539
     17 O          -1.6533  -16.5819   21.2844 O.2     1  UNL1       -0.1545
     18 O          -1.6458  -19.5480   21.7336 O.2     1  UNL1       -0.1545
     19 C          -1.0741  -18.2709   20.1391 C.3     1  UNL1        0.1724
     20 C          -3.4362  -18.3928   19.0641 C.3     1  UNL1        0.0019
     21 C          -1.9583  -18.1724   18.9315 C.3     1  UNL1        0.0273
     22 C         -11.3242  -17.9239   21.0582 C.3     1  UNL1        0.1139
     23 C         -11.9717  -18.1529   22.3918 C.ar    1  UNL1       -0.0029
     24 C         -13.3481  -17.6198   22.6586 C.ar    1  UNL1       -0.0026
     25 C         -13.9956  -17.8488   23.9921 C.ar    1  UNL1       -0.0003
     26 C         -13.2667  -18.6110   25.0588 C.ar    1  UNL1       -0.0000
     27 C         -11.8903  -19.1441   24.7919 C.ar    1  UNL1       -0.0003
     28 C         -11.2428  -18.9151   23.4584 C.ar    1  UNL1       -0.0026
     29 C         -11.2401  -19.0432   20.0632 C.3     1  UNL1        0.0968
     30 N          -9.9048  -19.6153   19.6890 N.3     1  UNL1       -0.2689
     31 C          -9.5955  -20.3895   18.4420 C.3     1  UNL1        0.0748
     32 C          -8.1440  -20.7662   18.4785 C.3     1  UNL1        0.0480
     33 C          -7.5563  -20.2249   19.7480 C.3     1  UNL1        0.1278
     34 O          -6.1307  -20.3695   20.1915 O.3     1  UNL1       -0.3830
     35 C          -8.6446  -19.5135   20.4962 C.3     1  UNL1        0.1017
     36 H          -6.0120  -19.9287   21.0473 H       1  UNL1        0.2104
@<TRIPOS>BOND
     1    20    21    1
     2    21    19    1
     3    19    16    1
     4    16    17    2
     5    16    18    2
     6    16    14    1
     7    14     8    1
     8     8     9   ar
     9     9    10   ar
    10    10    11   ar
    11    11     6    1
    12     6     5    1
    13     5     1    1
    14     1     2    2
    15     1     3   am
    16     3     4    1
    17     3    22    1
    18    22    29    1
    19    29    30    1
    20    30    31    1
    21    31    32    1
    22    32    33    1
    23    33    34    1
    24    33    35    1
    25    22    23    1
    26    23    24   ar
    27    24    25   ar
    28    25    26   ar
    29    26    27   ar
    30    27    28   ar
    31    11    12   ar
    32    12    13   ar
    33    13     8   ar
    34    35    30    1
    35    28    23   ar
    36    14    15    1
    37     6     7    1
    38    34    36    1
@<TRIPOS>MOLECULE
*****
 36 38 0 0 0
SMALL
GASTEIGER

@<TRIPOS>ATOM
      1 C          -4.8554  -15.9226   25.0106 C.2     1  UNL1        0.2459
      2 O          -4.9912  -15.7170   26.4901 O.2     1  UNL1       -0.2730
      3 N          -4.0299  -17.0589   24.4838 N.am    1  UNL1       -0.2729
      4 C          -3.3402  -17.9896   25.4368 C.3     1  UNL1        0.1152
      5 C          -5.5452  -14.9919   24.0576 C.3     1  UNL1        0.1738
      6 N          -6.9799  -14.6165   24.2822 N.pl3   1  UNL1       -0.3253
      7 H          -7.2034  -13.8416   24.8468 H       1  UNL1        0.1473
      8 C         -10.2628  -17.0321   22.3749 C.ar    1  UNL1        0.0645
      9 C          -9.3770  -16.1688   21.5264 C.ar    1  UNL1        0.0171
     10 C          -8.2827  -15.3636   22.1621 C.ar    1  UNL1        0.0156
     11 C          -8.0742  -15.4217   23.6464 C.ar    1  UNL1        0.0451
     12 C          -8.9600  -16.2851   24.4949 C.ar    1  UNL1        0.0156
     13 C         -10.0543  -17.0903   23.8592 C.ar    1  UNL1        0.0171
     14 N         -11.3571  -17.8373   21.7392 N.pl3   1  UNL1       -0.2188
     15 H         -12.2725  -17.7944   22.0990 H       1  UNL1        0.1734
     16 S         -11.0567  -18.7079   20.5552 S.O2    1  UNL1        0.0539
     17 O         -11.7008  -17.6998   19.6505 O.2     1  UNL1       -0.1545
     18 O         -10.4126  -19.7161   21.4600 O.2     1  UNL1       -0.1545
     19 C         -10.7564  -19.5785   19.3712 C.3     1  UNL1        0.1724
     20 C          -9.0434  -20.9644   17.9945 C.3     1  UNL1        0.0019
     21 C          -9.3360  -19.9263   19.0370 C.3     1  UNL1        0.0273
     22 C          -3.8942  -17.2646   23.0043 C.3     1  UNL1        0.1139
     23 C          -4.6777  -18.3469   22.3224 C.ar    1  UNL1       -0.0029
     24 C          -6.1749  -18.3585   22.4113 C.ar    1  UNL1       -0.0026
     25 C          -6.9583  -19.4408   21.7295 C.ar    1  UNL1       -0.0003
     26 C          -6.2444  -20.5115   20.9588 C.ar    1  UNL1       -0.0000
     27 C          -4.7471  -20.4999   20.8700 C.ar    1  UNL1       -0.0003
     28 C          -3.9638  -19.4176   21.5518 C.ar    1  UNL1       -0.0026
     29 C          -2.9750  -16.3879   22.2064 C.3     1  UNL1        0.0968
     30 N          -2.1721  -16.9705   21.0812 N.3     1  UNL1       -0.2689
     31 C          -0.8789  -17.7185   21.2158 C.3     1  UNL1        0.0748
     32 C          -0.4291  -18.1177   19.8417 C.3     1  UNL1        0.0480
     33 C          -1.4443  -17.6164   18.8577 C.3     1  UNL1        0.1278
     34 O          -1.3915  -17.7931   17.3691 O.3     1  UNL1       -0.3830
     35 C          -2.5216  -16.9074   19.6238 C.3     1  UNL1        0.1017
     36 H          -2.1686  -17.3751   16.9661 H       1  UNL1        0.2104
@<TRIPOS>BOND
     1    20    21    1
     2    21    19    1
     3    19    16    1
     4    16    17    2
     5    16    18    2
     6    16    14    1
     7    14     8    1
     8     8     9   ar
     9     9    10   ar
    10    10    11   ar
    11    11     6    1
    12     6     5    1
    13     5     1    1
    14     1     2    2
    15     1     3   am
    16     3     4    1
    17     3    22    1
    18    22    29    1
    19    29    30    1
    20    30    31    1
    21    31    32    1
    22    32    33    1
    23    33    34    1
    24    33    35    1
    25    22    23    1
    26    23    24   ar
    27    24    25   ar
    28    25    26   ar
    29    26    27   ar
    30    27    28   ar
    31    11    12   ar
    32    12    13   ar
    33    13     8   ar
    34    35    30    1
    35    28    23   ar
    36    14    15    1
    37     6     7    1
    38    34    36    1
@<TRIPOS>MOLECULE
*****
 36 38 0 0 0
SMALL
GASTEIGER

@<TRIPOS>ATOM
      1 C           3.8922    1.3909   20.9775 C.2     1  UNL1        0.2459
      2 O           4.6485    2.5441   21.5675 O.2     1  UNL1       -0.2730
      3 N           3.8042    1.2350   19.4882 N.am    1  UNL1       -0.2729
      4 C           4.4725    2.2323   18.5889 C.3     1  UNL1        0.1152
      5 C           3.2239    0.3935   21.8768 C.3     1  UNL1        0.1738
      6 N           4.0312   -0.3606   22.8914 N.pl3   1  UNL1       -0.3253
      7 H           3.8785   -0.2103   23.8523 H       1  UNL1        0.1473
      8 C           7.1513   -3.3098   21.5432 C.ar    1  UNL1        0.0645
      9 C           5.9497   -3.7848   22.3050 C.ar    1  UNL1        0.0171
     10 C           4.9096   -2.8018   22.7544 C.ar    1  UNL1        0.0156
     11 C           5.0712   -1.3436   22.4420 C.ar    1  UNL1        0.0451
     12 C           6.2729   -0.8685   21.6803 C.ar    1  UNL1        0.0156
     13 C           7.3129   -1.8516   21.2309 C.ar    1  UNL1        0.0171
     14 N           8.1913   -4.2928   21.0938 N.pl3   1  UNL1       -0.2188
     15 H           8.4785   -4.3097   20.1523 H       1  UNL1        0.1734
     16 S           8.7938   -5.2501   22.0789 S.O2    1  UNL1        0.0539
     17 O           9.2455   -4.0962   22.9241 O.2     1  UNL1       -0.1545
     18 O           8.3421   -6.4041   21.2338 O.2     1  UNL1       -0.1545
     19 C           9.3964   -6.2075   23.0641 C.3     1  UNL1        0.1724
     20 C           9.0524   -7.8607   25.0386 C.3     1  UNL1        0.0019
     21 C           8.5143   -7.1434   23.8361 C.3     1  UNL1        0.0273
     22 C           3.0480    0.0818   18.8982 C.3     1  UNL1        0.1139
     23 C           3.6754   -1.2799   18.8486 C.ar    1  UNL1       -0.0029
     24 C           4.9915   -1.4745   18.1558 C.ar    1  UNL1       -0.0026
     25 C           5.6188   -2.8360   18.1063 C.ar    1  UNL1       -0.0003
     26 C           4.9301   -4.0030   18.7495 C.ar    1  UNL1       -0.0000
     27 C           3.6140   -3.8084   19.4423 C.ar    1  UNL1       -0.0003
     28 C           2.9867   -2.4469   19.4919 C.ar    1  UNL1       -0.0026
     29 C           1.6643    0.2901   18.3578 C.3     1  UNL1        0.0968
     30 N           0.7757    1.3402   18.9560 N.3     1  UNL1       -0.2689
     31 C           0.4572    2.6751   18.3505 C.3     1  UNL1        0.0748
     32 C          -0.4657    3.3996   19.2850 C.3     1  UNL1        0.0480
     33 C          -0.7176    2.5125   20.4681 C.3     1  UNL1        0.1278
     34 O          -1.5845    2.8405   21.6474 O.3     1  UNL1       -0.3830
     35 C           0.0497    1.2396   20.2647 C.3     1  UNL1        0.1017
     36 H          -1.5772    2.0974   22.2708 H       1  UNL1        0.2104
@<TRIPOS>BOND
     1    20    21    1
     2    21    19    1
     3    19    16    1
     4    16    17    2
     5    16    18    2
     6    16    14    1
     7    14     8    1
     8     8     9   ar
     9     9    10   ar
    10    10    11   ar
    11    11     6    1
    12     6     5    1
    13     5     1    1
    14     1     2    2
    15     1     3   am
    16     3     4    1
    17     3    22    1
    18    22    29    1
    19    29    30    1
    20    30    31    1
    21    31    32    1
    22    32    33    1
    23    33    34    1
    24    33    35    1
    25    22    23    1
    26    23    24   ar
    27    24    25   ar
    28    25    26   ar
    29    26    27   ar
    30    27    28   ar
    31    11    12   ar
    32    12    13   ar
    33    13     8   ar
    34    35    30    1
    35    28    23   ar
    36    14    15    1
    37     6     7    1
    38    34    36    1
@<TRIPOS>MOLECULE
*****
 36 38 0 0 0
SMALL
GASTEIGER

@<TRIPOS>ATOM
      1 C          -4.1766  -17.8761   23.4497 C.2     1  UNL1        0.2459
      2 O          -3.4101  -18.0731   24.7240 O.2     1  UNL1       -0.2730
      3 N          -4.3577  -19.0218   22.4986 N.am    1  UNL1       -0.2729
      4 C          -3.7724  -20.3645   22.8218 C.3     1  UNL1        0.1152
      5 C          -4.7619  -16.5333   23.1265 C.3     1  UNL1        0.1738
      6 N          -5.7656  -15.9105   24.0510 N.pl3   1  UNL1       -0.3253
      7 H          -5.4662  -15.3025   24.7651 H       1  UNL1        0.1473
      8 C         -10.1451  -16.8210   23.5604 C.ar    1  UNL1        0.0645
      9 C          -9.3493  -16.3139   22.3944 C.ar    1  UNL1        0.0171
     10 C          -7.8894  -16.0104   22.5580 C.ar    1  UNL1        0.0156
     11 C          -7.2254  -16.2140   23.8875 C.ar    1  UNL1        0.0451
     12 C          -8.0212  -16.7211   25.0534 C.ar    1  UNL1        0.0156
     13 C          -9.4811  -17.0246   24.8899 C.ar    1  UNL1        0.0171
     14 N         -11.6049  -17.1245   23.3968 N.pl3   1  UNL1       -0.2188
     15 H         -12.1019  -17.5602   24.1265 H       1  UNL1        0.1734
     16 S         -12.3076  -16.7642   22.1216 S.O2    1  UNL1        0.0539
     17 O         -12.5244  -15.3714   22.6346 O.2     1  UNL1       -0.1545
     18 O         -12.0909  -18.1569   21.6086 O.2     1  UNL1       -0.1545
     19 C         -13.0104  -16.4037   20.8463 C.3     1  UNL1        0.1724
     20 C         -11.1291  -15.4531   19.3273 C.3     1  UNL1        0.0019
     21 C         -12.2598  -16.4139   19.5476 C.3     1  UNL1        0.0273
     22 C          -5.1242  -18.8248   21.2244 C.3     1  UNL1        0.1139
     23 C          -6.5876  -19.1497   21.1715 C.ar    1  UNL1       -0.0029
     24 C          -7.3113  -19.5560   22.4209 C.ar    1  UNL1       -0.0026
     25 C          -8.7747  -19.8809   22.3680 C.ar    1  UNL1       -0.0003
     26 C          -9.5144  -19.7995   21.0656 C.ar    1  UNL1       -0.0000
     27 C          -8.7908  -19.3932   19.8162 C.ar    1  UNL1       -0.0003
     28 C          -7.3274  -19.0683   19.8691 C.ar    1  UNL1       -0.0026
     29 C          -4.4272  -18.3028   20.0030 C.3     1  UNL1        0.0968
     30 N          -2.9540  -18.0228   20.0422 N.3     1  UNL1       -0.2689
     31 C          -2.3151  -16.7085   20.3803 C.3     1  UNL1        0.0748
     32 C          -0.8274  -16.8813   20.2972 C.3     1  UNL1        0.0480
     33 C          -0.5469  -18.3025   19.9079 C.3     1  UNL1        0.1278
     34 O           0.8098  -18.9114   19.7107 O.3     1  UNL1       -0.3830
     35 C          -1.8613  -19.0080   19.7503 C.3     1  UNL1        0.1017
     36 H           0.7126  -19.8439   19.4622 H       1  UNL1        0.2104
@<TRIPOS>BOND
     1    20    21    1
     2    21    19    1
     3    19    16    1
     4    16    17    2
     5    16    18    2
     6    16    14    1
     7    14     8    1
     8     8     9   ar
     9     9    10   ar
    10    10    11   ar
    11    11     6    1
    12     6     5    1
    13     5     1    1
    14     1     2    2
    15     1     3   am
    16     3     4    1
    17     3    22    1
    18    22    29    1
    19    29    30    1
    20    30    31    1
    21    31    32    1
    22    32    33    1
    23    33    34    1
    24    33    35    1
    25    22    23    1
    26    23    24   ar
    27    24    25   ar
    28    25    26   ar
    29    26    27   ar
    30    27    28   ar
    31    11    12   ar
    32    12    13   ar
    33    13     8   ar
    34    35    30    1
    35    28    23   ar
    36    14    15    1
    37     6     7    1
    38    34    36    1
