@<TRIPOS>MOLECULE
*****
 30 33 0 0 0
SMALL
GASTEIGER

@<TRIPOS>ATOM
      1 C         -10.1698  -17.8275   24.3457 C.ar    1  UNL1        0.0284
      2 C          -9.6624  -18.3077   25.6731 C.ar    1  UNL1        0.0027
      3 C          -8.8608  -17.3888   26.5466 C.ar    1  UNL1        0.0339
      4 C          -8.5665  -15.9897   26.0928 C.ar    1  UNL1        0.1311
      5 N          -9.0740  -15.5095   24.7654 N.ar    1  UNL1       -0.2035
      6 C          -9.8756  -16.4284   23.8918 C.ar    1  UNL1        0.2196
      7 F         -10.3829  -15.9482   22.5645 F       1  UNL1       -0.1835
      8 N          -7.7649  -15.0708   26.9664 N.pl3   1  UNL1       -0.3144
      9 H          -8.2197  -14.3892   27.5120 H       1  UNL1        0.1485
     10 C          -6.2703  -15.1906   27.0087 C.3     1  UNL1        0.1169
     11 C          -5.5203  -15.6518   25.7943 C.ar    1  UNL1        0.0168
     12 C          -4.6737  -16.8883   25.8602 C.ar    1  UNL1        0.0037
     13 C          -3.9237  -17.3494   24.6459 C.ar    1  UNL1        0.0574
     14 C          -4.0201  -16.5741   23.3654 C.ar    1  UNL1        0.2250
     15 N          -4.8667  -15.3375   23.2995 N.ar    1  UNL1       -0.2104
     16 C          -5.6167  -14.8764   24.5139 C.ar    1  UNL1        0.0994
     17 O          -3.2700  -17.0352   22.1511 O.3     1  UNL1       -0.4561
     18 C          -2.0772  -16.2642   21.6687 C.3     1  UNL1        0.2542
     19 C         -10.9714  -18.7464   23.4722 C.3     1  UNL1        0.0603
     20 C          -6.7113  -19.5297   21.2464 C.2     1  UNL1        0.1673
     21 C          -6.8378  -19.5938   19.7531 C.2     1  UNL1        0.2683
     22 N          -8.1802  -19.4226   19.1061 N.2     1  UNL1       -0.0278
     23 C          -9.3961  -19.1872   19.9523 C.2     1  UNL1        0.3719
     24 N         -10.8399  -18.9837   19.6003 N.2     1  UNL1       -0.0311
     25 C         -11.6058  -18.7938   20.8760 C.2     1  UNL1        0.2319
     26 C         -10.6353  -18.8799   22.0165 C.2     1  UNL1        0.0329
     27 C          -9.2696  -19.1231   21.4455 C.2     1  UNL1        0.0739
     28 C          -7.9272  -19.2943   22.0926 C.3     1  UNL1        0.1019
     29 C          -4.1638  -20.0014   21.0523 C.3     1  UNL1        0.2522
     30 O          -5.3689  -19.7009   21.8934 O.2     1  UNL1       -0.4715
@<TRIPOS>BOND
     1    29    30    1
     2    30    20    1
     3    20    21    2
     4    21    22    1
     5    22    23    2
     6    23    24    1
     7    24    25    2
     8    25    26    1
     9    26    19    1
    10    19     1    1
    11     1     2   ar
    12     2     3   ar
    13     3     4   ar
    14     4     8    1
    15     8    10    1
    16    10    11    1
    17    11    12   ar
    18    12    13   ar
    19    13    14   ar
    20    14    17    1
    21    17    18    1
    22    14    15   ar
    23    15    16   ar
    24     4     5   ar
    25     5     6   ar
    26     6     7    1
    27    26    27    2
    28    27    28    1
    29    28    20    1
    30    27    23    1
    31     6     1   ar
    32    16    11   ar
    33     8     9    1
@<TRIPOS>MOLECULE
*****
 30 33 0 0 0
SMALL
GASTEIGER

@<TRIPOS>ATOM
      1 C          -6.7252  -20.3139   20.8394 C.ar    1  UNL1        0.0284
      2 C          -7.2042  -20.5472   22.2416 C.ar    1  UNL1        0.0027
      3 C          -8.5475  -20.0355   22.6702 C.ar    1  UNL1        0.0339
      4 C          -9.4118  -19.2904   21.6967 C.ar    1  UNL1        0.1311
      5 N          -8.9328  -19.0572   20.2944 N.ar    1  UNL1       -0.2035
      6 C          -7.5896  -19.5689   19.8657 C.ar    1  UNL1        0.2196
      7 F          -7.1107  -19.3356   18.4635 F       1  UNL1       -0.1835
      8 N         -10.7551  -18.7787   22.1253 N.pl3   1  UNL1       -0.3144
      9 H         -11.5598  -19.3271   21.9809 H       1  UNL1        0.1485
     10 C         -10.8723  -17.4314   22.7741 C.3     1  UNL1        0.1169
     11 C         -10.0797  -17.1224   24.0096 C.ar    1  UNL1        0.0168
     12 C          -9.4107  -15.7881   24.1574 C.ar    1  UNL1        0.0037
     13 C          -8.6181  -15.4791   25.3928 C.ar    1  UNL1        0.0574
     14 C          -8.4945  -16.5046   26.4806 C.ar    1  UNL1        0.2250
     15 N          -9.1636  -17.8390   26.3328 N.ar    1  UNL1       -0.2104
     16 C          -9.9561  -18.1479   25.0973 C.ar    1  UNL1        0.0994
     17 O          -7.7020  -16.1956   27.7160 O.3     1  UNL1       -0.4561
     18 C          -6.7386  -15.0459   27.7211 C.3     1  UNL1        0.2542
     19 C          -5.3820  -20.8257   20.4107 C.3     1  UNL1        0.0603
     20 C          -3.7856  -17.1143   23.1299 C.2     1  UNL1        0.1673
     21 C          -2.6058  -16.4139   22.5239 C.2     1  UNL1        0.2683
     22 N          -2.0477  -16.8823   21.2128 N.2     1  UNL1       -0.0278
     23 C          -2.6693  -18.0513   20.5077 C.2     1  UNL1        0.3719
     24 N          -2.3396  -18.7339   19.2134 N.2     1  UNL1       -0.0311
     25 C          -3.3156  -19.8563   19.0195 C.2     1  UNL1        0.2319
     26 C          -4.2486  -19.8673   20.1940 C.2     1  UNL1        0.0329
     27 C          -3.8491  -18.7517   21.1138 C.2     1  UNL1        0.0739
     28 C          -4.4073  -18.2833   22.4249 C.3     1  UNL1        0.1019
     29 C          -5.2809  -15.4753   24.4819 C.3     1  UNL1        0.2522
     30 O          -4.3438  -16.6459   24.4410 O.2     1  UNL1       -0.4715
@<TRIPOS>BOND
     1    29    30    1
     2    30    20    1
     3    20    21    2
     4    21    22    1
     5    22    23    2
     6    23    24    1
     7    24    25    2
     8    25    26    1
     9    26    19    1
    10    19     1    1
    11     1     2   ar
    12     2     3   ar
    13     3     4   ar
    14     4     8    1
    15     8    10    1
    16    10    11    1
    17    11    12   ar
    18    12    13   ar
    19    13    14   ar
    20    14    17    1
    21    17    18    1
    22    14    15   ar
    23    15    16   ar
    24     4     5   ar
    25     5     6   ar
    26     6     7    1
    27    26    27    2
    28    27    28    1
    29    28    20    1
    30    27    23    1
    31     6     1   ar
    32    16    11   ar
    33     8     9    1
@<TRIPOS>MOLECULE
*****
 30 33 0 0 0
SMALL
GASTEIGER

@<TRIPOS>ATOM
      1 C          -9.0742  -15.9029   23.5864 C.ar    1  UNL1        0.0284
      2 C          -8.7249  -16.4220   24.9497 C.ar    1  UNL1        0.0027
      3 C          -7.2993  -16.4054   25.4161 C.ar    1  UNL1        0.0339
      4 C          -6.2230  -15.8697   24.5192 C.ar    1  UNL1        0.1311
      5 N          -6.5723  -15.3506   23.1558 N.ar    1  UNL1       -0.2035
      6 C          -7.9978  -15.3672   22.6894 C.ar    1  UNL1        0.2196
      7 F          -8.3470  -14.8482   21.3261 F       1  UNL1       -0.1835
      8 N          -4.7974  -15.8530   24.9855 N.pl3   1  UNL1       -0.3144
      9 H          -4.4352  -15.0544   25.4330 H       1  UNL1        0.1485
     10 C          -3.9238  -17.0532   24.7701 C.3     1  UNL1        0.1169
     11 C          -3.5445  -17.4647   23.3785 C.ar    1  UNL1        0.0168
     12 C          -3.8513  -18.8516   22.8965 C.ar    1  UNL1        0.0037
     13 C          -3.4721  -19.2631   21.5048 C.ar    1  UNL1        0.0574
     14 C          -2.7859  -18.2877   20.5950 C.ar    1  UNL1        0.2250
     15 N          -2.4791  -16.9007   21.0770 N.ar    1  UNL1       -0.2104
     16 C          -2.8584  -16.4893   22.4686 C.ar    1  UNL1        0.0994
     17 O          -2.4066  -18.6992   19.2033 O.3     1  UNL1       -0.4561
     18 C          -1.7897  -17.7018   18.2682 C.3     1  UNL1        0.2542
     19 C         -10.4997  -15.9196   23.1201 C.3     1  UNL1        0.0603
     20 C          -8.1606  -19.4094   20.6571 C.2     1  UNL1        0.1673
     21 C          -8.9041  -19.8566   19.4336 C.2     1  UNL1        0.2683
     22 N         -10.2241  -19.2333   19.0884 N.2     1  UNL1       -0.0278
     23 C         -10.8005  -18.1627   19.9668 C.2     1  UNL1        0.3719
     24 N         -12.0716  -17.3708   19.8815 N.2     1  UNL1       -0.0311
     25 C         -12.1136  -16.4341   21.0523 C.2     1  UNL1        0.2319
     26 C         -10.8685  -16.6471   21.8613 C.2     1  UNL1        0.0329
     27 C         -10.0570  -17.7155   21.1903 C.2     1  UNL1        0.0739
     28 C          -8.7370  -18.3388   21.5355 C.3     1  UNL1        0.1019
     29 C          -6.2984  -21.1529   20.1650 C.3     1  UNL1        0.2522
     30 O          -6.8407  -20.0328   21.0023 O.2     1  UNL1       -0.4715
@<TRIPOS>BOND
     1    29    30    1
     2    30    20    1
     3    20    21    2
     4    21    22    1
     5    22    23    2
     6    23    24    1
     7    24    25    2
     8    25    26    1
     9    26    19    1
    10    19     1    1
    11     1     2   ar
    12     2     3   ar
    13     3     4   ar
    14     4     8    1
    15     8    10    1
    16    10    11    1
    17    11    12   ar
    18    12    13   ar
    19    13    14   ar
    20    14    17    1
    21    17    18    1
    22    14    15   ar
    23    15    16   ar
    24     4     5   ar
    25     5     6   ar
    26     6     7    1
    27    26    27    2
    28    27    28    1
    29    28    20    1
    30    27    23    1
    31     6     1   ar
    32    16    11   ar
    33     8     9    1
@<TRIPOS>MOLECULE
*****
 30 33 0 0 0
SMALL
GASTEIGER

@<TRIPOS>ATOM
      1 C          -6.8454  -20.0317   21.3190 C.ar    1  UNL1        0.0284
      2 C          -7.3100  -20.4542   22.6812 C.ar    1  UNL1        0.0027
      3 C          -8.7568  -20.3222   23.0547 C.ar    1  UNL1        0.0339
      4 C          -9.7390  -19.7675   22.0659 C.ar    1  UNL1        0.1311
      5 N          -9.2743  -19.3450   20.7037 N.ar    1  UNL1       -0.2035
      6 C          -7.8276  -19.4770   20.3302 C.ar    1  UNL1        0.2196
      7 F          -7.3631  -19.0544   18.9680 F       1  UNL1       -0.1835
      8 N         -11.1857  -19.6355   22.4394 N.pl3   1  UNL1       -0.3144
      9 H         -11.8640  -20.1838   21.9827 H       1  UNL1        0.1485
     10 C         -11.5990  -18.6681   23.5086 C.3     1  UNL1        0.1169
     11 C         -10.5675  -17.8207   24.1927 C.ar    1  UNL1        0.0168
     12 C         -10.1427  -16.5178   23.5828 C.ar    1  UNL1        0.0037
     13 C          -9.1113  -15.6704   24.2669 C.ar    1  UNL1        0.0574
     14 C          -8.5046  -16.1259   25.5609 C.ar    1  UNL1        0.2250
     15 N          -8.9294  -17.4289   26.1708 N.ar    1  UNL1       -0.2104
     16 C          -9.9608  -18.2762   25.4867 C.ar    1  UNL1        0.0994
     17 O          -7.4731  -15.2785   26.2450 O.3     1  UNL1       -0.4561
     18 C          -7.0413  -15.6057   27.6437 C.3     1  UNL1        0.2542
     19 C          -5.3987  -20.1637   20.9456 C.3     1  UNL1        0.0603
     20 C          -1.5965  -17.8773   18.9376 C.2     1  UNL1        0.1673
     21 C          -0.8361  -17.0380   19.9212 C.2     1  UNL1        0.2683
     22 N          -1.2790  -16.9741   21.3529 N.2     1  UNL1       -0.0278
     23 C          -2.4823  -17.7494   21.8010 C.2     1  UNL1        0.3719
     24 N          -3.1513  -17.8807   23.1371 N.2     1  UNL1       -0.0311
     25 C          -4.3252  -18.8011   22.9793 C.2     1  UNL1        0.2319
     26 C          -4.3818  -19.2386   21.5457 C.2     1  UNL1        0.0329
     27 C          -3.2427  -18.5886   20.8174 C.2     1  UNL1        0.0739
     28 C          -2.7998  -18.6525   19.3857 C.3     1  UNL1        0.1019
     29 C          -2.0349  -17.3932   16.4230 C.3     1  UNL1        0.2522
     30 O          -1.1536  -17.9412   17.5059 O.2     1  UNL1       -0.4715
@<TRIPOS>BOND
     1    29    30    1
     2    30    20    1
     3    20    21    2
     4    21    22    1
     5    22    23    2
     6    23    24    1
     7    24    25    2
     8    25    26    1
     9    26    19    1
    10    19     1    1
    11     1     2   ar
    12     2     3   ar
    13     3     4   ar
    14     4     8    1
    15     8    10    1
    16    10    11    1
    17    11    12   ar
    18    12    13   ar
    19    13    14   ar
    20    14    17    1
    21    17    18    1
    22    14    15   ar
    23    15    16   ar
    24     4     5   ar
    25     5     6   ar
    26     6     7    1
    27    26    27    2
    28    27    28    1
    29    28    20    1
    30    27    23    1
    31     6     1   ar
    32    16    11   ar
    33     8     9    1
@<TRIPOS>MOLECULE
*****
 30 33 0 0 0
SMALL
GASTEIGER

@<TRIPOS>ATOM
      1 C          -7.0402  -19.0261   22.2208 C.ar    1  UNL1        0.0284
      2 C          -7.7069  -20.3443   22.4813 C.ar    1  UNL1        0.0027
      3 C          -8.8732  -20.4221   23.4214 C.ar    1  UNL1        0.0339
      4 C          -9.3729  -19.1817   24.1009 C.ar    1  UNL1        0.1311
      5 N          -8.7061  -17.8635   23.8403 N.ar    1  UNL1       -0.2035
      6 C          -7.5398  -17.7857   22.9003 C.ar    1  UNL1        0.2196
      7 F          -6.8732  -16.4675   22.6398 F       1  UNL1       -0.1835
      8 N         -10.5392  -19.2595   25.0409 N.pl3   1  UNL1       -0.3144
      9 H         -10.4204  -19.6367   25.9425 H       1  UNL1        0.1485
     10 C         -11.8864  -18.7626   24.6073 C.3     1  UNL1        0.1169
     11 C         -12.0358  -18.0468   23.2976 C.ar    1  UNL1        0.0168
     12 C         -12.0210  -16.5475   23.2564 C.ar    1  UNL1        0.0037
     13 C         -12.1705  -15.8316   21.9467 C.ar    1  UNL1        0.0574
     14 C         -12.3347  -16.6151   20.6782 C.ar    1  UNL1        0.2250
     15 N         -12.3495  -18.1145   20.7194 N.ar    1  UNL1       -0.2104
     16 C         -12.2001  -18.8303   22.0291 C.ar    1  UNL1        0.0994
     17 O         -12.4841  -15.8993   19.3685 O.3     1  UNL1       -0.4561
     18 C         -11.3427  -15.0967   18.8180 C.3     1  UNL1        0.2542
     19 C          -5.8739  -18.9483   21.2808 C.3     1  UNL1        0.0603
     20 C          -1.6835  -18.0679   18.9610 C.2     1  UNL1        0.1673
     21 C          -0.5382  -17.8269   19.8992 C.2     1  UNL1        0.2683
     22 N          -0.7607  -17.8733   21.3819 N.2     1  UNL1       -0.0278
     23 C          -2.1285  -18.1608   21.9264 C.2     1  UNL1        0.3719
     24 N          -2.6478  -18.2696   23.3294 N.2     1  UNL1       -0.0311
     25 C          -4.1141  -18.5779   23.2583 C.2     1  UNL1        0.2319
     26 C          -4.5010  -18.6596   21.8114 C.2     1  UNL1        0.0329
     27 C          -3.2737  -18.4017   20.9882 C.2     1  UNL1        0.0739
     28 C          -3.0512  -18.3553   19.5055 C.3     1  UNL1        0.1019
     29 C          -2.3272  -17.1512   16.6168 C.3     1  UNL1        0.2522
     30 O          -1.4610  -18.0214   17.4783 O.2     1  UNL1       -0.4715
@<TRIPOS>BOND
     1    29    30    1
     2    30    20    1
     3    20    21    2
     4    21    22    1
     5    22    23    2
     6    23    24    1
     7    24    25    2
     8    25    26    1
     9    26    19    1
    10    19     1    1
    11     1     2   ar
    12     2     3   ar
    13     3     4   ar
    14     4     8    1
    15     8    10    1
    16    10    11    1
    17    11    12   ar
    18    12    13   ar
    19    13    14   ar
    20    14    17    1
    21    17    18    1
    22    14    15   ar
    23    15    16   ar
    24     4     5   ar
    25     5     6   ar
    26     6     7    1
    27    26    27    2
    28    27    28    1
    29    28    20    1
    30    27    23    1
    31     6     1   ar
    32    16    11   ar
    33     8     9    1
@<TRIPOS>MOLECULE
*****
 30 33 0 0 0
SMALL
GASTEIGER

@<TRIPOS>ATOM
      1 C           1.4796    0.8833   18.7324 C.ar    1  UNL1        0.0284
      2 C           1.0375    2.2759   18.3932 C.ar    1  UNL1        0.0027
      3 C          -0.0722    2.9207   19.1697 C.ar    1  UNL1        0.0339
      4 C          -0.7397    2.1729   20.2855 C.ar    1  UNL1        0.1311
      5 N          -0.2976    0.7802   20.6248 N.ar    1  UNL1       -0.2035
      6 C           0.8120    0.1354   19.8483 C.ar    1  UNL1        0.2196
      7 F           1.2541   -1.2572   20.1876 F       1  UNL1       -0.1835
      8 N          -1.8494    2.8177   21.0620 N.pl3   1  UNL1       -0.3144
      9 H          -1.7741    2.9163   22.0387 H       1  UNL1        0.1485
     10 C          -3.0737    3.3123   20.3505 C.3     1  UNL1        0.1169
     11 C          -4.3260    3.6002   21.1244 C.ar    1  UNL1        0.0168
     12 C          -4.3934    3.2800   22.5882 C.ar    1  UNL1        0.0037
     13 C          -5.6457    3.5679   23.3621 C.ar    1  UNL1        0.0574
     14 C          -6.8306    4.1761   22.6721 C.ar    1  UNL1        0.2250
     15 N          -6.7631    4.4964   21.2082 N.ar    1  UNL1       -0.2104
     16 C          -5.5109    4.2084   20.4344 C.ar    1  UNL1        0.0994
     17 O          -8.0828    4.4641   23.4460 O.3     1  UNL1       -0.4561
     18 C          -8.3434    5.8477   23.9633 C.3     1  UNL1        0.2542
     19 C           2.5892    0.2385   17.9559 C.3     1  UNL1        0.0603
     20 C           5.3088   -3.4236   19.6615 C.2     1  UNL1        0.1673
     21 C           6.6650   -2.9767   20.1207 C.2     1  UNL1        0.2683
     22 N           7.0507   -1.5304   20.0240 N.2     1  UNL1       -0.0278
     23 C           6.0801   -0.5309   19.4683 C.2     1  UNL1        0.3719
     24 N           6.1780    0.9502   19.2519 N.2     1  UNL1       -0.0311
     25 C           4.8822    1.4187   18.6591 C.2     1  UNL1        0.2319
     26 C           3.9834    0.2272   18.5090 C.2     1  UNL1        0.0329
     27 C           4.7238   -0.9777   19.0092 C.2     1  UNL1        0.0739
     28 C           4.3382   -2.4241   19.1058 C.3     1  UNL1        0.1019
     29 C           3.4807   -5.2697   19.6605 C.3     1  UNL1        0.2522
     30 O           4.9231   -4.8699   19.7581 O.2     1  UNL1       -0.4715
@<TRIPOS>BOND
     1    29    30    1
     2    30    20    1
     3    20    21    2
     4    21    22    1
     5    22    23    2
     6    23    24    1
     7    24    25    2
     8    25    26    1
     9    26    19    1
    10    19     1    1
    11     1     2   ar
    12     2     3   ar
    13     3     4   ar
    14     4     8    1
    15     8    10    1
    16    10    11    1
    17    11    12   ar
    18    12    13   ar
    19    13    14   ar
    20    14    17    1
    21    17    18    1
    22    14    15   ar
    23    15    16   ar
    24     4     5   ar
    25     5     6   ar
    26     6     7    1
    27    26    27    2
    28    27    28    1
    29    28    20    1
    30    27    23    1
    31     6     1   ar
    32    16    11   ar
    33     8     9    1
@<TRIPOS>MOLECULE
*****
 30 33 0 0 0
SMALL
GASTEIGER

@<TRIPOS>ATOM
      1 C          -7.1085  -19.9325   20.9222 C.ar    1  UNL1        0.0284
      2 C          -6.5476  -18.9971   19.8924 C.ar    1  UNL1        0.0027
      3 C          -5.0800  -18.6872   19.8807 C.ar    1  UNL1        0.0339
      4 C          -4.1732  -19.3128   20.8987 C.ar    1  UNL1        0.1311
      5 N          -4.7341  -20.2483   21.9285 N.ar    1  UNL1       -0.2035
      6 C          -6.2017  -20.5581   21.9403 C.ar    1  UNL1        0.2196
      7 F          -6.7625  -21.4935   22.9701 F       1  UNL1       -0.1835
      8 N          -2.7056  -19.0030   20.8869 N.pl3   1  UNL1       -0.3144
      9 H          -2.1056  -19.4853   20.2733 H       1  UNL1        0.1485
     10 C          -2.1523  -17.9582   21.8101 C.3     1  UNL1        0.1169
     11 C          -3.0785  -17.1520   22.6715 C.ar    1  UNL1        0.0168
     12 C          -3.6203  -17.7366   23.9422 C.ar    1  UNL1        0.0037
     13 C          -4.5465  -16.9304   24.8036 C.ar    1  UNL1        0.0574
     14 C          -4.9311  -15.5395   24.3943 C.ar    1  UNL1        0.2250
     15 N          -4.3894  -14.9549   23.1235 N.ar    1  UNL1       -0.2104
     16 C          -3.4631  -15.7611   22.2622 C.ar    1  UNL1        0.0994
     17 O          -5.8574  -14.7333   25.2557 O.3     1  UNL1       -0.4561
     18 C          -6.3167  -15.2766   26.5762 C.3     1  UNL1        0.2542
     19 C          -8.5761  -20.2424   20.9340 C.3     1  UNL1        0.0603
     20 C         -12.1741  -16.9680   21.1562 C.2     1  UNL1        0.1673
     21 C         -12.7584  -16.8376   22.5315 C.2     1  UNL1        0.2683
     22 N         -12.2223  -17.6725   23.6564 N.2     1  UNL1       -0.0278
     23 C         -11.1019  -18.6379   23.4061 C.2     1  UNL1        0.3719
     24 N         -10.3729  -19.5861   24.3112 N.2     1  UNL1       -0.0311
     25 C          -9.3380  -20.3026   23.4954 C.2     1  UNL1        0.2319
     26 C          -9.4274  -19.7972   22.0859 C.2     1  UNL1        0.0329
     27 C         -10.5176  -18.7683   22.0308 C.2     1  UNL1        0.0739
     28 C         -11.0536  -17.9333   20.9058 C.3     1  UNL1        0.1019
     29 C         -11.7686  -15.5202   19.0374 C.3     1  UNL1        0.2522
     30 O         -12.7101  -16.1331   20.0312 O.2     1  UNL1       -0.4715
@<TRIPOS>BOND
     1    29    30    1
     2    30    20    1
     3    20    21    2
     4    21    22    1
     5    22    23    2
     6    23    24    1
     7    24    25    2
     8    25    26    1
     9    26    19    1
    10    19     1    1
    11     1     2   ar
    12     2     3   ar
    13     3     4   ar
    14     4     8    1
    15     8    10    1
    16    10    11    1
    17    11    12   ar
    18    12    13   ar
    19    13    14   ar
    20    14    17    1
    21    17    18    1
    22    14    15   ar
    23    15    16   ar
    24     4     5   ar
    25     5     6   ar
    26     6     7    1
    27    26    27    2
    28    27    28    1
    29    28    20    1
    30    27    23    1
    31     6     1   ar
    32    16    11   ar
    33     8     9    1
@<TRIPOS>MOLECULE
*****
 30 33 0 0 0
SMALL
GASTEIGER

@<TRIPOS>ATOM
      1 C          -5.2056  -16.7503   23.7888 C.ar    1  UNL1        0.0284
      2 C          -5.6077  -15.4163   24.3445 C.ar    1  UNL1        0.0027
      3 C          -7.0546  -15.0223   24.3763 C.ar    1  UNL1        0.0339
      4 C          -8.0996  -15.9623   23.8525 C.ar    1  UNL1        0.1311
      5 N          -7.6976  -17.2963   23.2968 N.ar    1  UNL1       -0.2035
      6 C          -6.2506  -17.6904   23.2649 C.ar    1  UNL1        0.2196
      7 F          -5.8486  -19.0244   22.7093 F       1  UNL1       -0.1835
      8 N          -9.5466  -15.5682   23.8843 N.pl3   1  UNL1       -0.3144
      9 H          -9.7984  -14.6333   24.0623 H       1  UNL1        0.1485
     10 C         -10.6100  -16.5988   23.6450 C.3     1  UNL1        0.1169
     11 C         -10.5735  -17.4397   22.4034 C.ar    1  UNL1        0.0168
     12 C         -10.7037  -18.9307   22.5033 C.ar    1  UNL1        0.0037
     13 C         -10.6672  -19.7716   21.2618 C.ar    1  UNL1        0.0574
     14 C         -10.5005  -19.1216   19.9203 C.ar    1  UNL1        0.2250
     15 N         -10.3703  -17.6305   19.8204 N.ar    1  UNL1       -0.2104
     16 C         -10.4067  -16.7897   21.0619 C.ar    1  UNL1        0.0994
     17 O         -10.4640  -19.9626   18.6787 O.3     1  UNL1       -0.4561
     18 C          -9.1868  -20.6298   18.2621 C.3     1  UNL1        0.2542
     19 C          -3.7587  -17.1443   23.7570 C.3     1  UNL1        0.0603
     20 C          -3.7617  -20.1780   19.9473 C.2     1  UNL1        0.1673
     21 C          -2.8335  -19.7398   18.8535 C.2     1  UNL1        0.2683
     22 N          -2.0300  -18.4829   19.0103 N.2     1  UNL1       -0.0278
     23 C          -2.1547  -17.6641   20.2609 C.2     1  UNL1        0.3719
     24 N          -1.4952  -16.3890   20.6957 N.2     1  UNL1       -0.0311
     25 C          -2.0157  -16.0391   22.0583 C.2     1  UNL1        0.2319
     26 C          -2.9970  -17.0979   22.4656 C.2     1  UNL1        0.0329
     27 C          -3.0829  -18.1023   21.3547 C.2     1  UNL1        0.0739
     28 C          -3.8864  -19.3592   21.1979 C.3     1  UNL1        0.1019
     29 C          -6.0244  -21.4404   20.1376 C.3     1  UNL1        0.2522
     30 O          -4.5652  -21.4349   19.7905 O.2     1  UNL1       -0.4715
@<TRIPOS>BOND
     1    29    30    1
     2    30    20    1
     3    20    21    2
     4    21    22    1
     5    22    23    2
     6    23    24    1
     7    24    25    2
     8    25    26    1
     9    26    19    1
    10    19     1    1
    11     1     2   ar
    12     2     3   ar
    13     3     4   ar
    14     4     8    1
    15     8    10    1
    16    10    11    1
    17    11    12   ar
    18    12    13   ar
    19    13    14   ar
    20    14    17    1
    21    17    18    1
    22    14    15   ar
    23    15    16   ar
    24     4     5   ar
    25     5     6   ar
    26     6     7    1
    27    26    27    2
    28    27    28    1
    29    28    20    1
    30    27    23    1
    31     6     1   ar
    32    16    11   ar
    33     8     9    1
@<TRIPOS>MOLECULE
*****
 30 33 0 0 0
SMALL
GASTEIGER

@<TRIPOS>ATOM
      1 C          -7.1790  -19.8711   20.6365 C.ar    1  UNL1        0.0284
      2 C          -6.3368  -19.2170   19.5816 C.ar    1  UNL1        0.0027
      3 C          -4.8889  -18.9307   19.8487 C.ar    1  UNL1        0.0339
      4 C          -4.2830  -19.2984   21.1707 C.ar    1  UNL1        0.1311
      5 N          -5.1253  -19.9526   22.2256 N.ar    1  UNL1       -0.2035
      6 C          -6.5733  -20.2389   21.9586 C.ar    1  UNL1        0.2196
      7 F          -7.4154  -20.8931   23.0135 F       1  UNL1       -0.1835
      8 N          -2.8350  -19.0120   21.4378 N.pl3   1  UNL1       -0.3144
      9 H          -2.1501  -19.6799   21.2053 H       1  UNL1        0.1485
     10 C          -2.4306  -17.7081   22.0591 C.3     1  UNL1        0.1169
     11 C          -3.3825  -16.9799   22.9611 C.ar    1  UNL1        0.0168
     12 C          -3.7505  -17.5650   24.2924 C.ar    1  UNL1        0.0037
     13 C          -4.7024  -16.8369   25.1944 C.ar    1  UNL1        0.0574
     14 C          -5.2864  -15.5235   24.7652 C.ar    1  UNL1        0.2250
     15 N          -4.9184  -14.9384   23.4339 N.ar    1  UNL1       -0.2104
     16 C          -3.9665  -15.6666   22.5319 C.ar    1  UNL1        0.0994
     17 O          -6.2383  -14.7954   25.6672 O.3     1  UNL1       -0.4561
     18 C          -6.4613  -15.2791   27.0695 C.3     1  UNL1        0.2542
     19 C          -8.6270  -20.1575   20.3694 C.3     1  UNL1        0.0603
     20 C          -9.6614  -16.8405   23.7817 C.2     1  UNL1        0.1673
     21 C         -10.7493  -15.8958   23.3644 C.2     1  UNL1        0.2683
     22 N         -11.3905  -16.0389   22.0160 N.2     1  UNL1       -0.0278
     23 C         -10.9440  -17.1268   21.0848 C.2     1  UNL1        0.3719
     24 N         -11.3870  -17.5108   19.7041 N.2     1  UNL1       -0.0311
     25 C         -10.5730  -18.6929   19.2681 C.2     1  UNL1        0.2319
     26 C          -9.6269  -19.0394   20.3792 C.2     1  UNL1        0.0329
     27 C          -9.8562  -18.0715   21.5021 C.2     1  UNL1        0.0739
     28 C          -9.2149  -17.9283   22.8505 C.3     1  UNL1        0.1019
     29 C          -9.2547  -17.7363   26.1863 C.3     1  UNL1        0.2522
     30 O          -9.0202  -16.6973   25.1301 O.2     1  UNL1       -0.4715
@<TRIPOS>BOND
     1    29    30    1
     2    30    20    1
     3    20    21    2
     4    21    22    1
     5    22    23    2
     6    23    24    1
     7    24    25    2
     8    25    26    1
     9    26    19    1
    10    19     1    1
    11     1     2   ar
    12     2     3   ar
    13     3     4   ar
    14     4     8    1
    15     8    10    1
    16    10    11    1
    17    11    12   ar
    18    12    13   ar
    19    13    14   ar
    20    14    17    1
    21    17    18    1
    22    14    15   ar
    23    15    16   ar
    24     4     5   ar
    25     5     6   ar
    26     6     7    1
    27    26    27    2
    28    27    28    1
    29    28    20    1
    30    27    23    1
    31     6     1   ar
    32    16    11   ar
    33     8     9    1
