@<TRIPOS>MOLECULE
*****
 45 46 0 0 0
SMALL
GASTEIGER

@<TRIPOS>ATOM
      1 C         -10.3577  -18.4214   19.6773 C.3     1  UNL1        0.1540
      2 C         -10.2752  -19.8684   19.2908 C.3     1  UNL1        0.0646
      3 C          -9.2369  -20.3243   18.3089 C.3     1  UNL1        0.1448
      4 O          -8.0733  -21.1476   18.7758 O.3     1  UNL1       -0.3537
      5 C          -7.1178  -20.5894   19.7884 C.3     1  UNL1        0.1422
      6 C          -5.8607  -21.3355   20.1246 C.3     1  UNL1        0.0321
      7 C          -4.6811  -20.6012   20.6898 C.3     1  UNL1        0.0026
      8 C          -3.5886  -20.1235   19.7797 C.3     1  UNL1        0.0001
      9 C          -3.5404  -18.6854   19.3563 C.3     1  UNL1        0.0000
     10 C          -2.2712  -18.1086   18.8025 C.3     1  UNL1        0.0000
     11 C          -1.0933  -17.8850   19.7038 C.3     1  UNL1        0.0000
     12 C          -1.0511  -16.6816   20.5983 C.3     1  UNL1        0.0000
     13 C          -2.0557  -16.5319   21.7020 C.3     1  UNL1        0.0000
     14 C          -2.2926  -17.6623   22.6591 C.3     1  UNL1        0.0000
     15 C          -3.6301  -17.8174   23.3201 C.3     1  UNL1        0.0010
     16 C          -4.3373  -16.6157   23.8730 C.3     1  UNL1        0.0140
     17 C          -4.2633  -16.3108   25.3398 C.3     1  UNL1        0.0763
     18 C          -5.5010  -15.9084   26.0856 C.1     1  UNL1       -0.0832
     19 C          -6.7386  -15.5059   26.8314 C.1     1  UNL1        0.0088
     20 C          -7.9763  -15.1035   27.5772 C.3     1  UNL1        0.4589
     21 F          -9.2139  -14.7010   28.3230 F       1  UNL1       -0.1586
     22 F          -8.6923  -16.3061   27.0379 F       1  UNL1       -0.1586
     23 F          -7.2602  -13.9008   28.1165 F       1  UNL1       -0.1586
     24 O         -11.6865  -17.8069   20.0039 O.3     1  UNL1       -0.2925
     25 P         -11.7667  -16.6637   20.9716 P.3     1  UNL1        0.3697
     26 O         -10.7154  -15.9304   20.1925 O.2     1  UNL1       -0.2553
     27 O         -11.8468  -15.5204   21.9394 O.3     1  UNL1       -0.3218
     28 H         -11.2231  -14.8269   21.6729 H       1  UNL1        0.2198
     29 C         -12.8180  -17.3969   21.7508 C.3     1  UNL1        0.2579
     30 O         -13.0913  -17.0233   23.1775 O.3     1  UNL1       -0.3426
     31 C         -14.6627  -18.4702   24.6564 C.3     1  UNL1        0.0342
     32 C         -13.2808  -18.0945   24.2103 C.3     1  UNL1        0.1387
     33 C         -12.0882  -18.7900   24.7970 C.3     1  UNL1        0.1384
     34 N         -10.8219  -18.9073   24.0015 N.ar    1  UNL1       -0.2918
     35 C         -10.3076  -20.1522   23.3413 C.ar    1  UNL1        0.1798
     36 N          -9.0155  -19.8146   22.6583 N.ar    1  UNL1       -0.2195
     37 C          -8.7312  -18.3611   22.8964 C.ar    1  UNL1        0.1481
     38 C          -7.6000  -17.4758   22.4645 C.ar    1  UNL1        0.1480
     39 N          -6.4836  -18.0365   21.6344 N.pl3   1  UNL1       -0.3413
     40 N          -7.5853  -16.0298   22.8628 N.ar    1  UNL1       -0.2078
     41 C          -8.7017  -15.4690   23.6929 C.ar    1  UNL1        0.2015
     42 N          -9.8329  -16.3544   24.1248 N.ar    1  UNL1       -0.2048
     43 C          -9.8477  -17.8004   23.7265 C.ar    1  UNL1        0.1674
     44 H          -6.4933  -18.9857   21.3730 H       1  UNL1        0.1438
     45 H          -5.7411  -17.4554   21.3509 H       1  UNL1        0.1438
@<TRIPOS>BOND
     1    32    31    1
     2    32    33    1
     3    33    34    1
     4    34    35   ar
     5    35    36   ar
     6    36    37   ar
     7    37    38   ar
     8    38    39    1
     9    38    40   ar
    10    40    41   ar
    11    41    42   ar
    12    42    43   ar
    13    32    30    1
    14    30    29    1
    15    29    25    1
    16    25    26    2
    17    25    27    1
    18    25    24    1
    19    24     1    1
    20     1     2    1
    21     2     3    1
    22     3     4    1
    23     4     5    1
    24     5     6    1
    25     6     7    1
    26     7     8    1
    27     8     9    1
    28     9    10    1
    29    10    11    1
    30    11    12    1
    31    12    13    1
    32    13    14    1
    33    14    15    1
    34    15    16    1
    35    16    17    1
    36    17    18    1
    37    18    19    3
    38    19    20    1
    39    20    21    1
    40    20    22    1
    41    20    23    1
    42    43    34   ar
    43    43    37   ar
    44    39    44    1
    45    39    45    1
    46    27    28    1
@<TRIPOS>MOLECULE
*****
 45 46 0 0 0
SMALL
GASTEIGER

@<TRIPOS>ATOM
      1 C          -8.3690  -16.3045   26.4835 C.3     1  UNL1        0.1540
      2 C          -9.2852  -17.4865   26.5987 C.3     1  UNL1        0.0646
      3 C          -9.6648  -18.2634   25.3730 C.3     1  UNL1        0.1448
      4 O          -9.5973  -19.7618   25.3840 O.3     1  UNL1       -0.3537
      5 C         -10.0172  -20.5405   24.1727 C.3     1  UNL1        0.1422
      6 C         -10.7491  -19.8552   23.0571 C.3     1  UNL1        0.0321
      7 C         -10.7631  -20.4618   21.6852 C.3     1  UNL1        0.0026
      8 C         -11.2951  -19.6763   20.5233 C.3     1  UNL1        0.0001
      9 C         -10.3596  -19.1860   19.4582 C.3     1  UNL1        0.0000
     10 C          -9.0103  -19.8205   19.2949 C.3     1  UNL1        0.0000
     11 C          -7.9621  -19.6366   20.3520 C.3     1  UNL1        0.0000
     12 C          -7.6213  -18.2593   20.8387 C.3     1  UNL1        0.0000
     13 C          -8.2044  -17.7525   22.1244 C.3     1  UNL1        0.0000
     14 C          -8.7778  -16.3681   22.1937 C.3     1  UNL1        0.0000
     15 C         -10.2595  -16.1758   22.3261 C.3     1  UNL1        0.0010
     16 C         -11.1155  -16.0769   21.0983 C.3     1  UNL1        0.0140
     17 C         -12.5249  -16.5897   21.1233 C.3     1  UNL1        0.0763
     18 C         -13.0782  -17.2020   22.3759 C.1     1  UNL1       -0.0832
     19 C         -13.6314  -17.8143   23.6285 C.1     1  UNL1        0.0088
     20 C         -14.1847  -18.4266   24.8810 C.3     1  UNL1        0.4589
     21 F         -14.7380  -19.0389   26.1336 F       1  UNL1       -0.1586
     22 F         -12.7938  -18.5757   25.4225 F       1  UNL1       -0.1586
     23 F         -15.5756  -18.2776   24.3395 F       1  UNL1       -0.1586
     24 O          -7.3575  -16.2444   25.3776 O.3     1  UNL1       -0.2925
     25 P          -6.1655  -15.3421   25.4994 P.3     1  UNL1        0.3697
     26 O          -6.3981  -15.2345   26.9774 O.2     1  UNL1       -0.2553
     27 O          -4.9735  -14.4398   25.6213 O.3     1  UNL1       -0.3218
     28 H          -4.8583  -14.1797   26.5487 H       1  UNL1        0.2198
     29 C          -5.9329  -15.4497   24.0215 C.3     1  UNL1        0.2579
     30 O          -4.6543  -16.0393   23.5044 O.3     1  UNL1       -0.3426
     31 C          -3.5685  -17.7528   25.1276 C.3     1  UNL1        0.0342
     32 C          -4.2881  -17.4532   23.8461 C.3     1  UNL1        0.1387
     33 C          -4.6416  -18.5676   22.9061 C.3     1  UNL1        0.1384
     34 N          -3.9818  -18.6525   21.5617 N.ar    1  UNL1       -0.2918
     35 C          -4.3980  -19.5448   20.4301 C.ar    1  UNL1        0.1798
     36 N          -3.4633  -19.3038   19.2820 N.ar    1  UNL1       -0.2195
     37 C          -2.4695  -18.2626   19.7040 C.ar    1  UNL1        0.1481
     38 C          -1.3141  -17.6290   18.9873 C.ar    1  UNL1        0.1480
     39 N          -0.9937  -18.0315   17.5783 N.pl3   1  UNL1       -0.3413
     40 N          -0.4792  -16.5929   19.6796 N.ar    1  UNL1       -0.2078
     41 C          -0.7997  -16.1903   21.0886 C.ar    1  UNL1        0.2015
     42 N          -1.9550  -16.8239   21.8053 N.ar    1  UNL1       -0.2048
     43 C          -2.7899  -17.8600   21.1130 C.ar    1  UNL1        0.1674
     44 H          -1.5417  -18.7116   17.1239 H       1  UNL1        0.1438
     45 H          -0.2354  -17.6157   17.1079 H       1  UNL1        0.1438
@<TRIPOS>BOND
     1    32    31    1
     2    32    33    1
     3    33    34    1
     4    34    35   ar
     5    35    36   ar
     6    36    37   ar
     7    37    38   ar
     8    38    39    1
     9    38    40   ar
    10    40    41   ar
    11    41    42   ar
    12    42    43   ar
    13    32    30    1
    14    30    29    1
    15    29    25    1
    16    25    26    2
    17    25    27    1
    18    25    24    1
    19    24     1    1
    20     1     2    1
    21     2     3    1
    22     3     4    1
    23     4     5    1
    24     5     6    1
    25     6     7    1
    26     7     8    1
    27     8     9    1
    28     9    10    1
    29    10    11    1
    30    11    12    1
    31    12    13    1
    32    13    14    1
    33    14    15    1
    34    15    16    1
    35    16    17    1
    36    17    18    1
    37    18    19    3
    38    19    20    1
    39    20    21    1
    40    20    22    1
    41    20    23    1
    42    43    34   ar
    43    43    37   ar
    44    39    44    1
    45    39    45    1
    46    27    28    1
@<TRIPOS>MOLECULE
*****
 45 46 0 0 0
SMALL
GASTEIGER

@<TRIPOS>ATOM
      1 C          -8.7266  -15.1664   25.3186 C.3     1  UNL1        0.1540
      2 C          -8.3859  -16.0066   26.5135 C.3     1  UNL1        0.0646
      3 C          -8.8790  -17.4205   26.6015 C.3     1  UNL1        0.1448
      4 O          -9.7905  -17.9642   25.5416 O.3     1  UNL1       -0.3537
      5 C          -9.9777  -19.4458   25.4011 C.3     1  UNL1        0.1422
      6 C         -10.5950  -20.0090   24.1554 C.3     1  UNL1        0.0321
      7 C          -9.7388  -20.2957   22.9575 C.3     1  UNL1        0.0026
      8 C          -8.4414  -19.5663   22.7711 C.3     1  UNL1        0.0001
      9 C          -7.2291  -20.3042   22.2855 C.3     1  UNL1        0.0000
     10 C          -6.9279  -20.3680   20.8175 C.3     1  UNL1        0.0000
     11 C          -7.3643  -19.2536   19.9132 C.3     1  UNL1        0.0000
     12 C          -8.3613  -19.5182   18.8242 C.3     1  UNL1        0.0000
     13 C          -9.6572  -20.2026   19.1438 C.3     1  UNL1        0.0000
     14 C         -10.7855  -19.4252   19.7540 C.3     1  UNL1        0.0000
     15 C         -10.5572  -18.0215   20.2311 C.3     1  UNL1        0.0010
     16 C         -11.6660  -17.0141   20.1554 C.3     1  UNL1        0.0140
     17 C         -12.0805  -16.2611   21.3847 C.3     1  UNL1        0.0763
     18 C         -12.7916  -16.9739   22.4967 C.1     1  UNL1       -0.0832
     19 C         -13.5026  -17.6866   23.6086 C.1     1  UNL1        0.0088
     20 C         -14.2136  -18.3993   24.7206 C.3     1  UNL1        0.4589
     21 F         -14.9247  -19.1120   25.8325 F       1  UNL1       -0.1586
     22 F         -15.4615  -18.4505   23.8898 F       1  UNL1       -0.1586
     23 F         -12.9658  -18.3481   25.5513 F       1  UNL1       -0.1586
     24 O          -7.6879  -14.8963   24.2707 O.3     1  UNL1       -0.2925
     25 P          -7.7559  -15.6005   22.9480 P.3     1  UNL1        0.3697
     26 O          -9.1766  -15.9911   23.2291 O.2     1  UNL1       -0.2553
     27 O          -7.8240  -16.3047   21.6254 O.3     1  UNL1       -0.3218
     28 H          -8.7049  -16.6946   21.5116 H       1  UNL1        0.2198
     29 C          -6.3352  -15.2099   22.6670 C.3     1  UNL1        0.2579
     30 O          -5.3773  -14.9975   23.8015 O.3     1  UNL1       -0.3426
     31 C          -4.7830  -16.1566   26.0495 C.3     1  UNL1        0.0342
     32 C          -4.8284  -16.1757   24.5503 C.3     1  UNL1        0.1387
     33 C          -4.3249  -17.3730   23.7999 C.3     1  UNL1        0.1384
     34 N          -3.4216  -17.1909   22.6163 N.ar    1  UNL1       -0.2918
     35 C          -2.5231  -16.0163   22.3653 C.ar    1  UNL1        0.1798
     36 N          -1.8045  -16.2510   21.0698 N.ar    1  UNL1       -0.2195
     37 C          -2.2588  -17.5707   20.5200 C.ar    1  UNL1        0.1481
     38 C          -1.8915  -18.3184   19.2727 C.ar    1  UNL1        0.1480
     39 N          -0.8920  -17.7375   18.3169 N.pl3   1  UNL1       -0.3413
     40 N          -2.5237  -19.6470   18.9811 N.ar    1  UNL1       -0.2078
     41 C          -3.5232  -20.2279   19.9369 C.ar    1  UNL1        0.2015
     42 N          -3.8905  -19.4802   21.1843 N.ar    1  UNL1       -0.2048
     43 C          -3.2583  -18.1516   21.4759 C.ar    1  UNL1        0.1674
     44 H          -0.4771  -16.8654   18.5082 H       1  UNL1        0.1438
     45 H          -0.6510  -18.2282   17.4982 H       1  UNL1        0.1438
@<TRIPOS>BOND
     1    32    31    1
     2    32    33    1
     3    33    34    1
     4    34    35   ar
     5    35    36   ar
     6    36    37   ar
     7    37    38   ar
     8    38    39    1
     9    38    40   ar
    10    40    41   ar
    11    41    42   ar
    12    42    43   ar
    13    32    30    1
    14    30    29    1
    15    29    25    1
    16    25    26    2
    17    25    27    1
    18    25    24    1
    19    24     1    1
    20     1     2    1
    21     2     3    1
    22     3     4    1
    23     4     5    1
    24     5     6    1
    25     6     7    1
    26     7     8    1
    27     8     9    1
    28     9    10    1
    29    10    11    1
    30    11    12    1
    31    12    13    1
    32    13    14    1
    33    14    15    1
    34    15    16    1
    35    16    17    1
    36    17    18    1
    37    18    19    3
    38    19    20    1
    39    20    21    1
    40    20    22    1
    41    20    23    1
    42    43    34   ar
    43    43    37   ar
    44    39    44    1
    45    39    45    1
    46    27    28    1
@<TRIPOS>MOLECULE
*****
 45 46 0 0 0
SMALL
GASTEIGER

@<TRIPOS>ATOM
      1 C          -6.0758  -15.0092   24.8754 C.3     1  UNL1        0.1540
      2 C          -5.8146  -15.4716   26.2782 C.3     1  UNL1        0.0646
      3 C          -6.5685  -14.8604   27.4219 C.3     1  UNL1        0.1448
      4 O          -7.9850  -15.2733   27.6925 O.3     1  UNL1       -0.3537
      5 C          -8.4244  -16.6785   27.4059 C.3     1  UNL1        0.1422
      6 C          -9.1897  -16.9843   26.1526 C.3     1  UNL1        0.0321
      7 C          -9.2783  -15.9609   25.0594 C.3     1  UNL1        0.0026
      8 C          -9.5661  -16.3906   23.6514 C.3     1  UNL1        0.0001
      9 C          -9.0647  -17.7138   23.1537 C.3     1  UNL1        0.0000
     10 C          -9.3432  -18.9635   23.9350 C.3     1  UNL1        0.0000
     11 C          -9.8182  -20.1990   23.2294 C.3     1  UNL1        0.0000
     12 C         -11.1008  -20.1725   22.4521 C.3     1  UNL1        0.0000
     13 C         -11.0808  -20.3677   20.9650 C.3     1  UNL1        0.0000
     14 C         -10.1527  -19.5526   20.1139 C.3     1  UNL1        0.0000
     15 C         -10.2406  -18.0553   20.1303 C.3     1  UNL1        0.0010
     16 C         -11.5310  -17.3759   19.7793 C.3     1  UNL1        0.0140
     17 C         -12.2186  -16.5046   20.7882 C.3     1  UNL1        0.0763
     18 C         -12.7206  -17.0961   22.0720 C.1     1  UNL1       -0.0832
     19 C         -13.2226  -17.6877   23.3557 C.1     1  UNL1        0.0088
     20 C         -13.7247  -18.2792   24.6395 C.3     1  UNL1        0.4589
     21 F         -14.2267  -18.8708   25.9232 F       1  UNL1       -0.1586
     22 F         -15.1379  -18.0929   24.1726 F       1  UNL1       -0.1586
     23 F         -12.3114  -18.4655   25.1063 F       1  UNL1       -0.1586
     24 O          -6.0299  -15.9901   23.7415 O.3     1  UNL1       -0.2925
     25 P          -4.7221  -16.3135   23.0820 P.3     1  UNL1        0.3697
     26 O          -4.3428  -14.8628   23.1227 O.2     1  UNL1       -0.2553
     27 O          -3.4142  -16.6369   22.4225 O.3     1  UNL1       -0.3218
     28 H          -2.9011  -15.8222   22.3052 H       1  UNL1        0.2198
     29 C          -5.1013  -17.7642   23.0413 C.3     1  UNL1        0.2579
     30 O          -6.0163  -18.2704   21.9660 O.3     1  UNL1       -0.3426
     31 C          -6.9160  -20.7075   21.9306 C.3     1  UNL1        0.0342
     32 C          -5.9049  -19.6895   21.4930 C.3     1  UNL1        0.1387
     33 C          -4.7824  -20.0907   20.5824 C.3     1  UNL1        0.1384
     34 N          -3.3884  -19.6068   20.8520 N.ar    1  UNL1       -0.2918
     35 C          -2.6333  -19.7659   22.1383 C.ar    1  UNL1        0.1798
     36 N          -1.2830  -19.1363   21.9639 N.ar    1  UNL1       -0.2195
     37 C          -1.2037  -18.5881   20.5699 C.ar    1  UNL1        0.1481
     38 C          -0.1147  -17.8617   19.8376 C.ar    1  UNL1        0.1480
     39 N           1.1866  -17.5709   20.5248 N.pl3   1  UNL1       -0.3413
     40 N          -0.3269  -17.4262   18.4180 N.ar    1  UNL1       -0.2078
     41 C          -1.6281  -17.7170   17.7308 C.ar    1  UNL1        0.2015
     42 N          -2.7171  -18.4434   18.4631 N.ar    1  UNL1       -0.2048
     43 C          -2.5049  -18.8789   19.8827 C.ar    1  UNL1        0.1674
     44 H           1.3258  -17.8568   21.4565 H       1  UNL1        0.1438
     45 H           1.9013  -17.0941   20.0441 H       1  UNL1        0.1438
@<TRIPOS>BOND
     1    32    31    1
     2    32    33    1
     3    33    34    1
     4    34    35   ar
     5    35    36   ar
     6    36    37   ar
     7    37    38   ar
     8    38    39    1
     9    38    40   ar
    10    40    41   ar
    11    41    42   ar
    12    42    43   ar
    13    32    30    1
    14    30    29    1
    15    29    25    1
    16    25    26    2
    17    25    27    1
    18    25    24    1
    19    24     1    1
    20     1     2    1
    21     2     3    1
    22     3     4    1
    23     4     5    1
    24     5     6    1
    25     6     7    1
    26     7     8    1
    27     8     9    1
    28     9    10    1
    29    10    11    1
    30    11    12    1
    31    12    13    1
    32    13    14    1
    33    14    15    1
    34    15    16    1
    35    16    17    1
    36    17    18    1
    37    18    19    3
    38    19    20    1
    39    20    21    1
    40    20    22    1
    41    20    23    1
    42    43    34   ar
    43    43    37   ar
    44    39    44    1
    45    39    45    1
    46    27    28    1
@<TRIPOS>MOLECULE
*****
 45 46 0 0 0
SMALL
GASTEIGER

@<TRIPOS>ATOM
      1 C          -6.5593  -15.4676   27.2203 C.3     1  UNL1        0.1540
      2 C          -7.9875  -15.7329   27.5941 C.3     1  UNL1        0.0646
      3 C          -8.7814  -16.7595   26.8419 C.3     1  UNL1        0.1448
      4 O          -9.1559  -16.5165   25.4099 O.3     1  UNL1       -0.3537
      5 C          -9.7615  -17.6208   24.5953 C.3     1  UNL1        0.1422
      6 C          -9.9564  -18.9793   25.2006 C.3     1  UNL1        0.0321
      7 C          -9.8781  -20.2035   24.3372 C.3     1  UNL1        0.0026
      8 C          -9.3298  -20.1051   22.9444 C.3     1  UNL1        0.0001
      9 C          -7.8569  -19.9206   22.7295 C.3     1  UNL1        0.0000
     10 C          -7.2907  -19.9604   21.3410 C.3     1  UNL1        0.0000
     11 C          -7.8883  -19.1060   20.2626 C.3     1  UNL1        0.0000
     12 C          -8.6522  -19.7418   19.1391 C.3     1  UNL1        0.0000
     13 C         -10.1413  -19.8938   19.2362 C.3     1  UNL1        0.0000
     14 C         -10.9386  -18.9450   20.0812 C.3     1  UNL1        0.0000
     15 C         -11.1218  -17.5224   19.6423 C.3     1  UNL1        0.0010
     16 C         -12.1070  -16.6402   20.3501 C.3     1  UNL1        0.0140
     17 C         -11.9121  -16.3105   21.8003 C.3     1  UNL1        0.0763
     18 C         -12.7147  -17.0255   22.8465 C.1     1  UNL1       -0.0832
     19 C         -13.5173  -17.7405   23.8927 C.1     1  UNL1        0.0088
     20 C         -14.3200  -18.4555   24.9389 C.3     1  UNL1        0.4589
     21 F         -15.1226  -19.1705   25.9851 F       1  UNL1       -0.1586
     22 F         -13.1427  -18.4181   25.8677 F       1  UNL1       -0.1586
     23 F         -15.4973  -18.4929   24.0101 F       1  UNL1       -0.1586
     24 O          -5.9508  -16.1656   26.0402 O.3     1  UNL1       -0.2925
     25 P          -5.6539  -15.3982   24.7860 P.3     1  UNL1        0.3697
     26 O          -5.1908  -14.2327   25.6088 O.2     1  UNL1       -0.2553
     27 O          -5.3571  -14.6309   23.5318 O.3     1  UNL1       -0.3218
     28 H          -5.0107  -13.7548   23.7631 H       1  UNL1        0.2198
     29 C          -6.1171  -16.5638   23.9633 C.3     1  UNL1        0.2579
     30 O          -5.2220  -17.1379   22.9053 O.3     1  UNL1       -0.3426
     31 C          -3.4029  -17.9441   24.5759 C.3     1  UNL1        0.0342
     32 C          -4.1433  -18.1097   23.2819 C.3     1  UNL1        0.1387
     33 C          -3.8048  -19.2473   22.3645 C.3     1  UNL1        0.1384
     34 N          -3.4373  -18.9748   20.9359 N.ar    1  UNL1       -0.2918
     35 C          -4.3428  -19.1214   19.7492 C.ar    1  UNL1        0.1798
     36 N          -3.5648  -18.7451   18.5232 N.ar    1  UNL1       -0.2195
     37 C          -2.1784  -18.3658   18.9523 C.ar    1  UNL1        0.1481
     38 C          -0.9776  -17.9096   18.1778 C.ar    1  UNL1        0.1480
     39 N          -1.0564  -17.7676   16.6866 N.pl3   1  UNL1       -0.3413
     40 N           0.3020  -17.5953   18.8945 N.ar    1  UNL1       -0.2078
     41 C           0.3808  -17.7372   20.3857 C.ar    1  UNL1        0.2015
     42 N          -0.8200  -18.1935   21.1602 N.ar    1  UNL1       -0.2048
     43 C          -2.0996  -18.5078   20.4434 C.ar    1  UNL1        0.1674
     44 H          -1.8963  -17.9739   16.2162 H       1  UNL1        0.1438
     45 H          -0.2683  -17.4681   16.1783 H       1  UNL1        0.1438
@<TRIPOS>BOND
     1    32    31    1
     2    32    33    1
     3    33    34    1
     4    34    35   ar
     5    35    36   ar
     6    36    37   ar
     7    37    38   ar
     8    38    39    1
     9    38    40   ar
    10    40    41   ar
    11    41    42   ar
    12    42    43   ar
    13    32    30    1
    14    30    29    1
    15    29    25    1
    16    25    26    2
    17    25    27    1
    18    25    24    1
    19    24     1    1
    20     1     2    1
    21     2     3    1
    22     3     4    1
    23     4     5    1
    24     5     6    1
    25     6     7    1
    26     7     8    1
    27     8     9    1
    28     9    10    1
    29    10    11    1
    30    11    12    1
    31    12    13    1
    32    13    14    1
    33    14    15    1
    34    15    16    1
    35    16    17    1
    36    17    18    1
    37    18    19    3
    38    19    20    1
    39    20    21    1
    40    20    22    1
    41    20    23    1
    42    43    34   ar
    43    43    37   ar
    44    39    44    1
    45    39    45    1
    46    27    28    1
@<TRIPOS>MOLECULE
*****
 45 46 0 0 0
SMALL
GASTEIGER

@<TRIPOS>ATOM
      1 C          -7.0718  -15.7225   27.1638 C.3     1  UNL1        0.1540
      2 C          -8.3926  -16.2006   26.6376 C.3     1  UNL1        0.0646
      3 C          -9.0176  -15.5238   25.4538 C.3     1  UNL1        0.1448
      4 O          -9.3474  -16.3170   24.2242 O.3     1  UNL1       -0.3537
      5 C          -8.4303  -16.2777   23.0379 C.3     1  UNL1        0.1422
      6 C          -8.3443  -17.4584   22.1168 C.3     1  UNL1        0.0321
      7 C          -7.6348  -18.7041   22.5584 C.3     1  UNL1        0.0026
      8 C          -8.4242  -19.8942   23.0171 C.3     1  UNL1        0.0001
      9 C          -9.6806  -20.2841   22.2964 C.3     1  UNL1        0.0000
     10 C         -11.0176  -20.0160   22.9212 C.3     1  UNL1        0.0000
     11 C         -11.0974  -19.4070   24.2897 C.3     1  UNL1        0.0000
     12 C         -12.0693  -18.2972   24.5611 C.3     1  UNL1        0.0000
     13 C         -13.2938  -18.1470   23.7079 C.3     1  UNL1        0.0000
     14 C         -13.3008  -17.1679   22.5716 C.3     1  UNL1        0.0000
     15 C         -12.1364  -16.2440   22.3706 C.3     1  UNL1        0.0010
     16 C         -11.3227  -16.3255   21.1131 C.3     1  UNL1        0.0140
     17 C         -11.7436  -17.2456   20.0057 C.3     1  UNL1        0.0763
     18 C         -10.8161  -18.3267   19.5356 C.1     1  UNL1       -0.0832
     19 C          -9.8887  -19.4079   19.0655 C.1     1  UNL1        0.0088
     20 C          -8.9613  -20.4890   18.5954 C.3     1  UNL1        0.4589
     21 F          -8.0338  -21.5701   18.1253 F       1  UNL1       -0.1586
     22 F          -9.9582  -20.8890   17.5485 F       1  UNL1       -0.1586
     23 F          -7.9643  -20.0890   19.6423 F       1  UNL1       -0.1586
     24 O          -5.8050  -16.0749   26.4421 O.3     1  UNL1       -0.2925
     25 P          -5.3614  -15.2596   25.2637 P.3     1  UNL1        0.3697
     26 O          -5.0405  -14.1139   26.1772 O.2     1  UNL1       -0.2553
     27 O          -4.9179  -14.4443   24.0853 O.3     1  UNL1       -0.3218
     28 H          -4.6266  -13.5701   24.3883 H       1  UNL1        0.2198
     29 C          -5.6824  -16.4053   24.3502 C.3     1  UNL1        0.2579
     30 O          -4.7039  -16.8163   23.2903 O.3     1  UNL1       -0.3426
     31 C          -2.9650  -18.1697   24.6666 C.3     1  UNL1        0.0342
     32 C          -3.8701  -18.0491   23.4766 C.3     1  UNL1        0.1387
     33 C          -3.9414  -19.1616   22.4728 C.3     1  UNL1        0.1384
     34 N          -3.5954  -18.8995   21.0369 N.ar    1  UNL1       -0.2918
     35 C          -4.5389  -18.9810   19.8737 C.ar    1  UNL1        0.1798
     36 N          -3.7718  -18.6418   18.6301 N.ar    1  UNL1       -0.2195
     37 C          -2.3542  -18.3506   19.0248 C.ar    1  UNL1        0.1481
     38 C          -1.1486  -17.9610   18.2219 C.ar    1  UNL1        0.1480
     39 N          -1.2576  -17.8017   16.7344 N.pl3   1  UNL1       -0.3413
     40 N           0.1660  -17.7307   18.9065 N.ar    1  UNL1       -0.2078
     41 C           0.2750  -17.8900   20.3941 C.ar    1  UNL1        0.2015
     42 N          -0.9306  -18.2796   21.1970 N.ar    1  UNL1       -0.2048
     43 C          -2.2452  -18.5099   20.5123 C.ar    1  UNL1        0.1674
     44 H          -2.1205  -17.9529   16.2850 H       1  UNL1        0.1438
     45 H          -0.4663  -17.5460   16.2074 H       1  UNL1        0.1438
@<TRIPOS>BOND
     1    32    31    1
     2    32    33    1
     3    33    34    1
     4    34    35   ar
     5    35    36   ar
     6    36    37   ar
     7    37    38   ar
     8    38    39    1
     9    38    40   ar
    10    40    41   ar
    11    41    42   ar
    12    42    43   ar
    13    32    30    1
    14    30    29    1
    15    29    25    1
    16    25    26    2
    17    25    27    1
    18    25    24    1
    19    24     1    1
    20     1     2    1
    21     2     3    1
    22     3     4    1
    23     4     5    1
    24     5     6    1
    25     6     7    1
    26     7     8    1
    27     8     9    1
    28     9    10    1
    29    10    11    1
    30    11    12    1
    31    12    13    1
    32    13    14    1
    33    14    15    1
    34    15    16    1
    35    16    17    1
    36    17    18    1
    37    18    19    3
    38    19    20    1
    39    20    21    1
    40    20    22    1
    41    20    23    1
    42    43    34   ar
    43    43    37   ar
    44    39    44    1
    45    39    45    1
    46    27    28    1
@<TRIPOS>MOLECULE
*****
 45 46 0 0 0
SMALL
GASTEIGER

@<TRIPOS>ATOM
      1 C          -6.0099  -15.1049   24.3449 C.3     1  UNL1        0.1540
      2 C          -5.2989  -14.8163   25.6337 C.3     1  UNL1        0.0646
      3 C          -6.0781  -14.6978   26.9099 C.3     1  UNL1        0.1448
      4 O          -6.8389  -15.8784   27.4365 O.3     1  UNL1       -0.3537
      5 C          -8.3024  -16.0206   27.1400 C.3     1  UNL1        0.1422
      6 C          -8.8942  -17.3810   26.9188 C.3     1  UNL1        0.0321
      7 C          -9.5096  -17.7250   25.5947 C.3     1  UNL1        0.0026
      8 C         -10.2606  -19.0128   25.4287 C.3     1  UNL1        0.0001
      9 C          -9.7250  -20.0821   24.5234 C.3     1  UNL1        0.0000
     10 C         -10.5031  -20.4966   23.3098 C.3     1  UNL1        0.0000
     11 C         -11.0180  -19.4578   22.3582 C.3     1  UNL1        0.0000
     12 C         -12.4279  -18.9608   22.4814 C.3     1  UNL1        0.0000
     13 C         -12.7214  -17.7289   23.2852 C.3     1  UNL1        0.0000
     14 C         -12.4638  -16.3721   22.6996 C.3     1  UNL1        0.0000
     15 C         -11.0959  -16.0209   22.1941 C.3     1  UNL1        0.0010
     16 C         -10.8572  -15.8676   20.7212 C.3     1  UNL1        0.0140
     17 C         -11.4249  -16.8704   19.7610 C.3     1  UNL1        0.0763
     18 C         -10.6266  -18.0830   19.3837 C.1     1  UNL1       -0.0832
     19 C          -9.8282  -19.2956   19.0065 C.1     1  UNL1        0.0088
     20 C          -9.0299  -20.5082   18.6293 C.3     1  UNL1        0.4589
     21 F          -8.2316  -21.7207   18.2520 F       1  UNL1       -0.1586
     22 F          -9.9150  -20.7198   17.4368 F       1  UNL1       -0.1586
     23 F          -8.1449  -20.2965   19.8217 F       1  UNL1       -0.1586
     24 O          -5.2222  -15.4190   23.1077 O.3     1  UNL1       -0.2925
     25 P          -4.1099  -16.4240   23.1617 P.3     1  UNL1        0.3697
     26 O          -3.2879  -15.5632   22.2488 O.2     1  UNL1       -0.2553
     27 O          -2.9976  -17.4289   23.2157 O.3     1  UNL1       -0.3218
     28 H          -2.2567  -17.1207   22.6708 H       1  UNL1        0.2198
     29 C          -4.9319  -17.2847   24.0746 C.3     1  UNL1        0.2579
     30 O          -5.5483  -18.5509   23.5581 O.3     1  UNL1       -0.3426
     31 C          -7.5953  -17.8794   22.1059 C.3     1  UNL1        0.0342
     32 C          -6.2621  -18.5538   22.2389 C.3     1  UNL1        0.1387
     33 C          -5.6426  -19.2313   21.0524 C.3     1  UNL1        0.1384
     34 N          -4.1501  -19.3324   20.9412 N.ar    1  UNL1       -0.2918
     35 C          -3.2580  -20.1839   21.7951 C.ar    1  UNL1        0.1798
     36 N          -1.8443  -19.9775   21.3380 N.ar    1  UNL1       -0.2195
     37 C          -1.8627  -18.9985   20.2017 C.ar    1  UNL1        0.1481
     38 C          -0.7660  -18.4185   19.3587 C.ar    1  UNL1        0.1480
     39 N           0.6591  -18.8172   19.6040 N.pl3   1  UNL1       -0.3413
     40 N          -1.0943  -17.4399   18.2704 N.ar    1  UNL1       -0.2078
     41 C          -2.5194  -17.0412   18.0251 C.ar    1  UNL1        0.2015
     42 N          -3.6162  -17.6212   18.8681 N.ar    1  UNL1       -0.2048
     43 C          -3.2878  -18.5998   19.9564 C.ar    1  UNL1        0.1674
     44 H           0.8746  -19.4595   20.3183 H       1  UNL1        0.1438
     45 H           1.3790  -18.4366   19.0506 H       1  UNL1        0.1438
@<TRIPOS>BOND
     1    32    31    1
     2    32    33    1
     3    33    34    1
     4    34    35   ar
     5    35    36   ar
     6    36    37   ar
     7    37    38   ar
     8    38    39    1
     9    38    40   ar
    10    40    41   ar
    11    41    42   ar
    12    42    43   ar
    13    32    30    1
    14    30    29    1
    15    29    25    1
    16    25    26    2
    17    25    27    1
    18    25    24    1
    19    24     1    1
    20     1     2    1
    21     2     3    1
    22     3     4    1
    23     4     5    1
    24     5     6    1
    25     6     7    1
    26     7     8    1
    27     8     9    1
    28     9    10    1
    29    10    11    1
    30    11    12    1
    31    12    13    1
    32    13    14    1
    33    14    15    1
    34    15    16    1
    35    16    17    1
    36    17    18    1
    37    18    19    3
    38    19    20    1
    39    20    21    1
    40    20    22    1
    41    20    23    1
    42    43    34   ar
    43    43    37   ar
    44    39    44    1
    45    39    45    1
    46    27    28    1
@<TRIPOS>MOLECULE
*****
 45 46 0 0 0
SMALL
GASTEIGER

@<TRIPOS>ATOM
      1 C           6.7079   -3.9377   28.7412 C.3     1  UNL1        0.1540
      2 C           7.3140   -3.5610   27.4219 C.3     1  UNL1        0.0646
      3 C           6.8864   -4.2691   26.1706 C.3     1  UNL1        0.1448
      4 O           7.1118   -3.6297   24.8326 O.3     1  UNL1       -0.3537
      5 C           5.9808   -3.5203   23.8535 C.3     1  UNL1        0.1422
      6 C           6.2672   -3.2875   22.3996 C.3     1  UNL1        0.0321
      7 C           6.3541   -1.8878   21.8671 C.3     1  UNL1        0.0026
      8 C           6.7856   -1.6498   20.4503 C.3     1  UNL1        0.0001
      9 C           6.2219   -0.4937   19.6787 C.3     1  UNL1        0.0000
     10 C           5.8433   -0.6669   18.2376 C.3     1  UNL1        0.0000
     11 C           4.6657    0.0741   17.6773 C.3     1  UNL1        0.0000
     12 C           4.3460    1.4551   18.1677 C.3     1  UNL1        0.0000
     13 C           2.9373    1.8116   18.5396 C.3     1  UNL1        0.0000
     14 C           1.8250    0.8380   18.2849 C.3     1  UNL1        0.0000
     15 C           0.8214    0.5474   19.3611 C.3     1  UNL1        0.0010
     16 C           1.0639   -0.5712   20.3305 C.3     1  UNL1        0.0140
     17 C           2.4670   -0.9598   20.6917 C.3     1  UNL1        0.0763
     18 C           3.0658   -2.2151   20.1301 C.1     1  UNL1       -0.0832
     19 C           3.6646   -3.4705   19.5684 C.1     1  UNL1        0.0088
     20 C           4.2634   -4.7259   19.0067 C.3     1  UNL1        0.4589
     21 F           4.8623   -5.9812   18.4451 F       1  UNL1       -0.1586
     22 F           5.3377   -3.9164   18.3429 F       1  UNL1       -0.1586
     23 F           3.1892   -5.5353   19.6706 F       1  UNL1       -0.1586
     24 O           7.5930   -4.2579   29.9091 O.3     1  UNL1       -0.2925
     25 P           6.9921   -4.7441   31.1946 P.3     1  UNL1        0.3697
     26 O           7.1055   -6.1599   30.7120 O.2     1  UNL1       -0.2553
     27 O           6.3911   -5.2304   32.4800 O.3     1  UNL1       -0.3218
     28 H           6.3307   -6.1984   32.4629 H       1  UNL1        0.2198
     29 C           6.8787   -3.3284   31.6771 C.3     1  UNL1        0.2579
     30 O           5.5717   -2.6007   31.5665 O.3     1  UNL1       -0.3426
     31 C           4.0317   -2.8172   33.6477 C.3     1  UNL1        0.0342
     32 C           4.9448   -1.9951   32.7872 C.3     1  UNL1        0.1387
     33 C           5.2309   -0.5673   33.1474 C.3     1  UNL1        0.1384
     34 N           4.1143    0.4332   33.1921 N.ar    1  UNL1       -0.2918
     35 C           3.8911    1.4581   34.2644 C.ar    1  UNL1        0.1798
     36 N           2.6636    2.2428   33.9073 N.ar    1  UNL1       -0.2195
     37 C           2.1281    1.7028   32.6144 C.ar    1  UNL1        0.1481
     38 C           0.9399    2.0850   31.7825 C.ar    1  UNL1        0.1480
     39 N           0.0434    3.2034   32.2245 N.pl3   1  UNL1       -0.3413
     40 N           0.6483    1.3489   30.5085 N.ar    1  UNL1       -0.2078
     41 C           1.5449    0.2305   30.0665 C.ar    1  UNL1        0.2015
     42 N           2.7331   -0.1517   30.8984 N.ar    1  UNL1       -0.2048
     43 C           3.0247    0.5844   32.1724 C.ar    1  UNL1        0.1674
     44 H           0.2348    3.6866   33.0607 H       1  UNL1        0.1438
     45 H          -0.7365    3.4543   31.6785 H       1  UNL1        0.1438
@<TRIPOS>BOND
     1    32    31    1
     2    32    33    1
     3    33    34    1
     4    34    35   ar
     5    35    36   ar
     6    36    37   ar
     7    37    38   ar
     8    38    39    1
     9    38    40   ar
    10    40    41   ar
    11    41    42   ar
    12    42    43   ar
    13    32    30    1
    14    30    29    1
    15    29    25    1
    16    25    26    2
    17    25    27    1
    18    25    24    1
    19    24     1    1
    20     1     2    1
    21     2     3    1
    22     3     4    1
    23     4     5    1
    24     5     6    1
    25     6     7    1
    26     7     8    1
    27     8     9    1
    28     9    10    1
    29    10    11    1
    30    11    12    1
    31    12    13    1
    32    13    14    1
    33    14    15    1
    34    15    16    1
    35    16    17    1
    36    17    18    1
    37    18    19    3
    38    19    20    1
    39    20    21    1
    40    20    22    1
    41    20    23    1
    42    43    34   ar
    43    43    37   ar
    44    39    44    1
    45    39    45    1
    46    27    28    1
@<TRIPOS>MOLECULE
*****
 45 46 0 0 0
SMALL
GASTEIGER

@<TRIPOS>ATOM
      1 C           7.0768   -4.7660   28.4000 C.3     1  UNL1        0.1540
      2 C           7.8101   -4.8078   27.0921 C.3     1  UNL1        0.0646
      3 C           7.2137   -5.5304   25.9207 C.3     1  UNL1        0.1448
      4 O           7.6098   -5.1508   24.5246 O.3     1  UNL1       -0.3537
      5 C           8.4877   -6.0627   23.7199 C.3     1  UNL1        0.1422
      6 C           8.6010   -5.8776   22.2357 C.3     1  UNL1        0.0321
      7 C           8.5969   -4.4967   21.6496 C.3     1  UNL1        0.0026
      8 C           7.4166   -4.0230   20.8543 C.3     1  UNL1        0.0001
      9 C           6.6378   -2.8245   21.3094 C.3     1  UNL1        0.0000
     10 C           6.5733   -1.5998   20.4458 C.3     1  UNL1        0.0000
     11 C           7.1362   -1.6317   19.0558 C.3     1  UNL1        0.0000
     12 C           6.2733   -1.2540   17.8884 C.3     1  UNL1        0.0000
     13 C           5.5217    0.0440   17.9002 C.3     1  UNL1        0.0000
     14 C           4.1258    0.1074   17.3549 C.3     1  UNL1        0.0000
     15 C           2.9991    0.5706   18.2301 C.3     1  UNL1        0.0010
     16 C           3.0133    0.2609   19.6977 C.3     1  UNL1        0.0140
     17 C           2.4236   -1.0240   20.1989 C.3     1  UNL1        0.0763
     18 C           3.0392   -2.3347   19.8076 C.1     1  UNL1       -0.0832
     19 C           3.6548   -3.6454   19.4162 C.1     1  UNL1        0.0088
     20 C           4.2703   -4.9561   19.0249 C.3     1  UNL1        0.4589
     21 F           4.8859   -6.2668   18.6336 F       1  UNL1       -0.1586
     22 F           5.2334   -4.2361   18.1282 F       1  UNL1       -0.1586
     23 F           3.3072   -5.6761   19.9216 F       1  UNL1       -0.1586
     24 O           7.8401   -4.6280   29.6838 O.3     1  UNL1       -0.2925
     25 P           7.2507   -5.1382   30.9654 P.3     1  UNL1        0.3697
     26 O           7.9423   -6.4532   30.7600 O.2     1  UNL1       -0.2553
     27 O           6.6614   -5.6483   32.2470 O.3     1  UNL1       -0.3218
     28 H           6.9560   -6.5600   32.3980 H       1  UNL1        0.2198
     29 C           6.5591   -3.8231   31.1708 C.3     1  UNL1        0.2579
     30 O           6.0148   -3.4649   32.5218 O.3     1  UNL1       -0.3426
     31 C           4.2228   -2.0962   33.8125 C.3     1  UNL1        0.0342
     32 C           5.2253   -2.2022   32.7017 C.3     1  UNL1        0.1387
     33 C           5.4382   -1.0454   31.7707 C.3     1  UNL1        0.1384
     34 N           4.6003   -0.9144   30.5334 N.ar    1  UNL1       -0.2918
     35 C           3.1173   -0.6930   30.4923 C.ar    1  UNL1        0.1798
     36 N           2.6988   -0.6235   29.0536 N.ar    1  UNL1       -0.2195
     37 C           3.9231   -0.8019   28.2055 C.ar    1  UNL1        0.1481
     38 C           4.1196   -0.8238   26.7186 C.ar    1  UNL1        0.1480
     39 N           2.9444   -0.6441   25.8040 N.pl3   1  UNL1       -0.3413
     40 N           5.4914   -1.0256   26.1464 N.ar    1  UNL1       -0.2078
     41 C           6.6666   -1.2053   27.0610 C.ar    1  UNL1        0.2015
     42 N           6.4701   -1.1834   28.5479 N.ar    1  UNL1       -0.2048
     43 C           5.0983   -0.9816   29.1201 C.ar    1  UNL1        0.1674
     44 H           2.0440   -0.5117   26.1796 H       1  UNL1        0.1438
     45 H           3.0734   -0.6585   24.8281 H       1  UNL1        0.1438
@<TRIPOS>BOND
     1    32    31    1
     2    32    33    1
     3    33    34    1
     4    34    35   ar
     5    35    36   ar
     6    36    37   ar
     7    37    38   ar
     8    38    39    1
     9    38    40   ar
    10    40    41   ar
    11    41    42   ar
    12    42    43   ar
    13    32    30    1
    14    30    29    1
    15    29    25    1
    16    25    26    2
    17    25    27    1
    18    25    24    1
    19    24     1    1
    20     1     2    1
    21     2     3    1
    22     3     4    1
    23     4     5    1
    24     5     6    1
    25     6     7    1
    26     7     8    1
    27     8     9    1
    28     9    10    1
    29    10    11    1
    30    11    12    1
    31    12    13    1
    32    13    14    1
    33    14    15    1
    34    15    16    1
    35    16    17    1
    36    17    18    1
    37    18    19    3
    38    19    20    1
    39    20    21    1
    40    20    22    1
    41    20    23    1
    42    43    34   ar
    43    43    37   ar
    44    39    44    1
    45    39    45    1
    46    27    28    1
