@<TRIPOS>MOLECULE
*****
 29 31 0 0 0
SMALL
GASTEIGER

@<TRIPOS>ATOM
      1 C           7.3403   -3.7727   21.7109 C.2     1  UNL1        0.2435
      2 O           7.4883   -5.0472   20.9338 O.2     1  UNL1       -0.2731
      3 N           7.2321   -3.8144   23.2064 N.am    1  UNL1       -0.2782
      4 C           7.0842   -2.5400   23.9835 C.3     1  UNL1        0.0938
      5 C           6.9760   -2.5817   25.4790 C.3     1  UNL1        0.0259
      6 C           7.0157   -3.8979   26.1974 C.3     1  UNL1        0.0257
      7 C           7.1636   -5.1723   25.4203 C.3     1  UNL1        0.0259
      8 C           7.2718   -5.1306   23.9248 C.3     1  UNL1        0.0938
      9 C           6.9075   -3.9396   27.6929 C.ar    1  UNL1       -0.0223
     10 C           6.8394   -2.6620   28.4758 C.ar    1  UNL1       -0.0034
     11 C           6.7311   -2.7037   29.9714 C.ar    1  UNL1        0.0111
     12 C           6.6910   -4.0230   30.6840 C.ar    1  UNL1        0.0577
     13 CL          6.5828   -4.0647   32.1794 Cl      1  UNL1       -0.0822
     14 C           6.7591   -5.3007   29.9009 C.ar    1  UNL1        0.0111
     15 C           6.8674   -5.2589   28.4055 C.ar    1  UNL1       -0.0034
     16 C           7.3006   -2.4565   20.9925 C.3     1  UNL1        0.1489
     17 N           5.9979   -1.7313   20.8272 N.am    1  UNL1       -0.2948
     18 C           5.1543   -1.9726   19.6107 C.2     1  UNL1        0.2461
     19 O           5.6133   -2.9391   18.5594 O.2     1  UNL1       -0.2701
     20 H           5.6967   -1.0970   21.5172 H       1  UNL1        0.1501
     21 C           3.8517   -1.2474   19.4454 C.ar    1  UNL1        0.0534
     22 C           2.7239   -1.5042   20.4004 C.ar    1  UNL1        0.0045
     23 C           1.4213   -0.7790   20.2351 C.ar    1  UNL1        0.0001
     24 C           1.2465    0.2030   19.1147 C.ar    1  UNL1        0.0000
     25 C           2.3743    0.4597   18.1597 C.ar    1  UNL1        0.0001
     26 C           3.6769   -0.2655   18.3250 C.ar    1  UNL1        0.0045
     27 C           9.1705   -2.4296   19.1891 C.3     1  UNL1        0.0022
     28 C           8.5634   -1.8656   20.4394 C.3     1  UNL1        0.0269
     29 C           9.2191   -0.7106   21.1365 C.3     1  UNL1        0.0022
@<TRIPOS>BOND
     1    27    28    1
     2    28    29    1
     3    28    16    1
     4    16    17    1
     5    17    18   am
     6    18    19    2
     7    18    21    1
     8    21    22   ar
     9    22    23   ar
    10    23    24   ar
    11    24    25   ar
    12    25    26   ar
    13    16     1    1
    14     1     2    2
    15     1     3   am
    16     3     4    1
    17     4     5    1
    18     5     6    1
    19     6     9    1
    20     9    10   ar
    21    10    11   ar
    22    11    12   ar
    23    12    13    1
    24    12    14   ar
    25    14    15   ar
    26     6     7    1
    27     7     8    1
    28    26    21   ar
    29     8     3    1
    30    15     9   ar
    31    17    20    1
@<TRIPOS>MOLECULE
*****
 29 31 0 0 0
SMALL
GASTEIGER

@<TRIPOS>ATOM
      1 C          -0.9212    5.1245   19.4244 C.2     1  UNL1        0.2435
      2 O          -0.3900    6.4394   18.9356 O.2     1  UNL1       -0.2731
      3 N          -0.0858    3.8850   19.2997 N.am    1  UNL1       -0.2782
      4 C          -0.6170    2.5702   19.7885 C.3     1  UNL1        0.0938
      5 C           0.2185    1.3306   19.6638 C.3     1  UNL1        0.0259
      6 C           1.5852    1.4059   19.0504 C.3     1  UNL1        0.0257
      7 C           2.1165    2.7209   18.5616 C.3     1  UNL1        0.0259
      8 C           1.2810    3.9603   18.6863 C.3     1  UNL1        0.0938
      9 C           2.4207    0.1665   18.9257 C.ar    1  UNL1       -0.0223
     10 C           3.3523    0.0039   17.7614 C.ar    1  UNL1       -0.0034
     11 C           4.1879   -1.2356   17.6367 C.ar    1  UNL1        0.0111
     12 C           4.0918   -2.3126   18.6764 C.ar    1  UNL1        0.0577
     13 CL          4.9272   -3.5521   18.5517 Cl      1  UNL1       -0.0822
     14 C           3.1601   -2.1500   19.8407 C.ar    1  UNL1        0.0111
     15 C           2.3246   -0.9105   19.9654 C.ar    1  UNL1       -0.0034
     16 C          -2.2880    5.0492   20.0378 C.3     1  UNL1        0.1489
     17 N          -2.4391    5.0050   21.5296 N.am    1  UNL1       -0.2948
     18 C          -3.2021    3.8854   22.1733 C.2     1  UNL1        0.2461
     19 O          -3.8139    2.8099   21.3253 O.2     1  UNL1       -0.2701
     20 H          -2.0376    5.7108   22.0861 H       1  UNL1        0.1501
     21 C          -3.3532    3.8412   23.6650 C.ar    1  UNL1        0.0534
     22 C          -2.1727    3.5097   24.5290 C.ar    1  UNL1        0.0045
     23 C          -2.3239    3.4655   26.0207 C.ar    1  UNL1        0.0001
     24 C          -3.6556    3.7528   26.6484 C.ar    1  UNL1        0.0000
     25 C          -4.8361    4.0843   25.7844 C.ar    1  UNL1        0.0001
     26 C          -4.6849    4.1285   24.2928 C.ar    1  UNL1        0.0045
     27 C          -3.5565    4.0867   17.9850 C.3     1  UNL1        0.0022
     28 C          -3.5036    5.0180   19.1596 C.3     1  UNL1        0.0269
     29 C          -4.6662    5.9182   19.4559 C.3     1  UNL1        0.0022
@<TRIPOS>BOND
     1    27    28    1
     2    28    29    1
     3    28    16    1
     4    16    17    1
     5    17    18   am
     6    18    19    2
     7    18    21    1
     8    21    22   ar
     9    22    23   ar
    10    23    24   ar
    11    24    25   ar
    12    25    26   ar
    13    16     1    1
    14     1     2    2
    15     1     3   am
    16     3     4    1
    17     4     5    1
    18     5     6    1
    19     6     9    1
    20     9    10   ar
    21    10    11   ar
    22    11    12   ar
    23    12    13    1
    24    12    14   ar
    25    14    15   ar
    26     6     7    1
    27     7     8    1
    28    26    21   ar
    29     8     3    1
    30    15     9   ar
    31    17    20    1
@<TRIPOS>MOLECULE
*****
 29 31 0 0 0
SMALL
GASTEIGER

@<TRIPOS>ATOM
      1 C           6.3236   -2.4824   19.5190 C.2     1  UNL1        0.2435
      2 O           7.2538   -2.5120   18.3426 O.2     1  UNL1       -0.2731
      3 N           6.6611   -3.2519   20.7615 N.am    1  UNL1       -0.2782
      4 C           5.7309   -3.2222   21.9379 C.3     1  UNL1        0.0938
      5 C           6.0684   -3.9917   23.1805 C.3     1  UNL1        0.0259
      6 C           7.3360   -4.7909   23.2467 C.3     1  UNL1        0.0257
      7 C           8.2662   -4.8205   22.0702 C.3     1  UNL1        0.0259
      8 C           7.9287   -4.0510   20.8277 C.3     1  UNL1        0.0938
      9 C           7.6735   -5.5604   24.4892 C.ar    1  UNL1       -0.0223
     10 C           7.5713   -4.8993   25.8317 C.ar    1  UNL1       -0.0034
     11 C           7.9088   -5.6688   27.0744 C.ar    1  UNL1        0.0111
     12 C           8.3485   -7.0994   26.9744 C.ar    1  UNL1        0.0577
     13 CL          8.6860   -7.8689   28.2169 Cl      1  UNL1       -0.0822
     14 C           8.4507   -7.7605   25.6317 C.ar    1  UNL1        0.0111
     15 C           8.1132   -6.9910   24.3892 C.ar    1  UNL1       -0.0034
     16 C           5.0560   -1.6832   19.4528 C.3     1  UNL1        0.1489
     17 N           5.1162   -0.1942   19.2809 N.am    1  UNL1       -0.2948
     18 C           4.9630    0.4100   17.9166 C.2     1  UNL1        0.2461
     19 O           4.7496   -0.4746   16.7242 O.2     1  UNL1       -0.2701
     20 H           5.2562    0.3864   20.0635 H       1  UNL1        0.1501
     21 C           5.0232    1.8990   17.7447 C.ar    1  UNL1        0.0534
     22 C           3.9022    2.7582   18.2497 C.ar    1  UNL1        0.0045
     23 C           3.9624    4.2470   18.0778 C.ar    1  UNL1        0.0001
     24 C           5.1437    4.8767   17.4008 C.ar    1  UNL1        0.0000
     25 C           6.2647    4.0175   16.8958 C.ar    1  UNL1        0.0001
     26 C           6.2044    2.5286   17.0678 C.ar    1  UNL1        0.0045
     27 C           2.5455   -1.6409   20.1201 C.3     1  UNL1        0.0022
     28 C           3.7282   -2.3729   19.5586 C.3     1  UNL1        0.0269
     29 C           3.5831   -3.7946   19.1028 C.3     1  UNL1        0.0022
@<TRIPOS>BOND
     1    27    28    1
     2    28    29    1
     3    28    16    1
     4    16    17    1
     5    17    18   am
     6    18    19    2
     7    18    21    1
     8    21    22   ar
     9    22    23   ar
    10    23    24   ar
    11    24    25   ar
    12    25    26   ar
    13    16     1    1
    14     1     2    2
    15     1     3   am
    16     3     4    1
    17     4     5    1
    18     5     6    1
    19     6     9    1
    20     9    10   ar
    21    10    11   ar
    22    11    12   ar
    23    12    13    1
    24    12    14   ar
    25    14    15   ar
    26     6     7    1
    27     7     8    1
    28    26    21   ar
    29     8     3    1
    30    15     9   ar
    31    17    20    1
@<TRIPOS>MOLECULE
*****
 29 31 0 0 0
SMALL
GASTEIGER

@<TRIPOS>ATOM
      1 C         -17.0347   -0.6986   19.8110 C.2     1  UNL1        0.2435
      2 O         -18.3214   -1.1137   20.4608 O.2     1  UNL1       -0.2731
      3 N         -15.9259   -1.6940   19.6393 N.am    1  UNL1       -0.2782
      4 C         -14.6393   -1.2789   18.9895 C.3     1  UNL1        0.0938
      5 C         -13.5303   -2.2744   18.8178 C.3     1  UNL1        0.0259
      6 C         -13.7081   -3.6850   19.2959 C.3     1  UNL1        0.0257
      7 C         -14.9948   -4.1001   19.9457 C.3     1  UNL1        0.0259
      8 C         -16.1037   -3.1047   20.1174 C.3     1  UNL1        0.0938
      9 C         -12.5993   -4.6805   19.1242 C.ar    1  UNL1       -0.0223
     10 C         -12.9082   -6.1477   19.0848 C.ar    1  UNL1       -0.0034
     11 C         -11.7994   -7.1433   18.9131 C.ar    1  UNL1        0.0111
     12 C         -10.3817   -6.6715   18.7807 C.ar    1  UNL1        0.0577
     13 CL         -9.2728   -7.6669   18.6090 Cl      1  UNL1       -0.0822
     14 C         -10.0728   -5.2041   18.8201 C.ar    1  UNL1        0.0111
     15 C         -11.1816   -4.2086   18.9918 C.ar    1  UNL1       -0.0034
     16 C         -16.8569    0.7120   19.3329 C.3     1  UNL1        0.1489
     17 N         -16.2175    1.7322   20.2277 N.am    1  UNL1       -0.2948
     18 C         -17.0362    2.4332   21.2709 C.2     1  UNL1        0.2461
     19 O         -18.4943    2.1141   21.4194 O.2     1  UNL1       -0.2701
     20 H         -15.2605    1.9417   20.1302 H       1  UNL1        0.1501
     21 C         -16.3968    3.4533   22.1656 C.ar    1  UNL1        0.0534
     22 C         -15.3273    4.3573   21.6281 C.ar    1  UNL1        0.0045
     23 C         -14.6880    5.3774   22.5228 C.ar    1  UNL1        0.0001
     24 C         -15.1181    5.4935   23.9551 C.ar    1  UNL1        0.0000
     25 C         -16.1875    4.5896   24.4927 C.ar    1  UNL1        0.0001
     26 C         -16.8269    3.5695   23.5980 C.ar    1  UNL1        0.0045
     27 C         -17.8317    0.0563   17.0157 C.3     1  UNL1        0.0022
     28 C         -17.3185    1.1025   17.9602 C.3     1  UNL1        0.0269
     29 C         -17.2669    2.5392   17.5320 C.3     1  UNL1        0.0022
@<TRIPOS>BOND
     1    27    28    1
     2    28    29    1
     3    28    16    1
     4    16    17    1
     5    17    18   am
     6    18    19    2
     7    18    21    1
     8    21    22   ar
     9    22    23   ar
    10    23    24   ar
    11    24    25   ar
    12    25    26   ar
    13    16     1    1
    14     1     2    2
    15     1     3   am
    16     3     4    1
    17     4     5    1
    18     5     6    1
    19     6     9    1
    20     9    10   ar
    21    10    11   ar
    22    11    12   ar
    23    12    13    1
    24    12    14   ar
    25    14    15   ar
    26     6     7    1
    27     7     8    1
    28    26    21   ar
    29     8     3    1
    30    15     9   ar
    31    17    20    1
@<TRIPOS>MOLECULE
*****
 29 31 0 0 0
SMALL
GASTEIGER

@<TRIPOS>ATOM
      1 C           5.8645   -3.5332   20.7423 C.2     1  UNL1        0.2435
      2 O           5.7163   -4.6485   19.7503 O.2     1  UNL1       -0.2731
      3 N           4.7844   -2.5011   20.8774 N.am    1  UNL1       -0.2782
      4 C           4.9327   -1.3859   21.8695 C.3     1  UNL1        0.0938
      5 C           3.8526   -0.3537   22.0046 C.3     1  UNL1        0.0259
      6 C           2.6243   -0.4369   21.1477 C.3     1  UNL1        0.0257
      7 C           2.4761   -1.5523   20.1556 C.3     1  UNL1        0.0259
      8 C           3.5561   -2.5843   20.0205 C.3     1  UNL1        0.0938
      9 C           1.5442    0.5951   21.2827 C.ar    1  UNL1       -0.0223
     10 C           1.2845    1.2392   22.6122 C.ar    1  UNL1       -0.0034
     11 C           0.2044    2.2713   22.7474 C.ar    1  UNL1        0.0111
     12 C          -0.6159    2.6593   21.5530 C.ar    1  UNL1        0.0577
     13 CL         -1.6960    3.6914   21.6881 Cl      1  UNL1       -0.0822
     14 C          -0.3561    2.0151   20.2234 C.ar    1  UNL1        0.0111
     15 C           0.7239    0.9831   20.0883 C.ar    1  UNL1       -0.0034
     16 C           7.0928   -3.4500   21.5993 C.3     1  UNL1        0.1489
     17 N           7.1150   -4.1131   22.9447 N.am    1  UNL1       -0.2948
     18 C           7.8049   -5.4335   23.1187 C.2     1  UNL1        0.2461
     19 O           8.4727   -6.0910   21.9474 O.2     1  UNL1       -0.2701
     20 H           6.6767   -3.6816   23.7134 H       1  UNL1        0.1501
     21 C           7.8271   -6.0966   24.4641 C.ar    1  UNL1        0.0534
     22 C           8.4803   -7.4368   24.6290 C.ar    1  UNL1        0.0045
     23 C           8.5025   -8.0998   25.9743 C.ar    1  UNL1        0.0001
     24 C           7.8715   -7.4226   27.1547 C.ar    1  UNL1        0.0000
     25 C           7.2183   -6.0825   26.9897 C.ar    1  UNL1        0.0001
     26 C           7.1961   -5.4195   25.6444 C.ar    1  UNL1        0.0045
     27 C           8.4641   -2.4213   19.6471 C.3     1  UNL1        0.0022
     28 C           8.2988   -2.7038   21.1109 C.3     1  UNL1        0.0269
     29 C           9.3397   -2.2400   22.0864 C.3     1  UNL1        0.0022
@<TRIPOS>BOND
     1    27    28    1
     2    28    29    1
     3    28    16    1
     4    16    17    1
     5    17    18   am
     6    18    19    2
     7    18    21    1
     8    21    22   ar
     9    22    23   ar
    10    23    24   ar
    11    24    25   ar
    12    25    26   ar
    13    16     1    1
    14     1     2    2
    15     1     3   am
    16     3     4    1
    17     4     5    1
    18     5     6    1
    19     6     9    1
    20     9    10   ar
    21    10    11   ar
    22    11    12   ar
    23    12    13    1
    24    12    14   ar
    25    14    15   ar
    26     6     7    1
    27     7     8    1
    28    26    21   ar
    29     8     3    1
    30    15     9   ar
    31    17    20    1
@<TRIPOS>MOLECULE
*****
 29 31 0 0 0
SMALL
GASTEIGER

@<TRIPOS>ATOM
      1 C           4.7732   -2.1382   19.7106 C.2     1  UNL1        0.2435
      2 O           6.0701   -1.9225   18.9885 O.2     1  UNL1       -0.2731
      3 N           3.6784   -1.1181   19.6070 N.am    1  UNL1       -0.2782
      4 C           2.3815   -1.3338   20.3291 C.3     1  UNL1        0.0938
      5 C           1.2866   -0.3137   20.2255 C.3     1  UNL1        0.0259
      6 C           1.4887    0.9222   19.3998 C.3     1  UNL1        0.0257
      7 C           2.7857    1.1379   18.6776 C.3     1  UNL1        0.0259
      8 C           3.8805    0.1178   18.7813 C.3     1  UNL1        0.0938
      9 C           0.3940    1.9423   19.2962 C.ar    1  UNL1       -0.0223
     10 C           0.2229    2.7332   18.0331 C.ar    1  UNL1       -0.0034
     11 C          -0.8719    3.7533   17.9295 C.ar    1  UNL1        0.0111
     12 C          -1.7956    3.9826   19.0889 C.ar    1  UNL1        0.0577
     13 CL         -2.8904    5.0027   18.9852 Cl      1  UNL1       -0.0822
     14 C          -1.6245    3.1917   20.3519 C.ar    1  UNL1        0.0111
     15 C          -0.5298    2.1716   20.4555 C.ar    1  UNL1       -0.0034
     16 C           4.5711   -3.3740   20.5363 C.3     1  UNL1        0.1489
     17 N           4.7977   -3.3310   22.0186 N.am    1  UNL1       -0.2948
     18 C           6.0765   -3.8596   22.5974 C.2     1  UNL1        0.2461
     19 O           7.1288   -4.4312   21.6941 O.2     1  UNL1       -0.2701
     20 H           4.1070   -2.9559   22.6114 H       1  UNL1        0.1501
     21 C           6.3031   -3.8167   24.0796 C.ar    1  UNL1        0.0534
     22 C           6.9612   -4.9734   24.7716 C.ar    1  UNL1        0.0045
     23 C           7.1877   -4.9304   26.2537 C.ar    1  UNL1        0.0001
     24 C           6.7562   -3.7306   27.0439 C.ar    1  UNL1        0.0000
     25 C           6.0982   -2.5739   26.3519 C.ar    1  UNL1        0.0001
     26 C           5.8716   -2.6169   24.8698 C.ar    1  UNL1        0.0045
     27 C           3.1893   -5.5736   20.5825 C.3     1  UNL1        0.0022
     28 C           4.1424   -4.6528   19.8799 C.3     1  UNL1        0.0269
     29 C           4.6668   -5.0107   18.5209 C.3     1  UNL1        0.0022
@<TRIPOS>BOND
     1    27    28    1
     2    28    29    1
     3    28    16    1
     4    16    17    1
     5    17    18   am
     6    18    19    2
     7    18    21    1
     8    21    22   ar
     9    22    23   ar
    10    23    24   ar
    11    24    25   ar
    12    25    26   ar
    13    16     1    1
    14     1     2    2
    15     1     3   am
    16     3     4    1
    17     4     5    1
    18     5     6    1
    19     6     9    1
    20     9    10   ar
    21    10    11   ar
    22    11    12   ar
    23    12    13    1
    24    12    14   ar
    25    14    15   ar
    26     6     7    1
    27     7     8    1
    28    26    21   ar
    29     8     3    1
    30    15     9   ar
    31    17    20    1
@<TRIPOS>MOLECULE
*****
 29 31 0 0 0
SMALL
GASTEIGER

@<TRIPOS>ATOM
      1 C           5.6586   -2.8549   19.4799 C.2     1  UNL1        0.2435
      2 O           5.2033   -3.4081   18.1620 O.2     1  UNL1       -0.2731
      3 N           4.7264   -2.0173   20.3040 N.am    1  UNL1       -0.2782
      4 C           5.1817   -1.4642   21.6218 C.3     1  UNL1        0.0938
      5 C           4.2494   -0.6265   22.4461 C.3     1  UNL1        0.0259
      6 C           2.8618   -0.3420   21.9524 C.3     1  UNL1        0.0257
      7 C           2.4065   -0.8952   20.6345 C.3     1  UNL1        0.0259
      8 C           3.3388   -1.7328   19.8104 C.3     1  UNL1        0.0938
      9 C           1.9296    0.4956   22.7765 C.ar    1  UNL1       -0.0223
     10 C           0.9847    1.4476   22.1050 C.ar    1  UNL1       -0.0034
     11 C           0.0524    2.2853   22.9292 C.ar    1  UNL1        0.0111
     12 C           0.0650    2.1710   24.4248 C.ar    1  UNL1        0.0577
     13 CL         -0.8672    3.0086   25.2489 Cl      1  UNL1       -0.0822
     14 C           1.0100    1.2189   25.0962 C.ar    1  UNL1        0.0111
     15 C           1.9422    0.3813   24.2721 C.ar    1  UNL1       -0.0034
     16 C           7.0462   -3.1394   19.9736 C.3     1  UNL1        0.1489
     17 N           7.2937   -4.3047   20.8851 N.am    1  UNL1       -0.2948
     18 C           7.7994   -4.0731   22.2782 C.2     1  UNL1        0.2461
     19 O           8.0576   -2.6761   22.7597 O.2     1  UNL1       -0.2701
     20 H           7.1243   -5.2216   20.5691 H       1  UNL1        0.1501
     21 C           8.0470   -5.2384   23.1897 C.ar    1  UNL1        0.0534
     22 C           7.4282   -5.2667   24.5558 C.ar    1  UNL1        0.0045
     23 C           7.6757   -6.4320   25.4673 C.ar    1  UNL1        0.0001
     24 C           8.5421   -7.5690   25.0126 C.ar    1  UNL1        0.0000
     25 C           9.1609   -7.5407   23.6465 C.ar    1  UNL1        0.0001
     26 C           8.9133   -6.3754   22.7351 C.ar    1  UNL1        0.0045
     27 C           7.9773   -0.7805   19.4095 C.3     1  UNL1        0.0022
     28 C           8.1862   -2.2586   19.5558 C.3     1  UNL1        0.0269
     29 C           9.5351   -2.8560   19.2843 C.3     1  UNL1        0.0022
@<TRIPOS>BOND
     1    27    28    1
     2    28    29    1
     3    28    16    1
     4    16    17    1
     5    17    18   am
     6    18    19    2
     7    18    21    1
     8    21    22   ar
     9    22    23   ar
    10    23    24   ar
    11    24    25   ar
    12    25    26   ar
    13    16     1    1
    14     1     2    2
    15     1     3   am
    16     3     4    1
    17     4     5    1
    18     5     6    1
    19     6     9    1
    20     9    10   ar
    21    10    11   ar
    22    11    12   ar
    23    12    13    1
    24    12    14   ar
    25    14    15   ar
    26     6     7    1
    27     7     8    1
    28    26    21   ar
    29     8     3    1
    30    15     9   ar
    31    17    20    1
@<TRIPOS>MOLECULE
*****
 29 31 0 0 0
SMALL
GASTEIGER

@<TRIPOS>ATOM
      1 C           2.4164    0.8757   26.2284 C.2     1  UNL1        0.2435
      2 O           2.6846   -0.0083   27.4102 O.2     1  UNL1       -0.2731
      3 N           1.0803    1.5403   26.0768 N.am    1  UNL1       -0.2782
      4 C           0.8122    2.4242   24.8950 C.3     1  UNL1        0.0938
      5 C          -0.5240    3.0889   24.7433 C.3     1  UNL1        0.0259
      6 C          -1.5920    2.8695   25.7734 C.3     1  UNL1        0.0257
      7 C          -1.3239    1.9854   26.9553 C.3     1  UNL1        0.0259
      8 C           0.0123    1.3209   27.1069 C.3     1  UNL1        0.0938
      9 C          -2.9282    3.5340   25.6218 C.ar    1  UNL1       -0.0223
     10 C          -3.5832    3.6022   24.2741 C.ar    1  UNL1       -0.0034
     11 C          -4.9194    4.2668   24.1224 C.ar    1  UNL1        0.0111
     12 C          -5.6005    4.8632   25.3185 C.ar    1  UNL1        0.0577
     13 CL         -6.9367    5.5278   25.1668 Cl      1  UNL1       -0.0822
     14 C          -4.9454    4.7950   26.6662 C.ar    1  UNL1        0.0111
     15 C          -3.6093    4.1304   26.8178 C.ar    1  UNL1       -0.0034
     16 C           3.4845    1.0951   25.1983 C.3     1  UNL1        0.1489
     17 N           3.4310    0.3569   23.8935 N.am    1  UNL1       -0.2948
     18 C           3.8911   -1.0688   23.8191 C.2     1  UNL1        0.2461
     19 O           4.4046   -1.7564   25.0494 O.2     1  UNL1       -0.2701
     20 H           3.0940    0.8081   23.0861 H       1  UNL1        0.1501
     21 C           3.8376   -1.8071   22.5144 C.ar    1  UNL1        0.0534
     22 C           4.4767   -3.1584   22.3906 C.ar    1  UNL1        0.0045
     23 C           4.4233   -3.8966   21.0859 C.ar    1  UNL1        0.0001
     24 C           3.7307   -3.2834   19.9050 C.ar    1  UNL1        0.0000
     25 C           3.0917   -1.9320   20.0289 C.ar    1  UNL1        0.0001
     26 C           3.1451   -1.1939   21.3335 C.ar    1  UNL1        0.0045
     27 C           5.8330    2.0375   24.6104 C.3     1  UNL1        0.0022
     28 C           4.6059    2.0527   25.4728 C.3     1  UNL1        0.0269
     29 C           4.5001    3.0254   26.6097 C.3     1  UNL1        0.0022
@<TRIPOS>BOND
     1    27    28    1
     2    28    29    1
     3    28    16    1
     4    16    17    1
     5    17    18   am
     6    18    19    2
     7    18    21    1
     8    21    22   ar
     9    22    23   ar
    10    23    24   ar
    11    24    25   ar
    12    25    26   ar
    13    16     1    1
    14     1     2    2
    15     1     3   am
    16     3     4    1
    17     4     5    1
    18     5     6    1
    19     6     9    1
    20     9    10   ar
    21    10    11   ar
    22    11    12   ar
    23    12    13    1
    24    12    14   ar
    25    14    15   ar
    26     6     7    1
    27     7     8    1
    28    26    21   ar
    29     8     3    1
    30    15     9   ar
    31    17    20    1
@<TRIPOS>MOLECULE
*****
 29 31 0 0 0
SMALL
GASTEIGER

@<TRIPOS>ATOM
      1 C          -0.0125    4.7537   19.5355 C.2     1  UNL1        0.2435
      2 O           0.5599    5.8891   20.3314 O.2     1  UNL1       -0.2731
      3 N           0.7509    3.4691   19.4057 N.am    1  UNL1       -0.2782
      4 C           0.1786    2.3337   18.6099 C.3     1  UNL1        0.0938
      5 C           0.9420    1.0490   18.4800 C.3     1  UNL1        0.0259
      6 C           2.2777    0.8997   19.1460 C.3     1  UNL1        0.0257
      7 C           2.8500    2.0351   19.9418 C.3     1  UNL1        0.0259
      8 C           2.0867    3.3198   20.0717 C.3     1  UNL1        0.0938
      9 C           3.0411   -0.3850   19.0161 C.ar    1  UNL1       -0.0223
     10 C           4.1205   -0.5147   17.9828 C.ar    1  UNL1       -0.0034
     11 C           4.8839   -1.7994   17.8529 C.ar    1  UNL1        0.0111
     12 C           4.5679   -2.9543   18.7564 C.ar    1  UNL1        0.0577
     13 CL          5.3313   -4.2389   18.6266 Cl      1  UNL1       -0.0822
     14 C           3.4884   -2.8245   19.7899 C.ar    1  UNL1        0.0111
     15 C           2.7250   -1.5398   19.9197 C.ar    1  UNL1       -0.0034
     16 C          -1.3482    4.9030   18.8695 C.3     1  UNL1        0.1489
     17 N          -2.5861    5.0690   19.7003 N.am    1  UNL1       -0.2948
     18 C          -3.1132    3.9144   20.4997 C.2     1  UNL1        0.2461
     19 O          -2.4025    2.5939   20.4684 O.2     1  UNL1       -0.2701
     20 H          -3.0526    5.9357   19.7209 H       1  UNL1        0.1501
     21 C          -4.3511    4.0804   21.3305 C.ar    1  UNL1        0.0534
     22 C          -5.6156    4.5839   20.7000 C.ar    1  UNL1        0.0045
     23 C          -6.8534    4.7499   21.5308 C.ar    1  UNL1        0.0001
     24 C          -6.8267    4.4124   22.9921 C.ar    1  UNL1        0.0000
     25 C          -5.5623    3.9089   23.6226 C.ar    1  UNL1        0.0001
     26 C          -4.3245    3.7429   22.7918 C.ar    1  UNL1        0.0045
     27 C          -0.3869    5.5512   16.5446 C.3     1  UNL1        0.0022
     28 C          -1.4461    4.8863   17.3729 C.3     1  UNL1        0.0269
     29 C          -2.6031    4.2048   16.7044 C.3     1  UNL1        0.0022
@<TRIPOS>BOND
     1    27    28    1
     2    28    29    1
     3    28    16    1
     4    16    17    1
     5    17    18   am
     6    18    19    2
     7    18    21    1
     8    21    22   ar
     9    22    23   ar
    10    23    24   ar
    11    24    25   ar
    12    25    26   ar
    13    16     1    1
    14     1     2    2
    15     1     3   am
    16     3     4    1
    17     4     5    1
    18     5     6    1
    19     6     9    1
    20     9    10   ar
    21    10    11   ar
    22    11    12   ar
    23    12    13    1
    24    12    14   ar
    25    14    15   ar
    26     6     7    1
    27     7     8    1
    28    26    21   ar
    29     8     3    1
    30    15     9   ar
    31    17    20    1
