@<TRIPOS>MOLECULE
*****
 27 30 0 0 0
SMALL
GASTEIGER

@<TRIPOS>ATOM
      1 C         -10.2361  -19.7530   19.3761 C.3     1  UNL1        0.0559
      2 C          -9.4207  -18.8489   20.2523 C.3     1  UNL1        0.2300
      3 C          -8.0432  -19.2611   20.6797 C.ar    1  UNL1        0.2207
      4 N          -7.7120  -20.3514   21.6552 N.ar    1  UNL1       -0.0565
      5 O          -6.2193  -20.4195   21.7850 O.2     1  UNL1       -0.3326
      6 C          -5.6278  -19.3713   20.8898 C.ar    1  UNL1        0.2598
      7 N          -6.7551  -18.6553   20.2066 N.ar    1  UNL1       -0.1876
      8 C          -4.1658  -19.0886   20.7094 C.ar    1  UNL1        0.0569
      9 C          -3.2079  -19.3443   21.8352 C.ar    1  UNL1        0.0048
     10 C          -1.7459  -19.0616   21.6548 C.ar    1  UNL1        0.0010
     11 C          -1.2417  -18.5233   20.3486 C.ar    1  UNL1        0.0114
     12 C          -2.1995  -18.2677   19.2229 C.ar    1  UNL1        0.0578
     13 CL         -1.6953  -17.7294   17.9168 Cl      1  UNL1       -0.0822
     14 C          -3.6615  -18.5504   19.4033 C.ar    1  UNL1        0.0161
     15 O          -9.9828  -17.5327   20.7011 O.3     1  UNL1       -0.4426
     16 C          -9.1772  -16.6396   21.5974 C.ar    1  UNL1        0.3204
     17 N          -8.4482  -15.3969   21.1796 N.ar    1  UNL1       -0.0916
     18 N          -7.7796  -14.8217   22.3928 N.ar    1  UNL1       -0.1259
     19 C          -8.0952  -15.7087   23.5605 C.ar    1  UNL1        0.1689
     20 N          -8.9590  -16.8323   23.0689 N.ar    1  UNL1       -0.2635
     21 C          -9.5082  -17.9519   23.9024 C.3     1  UNL1        0.1366
     22 C          -7.6290  -15.5076   24.9720 C.ar    1  UNL1        0.0391
     23 C          -6.1648  -15.3668   25.2653 C.ar    1  UNL1        0.0237
     24 C          -5.6986  -15.1657   26.6768 C.ar    1  UNL1        0.0990
     25 N          -6.6967  -15.1055   27.7949 N.ar    1  UNL1       -0.2423
     26 C          -8.1610  -15.2463   27.5015 C.ar    1  UNL1        0.0990
     27 C          -8.6271  -15.4474   26.0901 C.ar    1  UNL1        0.0237
@<TRIPOS>BOND
     1     2     1    1
     2     2    15    1
     3    15    16    1
     4    16    17   ar
     5    17    18   ar
     6    18    19   ar
     7    19    22    1
     8    22    23   ar
     9    23    24   ar
    10    24    25   ar
    11    25    26   ar
    12    26    27   ar
    13    19    20   ar
    14    20    21    1
    15     2     3    1
    16     3     4   ar
    17     4     5   ar
    18     5     6   ar
    19     6     8    1
    20     8     9   ar
    21     9    10   ar
    22    10    11   ar
    23    11    12   ar
    24    12    13    1
    25    12    14   ar
    26     6     7   ar
    27    20    16   ar
    28     7     3   ar
    29    27    22   ar
    30    14     8   ar
@<TRIPOS>MOLECULE
*****
 27 30 0 0 0
SMALL
GASTEIGER

@<TRIPOS>ATOM
      1 C          -8.4704  -14.7364   27.9645 C.3     1  UNL1        0.0559
      2 C          -7.7647  -15.5975   26.9593 C.3     1  UNL1        0.2300
      3 C          -8.5438  -16.5767   26.1320 C.ar    1  UNL1        0.2207
      4 N          -9.1357  -17.8667   26.6175 N.ar    1  UNL1       -0.0565
      5 O          -9.8254  -18.5250   25.4597 O.2     1  UNL1       -0.3326
      6 C          -9.6599  -17.6420   24.2585 C.ar    1  UNL1        0.2598
      7 N          -8.8677  -16.4378   24.6740 N.ar    1  UNL1       -0.1876
      8 C         -10.1928  -17.9151   22.8832 C.ar    1  UNL1        0.0569
      9 C         -10.2989  -19.3266   22.3867 C.ar    1  UNL1        0.0048
     10 C         -10.8319  -19.5998   21.0114 C.ar    1  UNL1        0.0010
     11 C         -11.2586  -18.4614   20.1327 C.ar    1  UNL1        0.0114
     12 C         -11.1525  -17.0500   20.6292 C.ar    1  UNL1        0.0578
     13 CL        -11.5792  -15.9118   19.7505 Cl      1  UNL1       -0.0822
     14 C         -10.6195  -16.7769   22.0045 C.ar    1  UNL1        0.0161
     15 O          -6.2800  -15.4795   26.7813 O.3     1  UNL1       -0.4426
     16 C          -5.6794  -15.5721   25.4099 C.ar    1  UNL1        0.3204
     17 N          -6.0352  -14.7147   24.2317 N.ar    1  UNL1       -0.0916
     18 N          -5.1932  -15.1511   23.0696 N.ar    1  UNL1       -0.1259
     19 C          -4.3169  -16.2782   23.5295 C.ar    1  UNL1        0.1689
     20 N          -4.6174  -16.5385   24.9759 N.ar    1  UNL1       -0.2635
     21 C          -3.9696  -17.5818   25.8372 C.3     1  UNL1        0.1366
     22 C          -3.3158  -17.0157   22.6904 C.ar    1  UNL1        0.0391
     23 C          -2.2660  -16.2564   21.9347 C.ar    1  UNL1        0.0237
     24 C          -1.2650  -16.9939   21.0957 C.ar    1  UNL1        0.0990
     25 N          -1.3138  -18.4908   21.0124 N.ar    1  UNL1       -0.2423
     26 C          -2.3636  -19.2501   21.7681 C.ar    1  UNL1        0.0990
     27 C          -3.3646  -18.5126   22.6071 C.ar    1  UNL1        0.0237
@<TRIPOS>BOND
     1     2     1    1
     2     2    15    1
     3    15    16    1
     4    16    17   ar
     5    17    18   ar
     6    18    19   ar
     7    19    22    1
     8    22    23   ar
     9    23    24   ar
    10    24    25   ar
    11    25    26   ar
    12    26    27   ar
    13    19    20   ar
    14    20    21    1
    15     2     3    1
    16     3     4   ar
    17     4     5   ar
    18     5     6   ar
    19     6     8    1
    20     8     9   ar
    21     9    10   ar
    22    10    11   ar
    23    11    12   ar
    24    12    13    1
    25    12    14   ar
    26     6     7   ar
    27    20    16   ar
    28     7     3   ar
    29    27    22   ar
    30    14     8   ar
@<TRIPOS>MOLECULE
*****
 27 30 0 0 0
SMALL
GASTEIGER

@<TRIPOS>ATOM
      1 C         -13.0111  -17.8624   21.6274 C.3     1  UNL1        0.0559
      2 C         -11.7187  -18.5458   21.9629 C.3     1  UNL1        0.2300
      3 C         -10.9842  -18.1857   23.2203 C.ar    1  UNL1        0.2207
      4 N         -11.3499  -18.6177   24.6095 N.ar    1  UNL1       -0.0565
      5 O         -10.3469  -18.0294   25.5569 O.2     1  UNL1       -0.3326
      6 C          -9.3612  -17.2339   24.7534 C.ar    1  UNL1        0.2598
      7 N          -9.7552  -17.3305   23.3092 N.ar    1  UNL1       -0.1876
      8 C          -8.1877  -16.4750   25.2983 C.ar    1  UNL1        0.0569
      9 C          -8.1576  -16.0776   26.7445 C.ar    1  UNL1        0.0048
     10 C          -6.9841  -15.3187   27.2894 C.ar    1  UNL1        0.0010
     11 C          -5.8407  -14.9572   26.3882 C.ar    1  UNL1        0.0114
     12 C          -5.8709  -15.3546   24.9421 C.ar    1  UNL1        0.0578
     13 CL         -4.7275  -14.9932   24.0410 Cl      1  UNL1       -0.0822
     14 C          -7.0444  -16.1135   24.3972 C.ar    1  UNL1        0.0161
     15 O         -11.1607  -19.5894   21.0411 O.3     1  UNL1       -0.4426
     16 C          -9.7517  -19.4717   20.5403 C.ar    1  UNL1        0.3204
     17 N          -9.3387  -19.0624   19.1575 N.ar    1  UNL1       -0.0916
     18 N          -7.8401  -19.0804   19.0970 N.ar    1  UNL1       -0.1259
     19 C          -7.3268  -19.5007   20.4423 C.ar    1  UNL1        0.1689
     20 N          -8.5083  -19.7426   21.3343 N.ar    1  UNL1       -0.2635
     21 C          -8.4555  -20.1787   22.7685 C.3     1  UNL1        0.1366
     22 C          -5.8851  -19.6526   20.8279 C.ar    1  UNL1        0.0391
     23 C          -5.3729  -19.0107   22.0831 C.ar    1  UNL1        0.0237
     24 C          -3.9313  -19.1626   22.4686 C.ar    1  UNL1        0.0990
     25 N          -3.0020  -19.9564   21.5990 N.ar    1  UNL1       -0.2423
     26 C          -3.5142  -20.5983   20.3438 C.ar    1  UNL1        0.0990
     27 C          -4.9558  -20.4464   19.9583 C.ar    1  UNL1        0.0237
@<TRIPOS>BOND
     1     2     1    1
     2     2    15    1
     3    15    16    1
     4    16    17   ar
     5    17    18   ar
     6    18    19   ar
     7    19    22    1
     8    22    23   ar
     9    23    24   ar
    10    24    25   ar
    11    25    26   ar
    12    26    27   ar
    13    19    20   ar
    14    20    21    1
    15     2     3    1
    16     3     4   ar
    17     4     5   ar
    18     5     6   ar
    19     6     8    1
    20     8     9   ar
    21     9    10   ar
    22    10    11   ar
    23    11    12   ar
    24    12    13    1
    25    12    14   ar
    26     6     7   ar
    27    20    16   ar
    28     7     3   ar
    29    27    22   ar
    30    14     8   ar
@<TRIPOS>MOLECULE
*****
 27 30 0 0 0
SMALL
GASTEIGER

@<TRIPOS>ATOM
      1 C          -6.9777  -15.2715   27.5964 C.3     1  UNL1        0.0559
      2 C          -7.3313  -15.6574   26.1907 C.3     1  UNL1        0.2300
      3 C          -6.2735  -15.6679   25.1272 C.ar    1  UNL1        0.2207
      4 N          -5.7145  -14.4644   24.4278 N.ar    1  UNL1       -0.0565
      5 O          -4.6846  -14.9364   23.4448 O.2     1  UNL1       -0.3326
      6 C          -4.6070  -16.4315   23.5366 C.ar    1  UNL1        0.2598
      7 N          -5.5890  -16.8837   24.5765 N.ar    1  UNL1       -0.1876
      8 C          -3.7056  -17.3189   22.7302 C.ar    1  UNL1        0.0569
      9 C          -3.9329  -18.8015   22.7124 C.ar    1  UNL1        0.0048
     10 C          -3.0316  -19.6888   21.9060 C.ar    1  UNL1        0.0010
     11 C          -1.9030  -19.0935   21.1174 C.ar    1  UNL1        0.0114
     12 C          -1.6757  -17.6109   21.1352 C.ar    1  UNL1        0.0578
     13 CL         -0.5471  -17.0157   20.3466 Cl      1  UNL1       -0.0822
     14 C          -2.5771  -16.7236   21.9416 C.ar    1  UNL1        0.0161
     15 O          -8.7426  -16.0329   25.8485 O.3     1  UNL1       -0.4426
     16 C          -9.0107  -17.2100   24.9583 C.ar    1  UNL1        0.3204
     17 N          -9.4761  -18.5646   25.4040 N.ar    1  UNL1       -0.0916
     18 N          -9.6135  -19.4310   24.1873 N.ar    1  UNL1       -0.1259
     19 C          -9.2331  -18.6120   22.9896 C.ar    1  UNL1        0.1689
     20 N          -8.8605  -17.2393   23.4662 N.ar    1  UNL1       -0.2635
     21 C          -8.4158  -16.0966   22.6022 C.3     1  UNL1        0.1366
     22 C          -9.2263  -19.0829   21.5654 C.ar    1  UNL1        0.0391
     23 C          -7.9247  -19.3583   20.8727 C.ar    1  UNL1        0.0237
     24 C          -7.9180  -19.8292   19.4486 C.ar    1  UNL1        0.0990
     25 N          -9.2129  -20.0246   18.7172 N.ar    1  UNL1       -0.2423
     26 C         -10.5145  -19.7492   19.4098 C.ar    1  UNL1        0.0990
     27 C         -10.5212  -19.2783   20.8340 C.ar    1  UNL1        0.0237
@<TRIPOS>BOND
     1     2     1    1
     2     2    15    1
     3    15    16    1
     4    16    17   ar
     5    17    18   ar
     6    18    19   ar
     7    19    22    1
     8    22    23   ar
     9    23    24   ar
    10    24    25   ar
    11    25    26   ar
    12    26    27   ar
    13    19    20   ar
    14    20    21    1
    15     2     3    1
    16     3     4   ar
    17     4     5   ar
    18     5     6   ar
    19     6     8    1
    20     8     9   ar
    21     9    10   ar
    22    10    11   ar
    23    11    12   ar
    24    12    13    1
    25    12    14   ar
    26     6     7   ar
    27    20    16   ar
    28     7     3   ar
    29    27    22   ar
    30    14     8   ar
@<TRIPOS>MOLECULE
*****
 27 30 0 0 0
SMALL
GASTEIGER

@<TRIPOS>ATOM
      1 C          -7.0207  -15.1558   27.5447 C.3     1  UNL1        0.0559
      2 C          -7.3609  -15.6016   26.1535 C.3     1  UNL1        0.2300
      3 C          -6.2755  -15.7610   25.1304 C.ar    1  UNL1        0.2207
      4 N          -5.4620  -14.6540   24.5283 N.ar    1  UNL1       -0.0565
      5 O          -4.4968  -15.2642   23.5558 O.2     1  UNL1       -0.3326
      6 C          -4.7138  -16.7484   23.5568 C.ar    1  UNL1        0.2598
      7 N          -5.8131  -17.0555   24.5301 N.ar    1  UNL1       -0.1876
      8 C          -3.9632  -17.7498   22.7298 C.ar    1  UNL1        0.0569
      9 C          -2.4634  -17.7328   22.7101 C.ar    1  UNL1        0.0048
     10 C          -1.7128  -18.7341   21.8831 C.ar    1  UNL1        0.0010
     11 C          -2.4620  -19.7525   21.0759 C.ar    1  UNL1        0.0114
     12 C          -3.9618  -19.7695   21.0957 C.ar    1  UNL1        0.0578
     13 CL         -4.7109  -20.7879   20.2884 Cl      1  UNL1       -0.0822
     14 C          -4.7123  -18.7682   21.9226 C.ar    1  UNL1        0.0161
     15 O          -8.7866  -15.8879   25.7852 O.3     1  UNL1       -0.4426
     16 C          -9.1135  -17.0583   24.9059 C.ar    1  UNL1        0.3204
     17 N          -9.6394  -18.3861   25.3648 N.ar    1  UNL1       -0.0916
     18 N          -9.8229  -19.2549   24.1558 N.ar    1  UNL1       -0.1259
     19 C          -9.4103  -18.4641   22.9498 C.ar    1  UNL1        0.1689
     20 N          -8.9719  -17.1066   23.4134 N.ar    1  UNL1       -0.2635
     21 C          -8.4786  -15.9928   22.5381 C.3     1  UNL1        0.1366
     22 C          -9.4323  -18.9463   21.5295 C.ar    1  UNL1        0.0391
     23 C         -10.7332  -19.0368   20.7883 C.ar    1  UNL1        0.0237
     24 C         -10.7552  -19.5189   19.3681 C.ar    1  UNL1        0.0990
     25 N          -9.4763  -19.9104   18.6891 N.ar    1  UNL1       -0.2423
     26 C          -8.1754  -19.8199   19.4303 C.ar    1  UNL1        0.0990
     27 C          -8.1534  -19.3378   20.8505 C.ar    1  UNL1        0.0237
@<TRIPOS>BOND
     1     2     1    1
     2     2    15    1
     3    15    16    1
     4    16    17   ar
     5    17    18   ar
     6    18    19   ar
     7    19    22    1
     8    22    23   ar
     9    23    24   ar
    10    24    25   ar
    11    25    26   ar
    12    26    27   ar
    13    19    20   ar
    14    20    21    1
    15     2     3    1
    16     3     4   ar
    17     4     5   ar
    18     5     6   ar
    19     6     8    1
    20     8     9   ar
    21     9    10   ar
    22    10    11   ar
    23    11    12   ar
    24    12    13    1
    25    12    14   ar
    26     6     7   ar
    27    20    16   ar
    28     7     3   ar
    29    27    22   ar
    30    14     8   ar
@<TRIPOS>MOLECULE
*****
 27 30 0 0 0
SMALL
GASTEIGER

@<TRIPOS>ATOM
      1 C          -3.5877  -20.1623   19.3575 C.3     1  UNL1        0.0559
      2 C          -4.6775  -19.8535   20.3408 C.3     1  UNL1        0.2300
      3 C          -4.5071  -18.7312   21.3214 C.ar    1  UNL1        0.2207
      4 N          -3.3034  -17.8450   21.4467 N.ar    1  UNL1       -0.0565
      5 O          -3.5628  -16.8642   22.5515 O.2     1  UNL1       -0.3326
      6 C          -4.9269  -17.1442   23.1090 C.ar    1  UNL1        0.2598
      7 N          -5.5106  -18.2981   22.3487 N.ar    1  UNL1       -0.1876
      8 C          -5.5908  -16.4008   24.2300 C.ar    1  UNL1        0.0569
      9 C          -4.7755  -15.9037   25.3869 C.ar    1  UNL1        0.0048
     10 C          -5.4394  -15.1604   26.5078 C.ar    1  UNL1        0.0010
     11 C          -6.9186  -14.9140   26.4719 C.ar    1  UNL1        0.0114
     12 C          -7.7339  -15.4110   25.3151 C.ar    1  UNL1        0.0578
     13 CL         -9.2130  -15.1647   25.2793 Cl      1  UNL1       -0.0822
     14 C          -7.0700  -16.1544   24.1941 C.ar    1  UNL1        0.0161
     15 O          -5.9378  -20.6670   20.3436 O.3     1  UNL1       -0.4426
     16 C          -7.2698  -19.9868   20.2292 C.ar    1  UNL1        0.3204
     17 N          -7.8628  -19.4144   18.9758 N.ar    1  UNL1       -0.0916
     18 N          -9.2021  -18.8334   19.3200 N.ar    1  UNL1       -0.1259
     19 C          -9.4370  -19.0466   20.7861 C.ar    1  UNL1        0.1689
     20 N          -8.2427  -19.7594   21.3480 N.ar    1  UNL1       -0.2635
     21 C          -8.0545  -20.1724   22.7776 C.3     1  UNL1        0.1366
     22 C         -10.6527  -18.6216   21.5553 C.ar    1  UNL1        0.0391
     23 C         -10.7771  -18.9639   23.0104 C.ar    1  UNL1        0.0237
     24 C         -11.9927  -18.5390   23.7795 C.ar    1  UNL1        0.0990
     25 N         -13.0839  -17.7717   23.0935 N.ar    1  UNL1       -0.2423
     26 C         -12.9595  -17.4294   21.6384 C.ar    1  UNL1        0.0990
     27 C         -11.7439  -17.8544   20.8693 C.ar    1  UNL1        0.0237
@<TRIPOS>BOND
     1     2     1    1
     2     2    15    1
     3    15    16    1
     4    16    17   ar
     5    17    18   ar
     6    18    19   ar
     7    19    22    1
     8    22    23   ar
     9    23    24   ar
    10    24    25   ar
    11    25    26   ar
    12    26    27   ar
    13    19    20   ar
    14    20    21    1
    15     2     3    1
    16     3     4   ar
    17     4     5   ar
    18     5     6   ar
    19     6     8    1
    20     8     9   ar
    21     9    10   ar
    22    10    11   ar
    23    11    12   ar
    24    12    13    1
    25    12    14   ar
    26     6     7   ar
    27    20    16   ar
    28     7     3   ar
    29    27    22   ar
    30    14     8   ar
@<TRIPOS>MOLECULE
*****
 27 30 0 0 0
SMALL
GASTEIGER

@<TRIPOS>ATOM
      1 C          -9.6300   -5.6642   19.0046 C.3     1  UNL1        0.0559
      2 C         -10.9602   -4.9910   18.8391 C.3     1  UNL1        0.2300
      3 C         -12.1459   -5.7788   18.3660 C.ar    1  UNL1        0.2207
      4 N         -12.4501   -6.1455   16.9437 N.ar    1  UNL1       -0.0565
      5 O         -13.7275   -6.9314   16.9307 O.2     1  UNL1       -0.3326
      6 C         -14.2129   -7.0505   18.3450 C.ar    1  UNL1        0.2598
      7 N         -13.2353   -6.3380   19.2321 N.ar    1  UNL1       -0.1876
      8 C         -15.4573   -7.7577   18.7936 C.ar    1  UNL1        0.0569
      9 C         -16.5513   -6.9909   19.4757 C.ar    1  UNL1        0.0048
     10 C         -17.7957   -7.6981   19.9242 C.ar    1  UNL1        0.0010
     11 C         -17.9461   -9.1723   19.6907 C.ar    1  UNL1        0.0114
     12 C         -16.8522   -9.9390   19.0086 C.ar    1  UNL1        0.0578
     13 CL        -17.0026  -11.4131   18.7752 Cl      1  UNL1       -0.0822
     14 C         -15.6077   -9.2318   18.5601 C.ar    1  UNL1        0.0161
     15 O         -11.1048   -3.5300   19.1467 O.3     1  UNL1       -0.4426
     16 C         -12.3842   -2.8179   18.8207 C.ar    1  UNL1        0.3204
     17 N         -12.7004   -2.1187   17.5318 N.ar    1  UNL1       -0.0916
     18 N         -14.0835   -1.5488   17.6408 N.ar    1  UNL1       -0.1259
     19 C         -14.6222   -1.8956   18.9971 C.ar    1  UNL1        0.1689
     20 N         -13.5719   -2.6800   19.7263 N.ar    1  UNL1       -0.2635
     21 C         -13.6889   -3.2300   21.1169 C.3     1  UNL1        0.1366
     22 C         -15.9739   -1.5235   19.5306 C.ar    1  UNL1        0.0391
     23 C         -16.2261   -0.1315   20.0294 C.ar    1  UNL1        0.0237
     24 C         -17.5777    0.2406   20.5628 C.ar    1  UNL1        0.0990
     25 N         -18.6771   -0.7793   20.5975 N.ar    1  UNL1       -0.2423
     26 C         -18.4249   -2.1712   20.0987 C.ar    1  UNL1        0.0990
     27 C         -17.0733   -2.5433   19.5652 C.ar    1  UNL1        0.0237
@<TRIPOS>BOND
     1     2     1    1
     2     2    15    1
     3    15    16    1
     4    16    17   ar
     5    17    18   ar
     6    18    19   ar
     7    19    22    1
     8    22    23   ar
     9    23    24   ar
    10    24    25   ar
    11    25    26   ar
    12    26    27   ar
    13    19    20   ar
    14    20    21    1
    15     2     3    1
    16     3     4   ar
    17     4     5   ar
    18     5     6   ar
    19     6     8    1
    20     8     9   ar
    21     9    10   ar
    22    10    11   ar
    23    11    12   ar
    24    12    13    1
    25    12    14   ar
    26     6     7   ar
    27    20    16   ar
    28     7     3   ar
    29    27    22   ar
    30    14     8   ar
@<TRIPOS>MOLECULE
*****
 27 30 0 0 0
SMALL
GASTEIGER

@<TRIPOS>ATOM
      1 C         -12.9246  -17.8375   21.6524 C.3     1  UNL1        0.0559
      2 C         -11.4595  -18.0692   21.4294 C.3     1  UNL1        0.2300
      3 C         -10.4601  -17.0508   21.8923 C.ar    1  UNL1        0.2207
      4 N         -10.1714  -15.7353   21.2319 N.ar    1  UNL1       -0.0565
      5 O          -9.1069  -15.0406   22.0282 O.2     1  UNL1       -0.3326
      6 C          -8.7376  -15.9268   23.1807 C.ar    1  UNL1        0.2598
      7 N          -9.5740  -17.1692   23.0967 N.ar    1  UNL1       -0.1876
      8 C          -7.7121  -15.6238   24.2326 C.ar    1  UNL1        0.0569
      9 C          -6.2587  -15.5601   23.8667 C.ar    1  UNL1        0.0048
     10 C          -5.2331  -15.2571   24.9186 C.ar    1  UNL1        0.0010
     11 C          -5.6609  -15.0178   26.3363 C.ar    1  UNL1        0.0114
     12 C          -7.1142  -15.0815   26.7021 C.ar    1  UNL1        0.0578
     13 CL         -7.5420  -14.8422   28.1197 Cl      1  UNL1       -0.0822
     14 C          -8.1398  -15.3845   25.6502 C.ar    1  UNL1        0.0161
     15 O         -10.9937  -19.3193   20.7436 O.3     1  UNL1       -0.4426
     16 C          -9.5850  -19.4167   20.2375 C.ar    1  UNL1        0.3204
     17 N          -9.1569  -19.3438   18.8017 N.ar    1  UNL1       -0.0916
     18 N          -7.6644  -19.4862   18.7552 N.ar    1  UNL1       -0.1259
     19 C          -7.1701  -19.6471   20.1623 C.ar    1  UNL1        0.1689
     20 N          -8.3571  -19.6041   21.0784 N.ar    1  UNL1       -0.2635
     21 C          -8.3223  -19.7270   22.5729 C.3     1  UNL1        0.1366
     22 C          -5.7398  -19.8204   20.5799 C.ar    1  UNL1        0.0391
     23 C          -4.8029  -20.6267   19.7303 C.ar    1  UNL1        0.0237
     24 C          -3.3727  -20.8001   20.1480 C.ar    1  UNL1        0.0990
     25 N          -2.8795  -20.1671   21.4153 N.ar    1  UNL1       -0.2423
     26 C          -3.8165  -19.3608   22.2650 C.ar    1  UNL1        0.0990
     27 C          -5.2466  -19.1875   21.8473 C.ar    1  UNL1        0.0237
@<TRIPOS>BOND
     1     2     1    1
     2     2    15    1
     3    15    16    1
     4    16    17   ar
     5    17    18   ar
     6    18    19   ar
     7    19    22    1
     8    22    23   ar
     9    23    24   ar
    10    24    25   ar
    11    25    26   ar
    12    26    27   ar
    13    19    20   ar
    14    20    21    1
    15     2     3    1
    16     3     4   ar
    17     4     5   ar
    18     5     6   ar
    19     6     8    1
    20     8     9   ar
    21     9    10   ar
    22    10    11   ar
    23    11    12   ar
    24    12    13    1
    25    12    14   ar
    26     6     7   ar
    27    20    16   ar
    28     7     3   ar
    29    27    22   ar
    30    14     8   ar
@<TRIPOS>MOLECULE
*****
 27 30 0 0 0
SMALL
GASTEIGER

@<TRIPOS>ATOM
      1 C          -0.7205  -17.7019   20.6423 C.3     1  UNL1        0.0559
      2 C          -2.0560  -18.0634   21.2218 C.3     1  UNL1        0.2300
      3 C          -2.8643  -17.0282   21.9464 C.ar    1  UNL1        0.2207
      4 N          -2.7373  -15.5418   21.7897 N.ar    1  UNL1       -0.0565
      5 O          -3.7360  -14.8926   22.7013 O.2     1  UNL1       -0.3326
      6 C          -4.4801  -15.9778   23.4215 C.ar    1  UNL1        0.2598
      7 N          -3.9414  -17.2977   22.9549 N.ar    1  UNL1       -0.1876
      8 C          -5.5715  -15.7781   24.4311 C.ar    1  UNL1        0.0569
      9 C          -5.2261  -15.4654   25.8569 C.ar    1  UNL1        0.0048
     10 C          -6.3174  -15.2657   26.8665 C.ar    1  UNL1        0.0010
     11 C          -7.7541  -15.3787   26.4501 C.ar    1  UNL1        0.0114
     12 C          -8.0994  -15.6914   25.0243 C.ar    1  UNL1        0.0578
     13 CL         -9.5360  -15.8044   24.6080 Cl      1  UNL1       -0.0822
     14 C          -7.0081  -15.8911   24.0148 C.ar    1  UNL1        0.0161
     15 O          -2.5832  -19.4602   21.0767 O.3     1  UNL1       -0.4426
     16 C          -4.0360  -19.7427   21.3208 C.ar    1  UNL1        0.3204
     17 N          -4.6013  -20.5251   22.4690 N.ar    1  UNL1       -0.0916
     18 N          -6.0932  -20.5583   22.3174 N.ar    1  UNL1       -0.1259
     19 C          -6.4500  -19.7964   21.0756 C.ar    1  UNL1        0.1689
     20 N          -5.1786  -19.2924   20.4597 N.ar    1  UNL1       -0.2635
     21 C          -5.0690  -18.4805   19.2031 C.3     1  UNL1        0.1366
     22 C          -7.8351  -19.5771   20.5431 C.ar    1  UNL1        0.0391
     23 C          -8.2464  -20.2016   19.2428 C.ar    1  UNL1        0.0237
     24 C          -9.6314  -19.9822   18.7104 C.ar    1  UNL1        0.0990
     25 N         -10.6052  -19.1384   19.4783 N.ar    1  UNL1       -0.2423
     26 C         -10.1940  -18.5139   20.7786 C.ar    1  UNL1        0.0990
     27 C          -8.8089  -18.7333   21.3110 C.ar    1  UNL1        0.0237
@<TRIPOS>BOND
     1     2     1    1
     2     2    15    1
     3    15    16    1
     4    16    17   ar
     5    17    18   ar
     6    18    19   ar
     7    19    22    1
     8    22    23   ar
     9    23    24   ar
    10    24    25   ar
    11    25    26   ar
    12    26    27   ar
    13    19    20   ar
    14    20    21    1
    15     2     3    1
    16     3     4   ar
    17     4     5   ar
    18     5     6   ar
    19     6     8    1
    20     8     9   ar
    21     9    10   ar
    22    10    11   ar
    23    11    12   ar
    24    12    13    1
    25    12    14   ar
    26     6     7   ar
    27    20    16   ar
    28     7     3   ar
    29    27    22   ar
    30    14     8   ar
