@<TRIPOS>MOLECULE
*****
 36 41 0 0 0
SMALL
GASTEIGER

@<TRIPOS>ATOM
      1 N          -7.5592  -19.5394   21.4679 N.3     1  UNL1       -0.2679
      2 C          -8.4237  -19.1571   22.6325 C.3     1  UNL1        0.0978
      3 C          -9.3980  -20.1464   23.2001 C.3     1  UNL1        0.0224
      4 C         -10.2625  -19.7640   24.3647 C.3     1  UNL1        0.0065
      5 C         -10.1528  -18.3923   24.9618 C.3     1  UNL1        0.0277
      6 C          -9.1785  -17.4030   24.3942 C.ar    1  UNL1       -0.0073
      7 C          -9.0688  -16.0314   24.9913 C.ar    1  UNL1       -0.0015
      8 C          -8.0946  -15.0421   24.4237 C.ar    1  UNL1        0.0203
      9 C          -7.2300  -15.4244   23.2591 C.ar    1  UNL1        0.0985
     10 N          -7.3398  -16.7961   22.6621 N.ar    1  UNL1       -0.2471
     11 C          -8.3140  -17.7854   23.2296 C.ar    1  UNL1        0.0695
     12 C          -6.2211  -20.1750   21.7039 C.3     1  UNL1        0.0886
     13 C          -0.3573  -16.9597   20.1139 C.ar    1  UNL1        0.0204
     14 C          -0.7387  -17.8717   18.9857 C.ar    1  UNL1        0.0984
     15 N          -1.9877  -18.6971   19.0781 N.ar    1  UNL1       -0.2484
     16 C          -2.8553  -18.6106   20.2986 C.ar    1  UNL1        0.0577
     17 C          -2.4739  -17.6987   21.4268 C.ar    1  UNL1        0.0073
     18 C          -1.2249  -16.8732   21.3344 C.ar    1  UNL1       -0.0002
     19 C          -3.3415  -17.6121   22.6474 C.3     1  UNL1        0.0968
     20 N          -4.5906  -18.4375   22.7398 N.3     1  UNL1       -0.2934
     21 C          -4.9720  -19.3495   21.6115 C.3     1  UNL1        0.0764
     22 C          -4.1044  -19.4361   20.3910 C.3     1  UNL1        0.0626
     23 H          -5.3652  -17.7862   22.8667 H       1  UNL1        0.1236
     24 C          -8.0327  -19.2863   20.0673 C.3     1  UNL1        0.0725
     25 C          -9.2539  -19.9872   19.5503 C.3     1  UNL1        0.0188
     26 C         -10.5277  -19.2221   19.3459 C.3     1  UNL1        0.0188
     27 C         -11.4814  -19.0343   20.4884 C.3     1  UNL1        0.0724
     28 N         -11.7390  -17.6603   21.0322 N.3     1  UNL1       -0.2667
     29 C         -11.1858  -16.4582   20.3259 C.3     1  UNL1        0.1173
     30 C         -10.0565  -15.5046   20.5809 C.3     1  UNL1        0.1606
     31 O         -10.4035  -14.7582   19.3269 O.3     1  UNL1       -0.3507
     32 C         -11.5329  -15.7119   19.0719 C.3     1  UNL1        0.1606
     33 C         -12.5499  -17.4884   22.2824 C.3     1  UNL1        0.1173
     34 C         -12.8081  -16.3562   23.2319 C.3     1  UNL1        0.1606
     35 O         -13.6966  -17.2452   24.0505 O.3     1  UNL1       -0.3507
     36 C         -13.4385  -18.3774   23.1010 C.3     1  UNL1        0.1606
@<TRIPOS>BOND
     1    13    14   ar
     2    14    15   ar
     3    15    16   ar
     4    16    17   ar
     5    17    18   ar
     6    17    19    1
     7    19    20    1
     8    20    21    1
     9    21    12    1
    10    12     1    1
    11     1    24    1
    12    24    25    1
    13    25    26    1
    14    26    27    1
    15    27    28    1
    16    28    29    1
    17    29    30    1
    18    30    31    1
    19    31    32    1
    20    28    33    1
    21    33    34    1
    22    34    35    1
    23    35    36    1
    24     2     1    1
    25     2     3    1
    26     3     4    1
    27     4     5    1
    28     5     6    1
    29     6     7   ar
    30     7     8   ar
    31     8     9   ar
    32     9    10   ar
    33    10    11   ar
    34    21    22    1
    35    18    13   ar
    36    32    29    1
    37    36    33    1
    38    11     2    1
    39    22    16    1
    40    11     6   ar
    41    20    23    1
@<TRIPOS>MOLECULE
*****
 36 41 0 0 0
SMALL
GASTEIGER

@<TRIPOS>ATOM
      1 N          -7.5750  -19.5362   21.4504 N.3     1  UNL1       -0.2679
      2 C          -8.4367  -19.1587   22.6187 C.3     1  UNL1        0.0978
      3 C          -9.4167  -20.1469   23.1781 C.3     1  UNL1        0.0224
      4 C         -10.2785  -19.7693   24.3465 C.3     1  UNL1        0.0065
      5 C         -10.1601  -18.4035   24.9553 C.3     1  UNL1        0.0277
      6 C          -9.1801  -17.4153   24.3958 C.ar    1  UNL1       -0.0073
      7 C          -9.0617  -16.0496   25.0046 C.ar    1  UNL1       -0.0015
      8 C          -8.0817  -15.0614   24.4451 C.ar    1  UNL1        0.0203
      9 C          -7.2200  -15.4390   23.2769 C.ar    1  UNL1        0.0985
     10 N          -7.3383  -16.8047   22.6681 N.ar    1  UNL1       -0.2471
     11 C          -8.3184  -17.7929   23.2275 C.ar    1  UNL1        0.0695
     12 C          -6.2384  -20.1772   21.6804 C.3     1  UNL1        0.0886
     13 C          -0.3618  -16.9616   20.1394 C.ar    1  UNL1        0.0204
     14 C          -0.7390  -17.8660   19.0037 C.ar    1  UNL1        0.0984
     15 N          -1.9898  -18.6900   19.0848 N.ar    1  UNL1       -0.2484
     16 C          -2.8633  -18.6096   20.3015 C.ar    1  UNL1        0.0577
     17 C          -2.4861  -17.7052   21.4371 C.ar    1  UNL1        0.0073
     18 C          -1.2353  -16.8812   21.3561 C.ar    1  UNL1       -0.0002
     19 C          -3.3596  -17.6247   22.6539 C.3     1  UNL1        0.0968
     20 N          -4.6104  -18.4487   22.7350 N.3     1  UNL1       -0.2934
     21 C          -4.9876  -19.3532   21.5993 C.3     1  UNL1        0.0764
     22 C          -4.1141  -19.4336   20.3826 C.3     1  UNL1        0.0626
     23 H          -5.3847  -17.7970   22.8621 H       1  UNL1        0.1236
     24 C          -8.0498  -19.2729   20.0521 C.3     1  UNL1        0.0725
     25 C          -9.2644  -19.9792   19.5270 C.3     1  UNL1        0.0188
     26 C         -10.5471  -19.2252   19.3372 C.3     1  UNL1        0.0188
     27 C         -11.4836  -19.0353   20.4936 C.3     1  UNL1        0.0724
     28 N         -11.7427  -17.6590   21.0307 N.3     1  UNL1       -0.2667
     29 C         -12.5515  -17.4819   22.2814 C.3     1  UNL1        0.1173
     30 C         -13.4550  -18.3617   23.0937 C.3     1  UNL1        0.1606
     31 O         -13.6955  -17.2315   24.0502 O.3     1  UNL1       -0.3507
     32 C         -12.7920  -16.3518   23.2379 C.3     1  UNL1        0.1606
     33 C         -11.1928  -16.4596   20.3170 C.3     1  UNL1        0.1173
     34 C         -11.5547  -15.7095   19.0694 C.3     1  UNL1        0.1606
     35 O         -10.4153  -14.7635   19.3077 O.3     1  UNL1       -0.3507
     36 C         -10.0534  -15.5136   20.5552 C.3     1  UNL1        0.1606
@<TRIPOS>BOND
     1    13    14   ar
     2    14    15   ar
     3    15    16   ar
     4    16    17   ar
     5    17    18   ar
     6    17    19    1
     7    19    20    1
     8    20    21    1
     9    21    12    1
    10    12     1    1
    11     1    24    1
    12    24    25    1
    13    25    26    1
    14    26    27    1
    15    27    28    1
    16    28    29    1
    17    29    30    1
    18    30    31    1
    19    31    32    1
    20    28    33    1
    21    33    34    1
    22    34    35    1
    23    35    36    1
    24     2     1    1
    25     2     3    1
    26     3     4    1
    27     4     5    1
    28     5     6    1
    29     6     7   ar
    30     7     8   ar
    31     8     9   ar
    32     9    10   ar
    33    10    11   ar
    34    21    22    1
    35    18    13   ar
    36    32    29    1
    37    36    33    1
    38    11     2    1
    39    22    16    1
    40    11     6   ar
    41    20    23    1
@<TRIPOS>MOLECULE
*****
 36 41 0 0 0
SMALL
GASTEIGER

@<TRIPOS>ATOM
      1 N          -8.0702  -18.6065   21.5055 N.3     1  UNL1       -0.2679
      2 C          -9.1227  -19.0166   22.4924 C.3     1  UNL1        0.0978
      3 C          -8.8400  -20.1104   23.4792 C.3     1  UNL1        0.0224
      4 C          -9.8926  -20.5205   24.4661 C.3     1  UNL1        0.0065
      5 C         -11.2277  -19.8370   24.4662 C.3     1  UNL1        0.0277
      6 C         -11.5104  -18.7432   23.4793 C.ar    1  UNL1       -0.0073
      7 C         -12.8456  -18.0597   23.4794 C.ar    1  UNL1       -0.0015
      8 C         -13.1283  -16.9659   22.4925 C.ar    1  UNL1        0.0203
      9 C         -12.0758  -16.5558   21.5056 C.ar    1  UNL1        0.0985
     10 N         -10.7406  -17.2393   21.5056 N.ar    1  UNL1       -0.2471
     11 C         -10.4579  -18.3331   22.4924 C.ar    1  UNL1        0.0695
     12 C          -7.4752  -17.2310   21.5717 C.3     1  UNL1        0.0886
     13 C          -7.0529  -14.6886   27.9441 C.ar    1  UNL1        0.0204
     14 C          -8.4643  -15.1233   27.6814 C.ar    1  UNL1        0.0984
     15 N          -8.8310  -15.7188   26.3544 N.ar    1  UNL1       -0.2484
     16 C          -7.7864  -15.8795   25.2900 C.ar    1  UNL1        0.0577
     17 C          -6.3750  -15.4447   25.5527 C.ar    1  UNL1        0.0073
     18 C          -6.0083  -14.8493   26.8797 C.ar    1  UNL1       -0.0002
     19 C          -5.3303  -15.6054   24.4883 C.3     1  UNL1        0.0968
     20 N          -5.6971  -16.2008   23.1613 N.3     1  UNL1       -0.2934
     21 C          -7.1085  -16.6356   22.8987 C.3     1  UNL1        0.0764
     22 C          -8.1531  -16.4749   23.9630 C.3     1  UNL1        0.0626
     23 H          -5.1072  -17.0232   23.0345 H       1  UNL1        0.1236
     24 C          -7.6126  -19.5716   20.4524 C.3     1  UNL1        0.0725
     25 C          -6.4863  -20.5190   20.7418 C.3     1  UNL1        0.0188
     26 C          -5.1852  -20.3840   20.0076 C.3     1  UNL1        0.0188
     27 C          -4.6369  -19.0227   19.6973 C.3     1  UNL1        0.0724
     28 N          -3.3749  -18.5539   20.3588 N.3     1  UNL1       -0.2667
     29 C          -2.1564  -18.2679   19.5320 C.3     1  UNL1        0.1173
     30 C          -1.9133  -17.7636   18.1404 C.3     1  UNL1        0.1606
     31 O          -0.4332  -17.8634   18.3629 O.3     1  UNL1       -0.3507
     32 C          -0.6764  -18.3677   19.7545 C.3     1  UNL1        0.1606
     33 C          -3.3314  -18.3710   21.8470 C.3     1  UNL1        0.1173
     34 C          -2.5267  -17.5249   22.7886 C.3     1  UNL1        0.1606
     35 O          -3.2698  -18.1125   23.9516 O.3     1  UNL1       -0.3507
     36 C          -4.0744  -18.9586   23.0100 C.3     1  UNL1        0.1606
@<TRIPOS>BOND
     1    13    14   ar
     2    14    15   ar
     3    15    16   ar
     4    16    17   ar
     5    17    18   ar
     6    17    19    1
     7    19    20    1
     8    20    21    1
     9    21    12    1
    10    12     1    1
    11     1    24    1
    12    24    25    1
    13    25    26    1
    14    26    27    1
    15    27    28    1
    16    28    29    1
    17    29    30    1
    18    30    31    1
    19    31    32    1
    20    28    33    1
    21    33    34    1
    22    34    35    1
    23    35    36    1
    24     2     1    1
    25     2     3    1
    26     3     4    1
    27     4     5    1
    28     5     6    1
    29     6     7   ar
    30     7     8   ar
    31     8     9   ar
    32     9    10   ar
    33    10    11   ar
    34    21    22    1
    35    18    13   ar
    36    32    29    1
    37    36    33    1
    38    11     2    1
    39    22    16    1
    40    11     6   ar
    41    20    23    1
@<TRIPOS>MOLECULE
*****
 36 41 0 0 0
SMALL
GASTEIGER

@<TRIPOS>ATOM
      1 N          -8.0550  -18.6143   21.5358 N.3     1  UNL1       -0.2679
      2 C          -9.1368  -18.9925   22.5035 C.3     1  UNL1        0.0978
      3 C          -8.8995  -20.0839   23.5048 C.3     1  UNL1        0.0224
      4 C          -9.9814  -20.4621   24.4726 C.3     1  UNL1        0.0065
      5 C         -11.3005  -19.7489   24.4391 C.3     1  UNL1        0.0277
      6 C         -11.5378  -18.6575   23.4378 C.ar    1  UNL1       -0.0073
      7 C         -12.8570  -17.9442   23.4043 C.ar    1  UNL1       -0.0015
      8 C         -13.0943  -16.8528   22.4031 C.ar    1  UNL1        0.0203
      9 C         -12.0124  -16.4746   21.4353 C.ar    1  UNL1        0.0985
     10 N         -10.6933  -17.1879   21.4688 N.ar    1  UNL1       -0.2471
     11 C         -10.4560  -18.2793   22.4701 C.ar    1  UNL1        0.0695
     12 C          -7.4449  -17.2450   21.5903 C.3     1  UNL1        0.0886
     13 C          -7.0312  -14.6591   27.9458 C.ar    1  UNL1        0.0204
     14 C          -8.4397  -15.1058   27.6882 C.ar    1  UNL1        0.0984
     15 N          -8.8042  -15.7124   26.3656 N.ar    1  UNL1       -0.2484
     16 C          -7.7601  -15.8722   25.3006 C.ar    1  UNL1        0.0577
     17 C          -6.3516  -15.4254   25.5582 C.ar    1  UNL1        0.0073
     18 C          -5.9871  -14.8189   26.8808 C.ar    1  UNL1       -0.0002
     19 C          -5.3074  -15.5852   24.4931 C.3     1  UNL1        0.0968
     20 N          -5.6718  -16.1918   23.1705 N.3     1  UNL1       -0.2934
     21 C          -7.0805  -16.6385   22.9129 C.3     1  UNL1        0.0764
     22 C          -8.1245  -16.4787   23.9780 C.3     1  UNL1        0.0626
     23 H          -5.0762  -17.0106   23.0479 H       1  UNL1        0.1236
     24 C          -7.5831  -19.6054   20.5135 C.3     1  UNL1        0.0725
     25 C          -6.4334  -20.5164   20.8268 C.3     1  UNL1        0.0188
     26 C          -5.1514  -20.3981   20.0571 C.3     1  UNL1        0.0188
     27 C          -4.6059  -19.0440   19.7123 C.3     1  UNL1        0.0724
     28 N          -3.3463  -18.5548   20.3635 N.3     1  UNL1       -0.2667
     29 C          -3.2962  -18.3634   21.8504 C.3     1  UNL1        0.1173
     30 C          -4.0305  -18.9481   23.0204 C.3     1  UNL1        0.1606
     31 O          -3.2253  -18.0927   23.9531 O.3     1  UNL1       -0.3507
     32 C          -2.4910  -17.5080   22.7831 C.3     1  UNL1        0.1606
     33 C          -2.1367  -18.2570   19.5278 C.3     1  UNL1        0.1173
     34 C          -1.9088  -17.7769   18.1251 C.3     1  UNL1        0.1606
     35 O          -0.4263  -17.8358   18.3458 O.3     1  UNL1       -0.3507
     36 C          -0.6542  -18.3159   19.7485 C.3     1  UNL1        0.1606
@<TRIPOS>BOND
     1    13    14   ar
     2    14    15   ar
     3    15    16   ar
     4    16    17   ar
     5    17    18   ar
     6    17    19    1
     7    19    20    1
     8    20    21    1
     9    21    12    1
    10    12     1    1
    11     1    24    1
    12    24    25    1
    13    25    26    1
    14    26    27    1
    15    27    28    1
    16    28    29    1
    17    29    30    1
    18    30    31    1
    19    31    32    1
    20    28    33    1
    21    33    34    1
    22    34    35    1
    23    35    36    1
    24     2     1    1
    25     2     3    1
    26     3     4    1
    27     4     5    1
    28     5     6    1
    29     6     7   ar
    30     7     8   ar
    31     8     9   ar
    32     9    10   ar
    33    10    11   ar
    34    21    22    1
    35    18    13   ar
    36    32    29    1
    37    36    33    1
    38    11     2    1
    39    22    16    1
    40    11     6   ar
    41    20    23    1
@<TRIPOS>MOLECULE
*****
 36 41 0 0 0
SMALL
GASTEIGER

@<TRIPOS>ATOM
      1 N          -8.6498  -17.8417   21.3072 N.3     1  UNL1       -0.2679
      2 C         -10.1001  -17.4588   21.3102 C.3     1  UNL1        0.0978
      3 C         -10.6651  -16.6517   20.1792 C.3     1  UNL1        0.0224
      4 C         -12.1155  -16.2688   20.1823 C.3     1  UNL1        0.0065
      5 C         -13.0008  -16.6931   21.3164 C.3     1  UNL1        0.0277
      6 C         -12.4357  -17.5002   22.4474 C.ar    1  UNL1       -0.0073
      7 C         -13.3210  -17.9245   23.5815 C.ar    1  UNL1       -0.0015
      8 C         -12.7560  -18.7316   24.7126 C.ar    1  UNL1        0.0203
      9 C         -11.3057  -19.1145   24.7095 C.ar    1  UNL1        0.0985
     10 N         -10.4204  -18.6902   23.5754 N.ar    1  UNL1       -0.2471
     11 C         -10.9855  -17.8831   22.4444 C.ar    1  UNL1        0.0695
     12 C          -7.5957  -16.7884   21.4787 C.3     1  UNL1        0.0886
     13 C          -7.0831  -14.8107   28.0419 C.ar    1  UNL1        0.0204
     14 C          -8.5206  -15.1019   27.7277 C.ar    1  UNL1        0.0984
     15 N          -8.9106  -15.5557   26.3522 N.ar    1  UNL1       -0.2484
     16 C          -7.8631  -15.7182   25.2909 C.ar    1  UNL1        0.0577
     17 C          -6.4257  -15.4270   25.6051 C.ar    1  UNL1        0.0073
     18 C          -6.0357  -14.9732   26.9806 C.ar    1  UNL1       -0.0002
     19 C          -5.3781  -15.5896   24.5439 C.3     1  UNL1        0.0968
     20 N          -5.7681  -16.0434   23.1684 N.3     1  UNL1       -0.2934
     21 C          -7.2057  -16.3346   22.8542 C.3     1  UNL1        0.0764
     22 C          -8.2531  -16.1720   23.9154 C.3     1  UNL1        0.0626
     23 H          -5.2466  -16.8999   22.9820 H       1  UNL1        0.1236
     24 C          -8.2536  -19.2778   21.1326 C.3     1  UNL1        0.0725
     25 C          -6.8036  -19.6616   21.1361 C.3     1  UNL1        0.0188
     26 C          -5.9026  -19.1984   20.0299 C.3     1  UNL1        0.0188
     27 C          -4.4959  -19.7124   19.9434 C.3     1  UNL1        0.0724
     28 N          -3.3627  -18.8905   20.4823 N.3     1  UNL1       -0.2667
     29 C          -2.2527  -18.4555   19.5722 C.3     1  UNL1        0.1173
     30 C          -0.7577  -18.3918   19.6779 C.3     1  UNL1        0.1606
     31 O          -0.6827  -17.8402   18.2850 O.3     1  UNL1       -0.3507
     32 C          -2.1776  -17.9039   18.1793 C.3     1  UNL1        0.1606
     33 C          -3.3397  -18.5037   21.9315 C.3     1  UNL1        0.1173
     34 C          -2.5604  -17.5213   22.7547 C.3     1  UNL1        0.1606
     35 O          -3.3070  -17.9566   23.9808 O.3     1  UNL1       -0.3507
     36 C          -4.0862  -18.9390   23.1575 C.3     1  UNL1        0.1606
@<TRIPOS>BOND
     1    13    14   ar
     2    14    15   ar
     3    15    16   ar
     4    16    17   ar
     5    17    18   ar
     6    17    19    1
     7    19    20    1
     8    20    21    1
     9    21    12    1
    10    12     1    1
    11     1    24    1
    12    24    25    1
    13    25    26    1
    14    26    27    1
    15    27    28    1
    16    28    29    1
    17    29    30    1
    18    30    31    1
    19    31    32    1
    20    28    33    1
    21    33    34    1
    22    34    35    1
    23    35    36    1
    24     2     1    1
    25     2     3    1
    26     3     4    1
    27     4     5    1
    28     5     6    1
    29     6     7   ar
    30     7     8   ar
    31     8     9   ar
    32     9    10   ar
    33    10    11   ar
    34    21    22    1
    35    18    13   ar
    36    32    29    1
    37    36    33    1
    38    11     2    1
    39    22    16    1
    40    11     6   ar
    41    20    23    1
@<TRIPOS>MOLECULE
*****
 36 41 0 0 0
SMALL
GASTEIGER

@<TRIPOS>ATOM
      1 N          -7.2555  -19.5823   21.1540 N.3     1  UNL1       -0.2679
      2 C          -7.7835  -18.5159   22.0672 C.3     1  UNL1        0.0978
      3 C          -7.3520  -17.0910   21.8847 C.3     1  UNL1        0.0224
      4 C          -7.8801  -16.0246   22.7980 C.3     1  UNL1        0.0065
      5 C          -8.8396  -16.3831   23.8937 C.3     1  UNL1        0.0277
      6 C          -9.2712  -17.8081   24.0762 C.ar    1  UNL1       -0.0073
      7 C         -10.2308  -18.1666   25.1719 C.ar    1  UNL1       -0.0015
      8 C         -10.6623  -19.5916   25.3543 C.ar    1  UNL1        0.0203
      9 C         -10.1343  -20.6579   24.4412 C.ar    1  UNL1        0.0985
     10 N          -9.1747  -20.2994   23.3455 N.ar    1  UNL1       -0.2471
     11 C          -8.7432  -18.8744   23.1630 C.ar    1  UNL1        0.0695
     12 C          -5.9646  -20.2747   21.4770 C.3     1  UNL1        0.0886
     13 C          -0.0405  -17.1397   19.9515 C.ar    1  UNL1        0.0204
     14 C          -0.5805  -17.7970   18.7161 C.ar    1  UNL1        0.0984
     15 N          -1.8734  -18.5554   18.7741 N.ar    1  UNL1       -0.2484
     16 C          -2.6262  -18.6566   20.0676 C.ar    1  UNL1        0.0577
     17 C          -2.0862  -17.9993   21.3030 C.ar    1  UNL1        0.0073
     18 C          -0.7933  -17.2408   21.2450 C.ar    1  UNL1       -0.0002
     19 C          -2.8390  -18.1004   22.5965 C.3     1  UNL1        0.0968
     20 N          -4.1318  -18.8589   22.6545 N.3     1  UNL1       -0.2934
     21 C          -4.6718  -19.5162   21.4190 C.3     1  UNL1        0.0764
     22 C          -3.9190  -19.4151   20.1256 C.3     1  UNL1        0.0626
     23 H          -4.8441  -18.2026   22.9742 H       1  UNL1        0.1236
     24 C          -8.0183  -19.9563   19.9178 C.3     1  UNL1        0.0725
     25 C          -8.9998  -18.9915   19.3214 C.3     1  UNL1        0.0188
     26 C         -10.4699  -19.2829   19.3830 C.3     1  UNL1        0.0188
     27 C         -11.2235  -19.0713   20.6626 C.3     1  UNL1        0.0724
     28 N         -11.6689  -17.6927   21.0516 N.3     1  UNL1       -0.2667
     29 C         -11.2718  -16.5125   20.2154 C.3     1  UNL1        0.1173
     30 C         -11.8030  -15.8688   18.9690 C.3     1  UNL1        0.1606
     31 O         -10.7102  -14.8433   19.0328 O.3     1  UNL1       -0.3507
     32 C         -10.1790  -15.4869   20.2792 C.3     1  UNL1        0.1606
     33 C         -12.5114  -17.4945   22.2767 C.3     1  UNL1        0.1173
     34 C         -13.3760  -18.3802   23.1240 C.3     1  UNL1        0.1606
     35 O         -13.7028  -17.2142   24.0093 O.3     1  UNL1       -0.3507
     36 C         -12.8382  -16.3285   23.1620 C.3     1  UNL1        0.1606
@<TRIPOS>BOND
     1    13    14   ar
     2    14    15   ar
     3    15    16   ar
     4    16    17   ar
     5    17    18   ar
     6    17    19    1
     7    19    20    1
     8    20    21    1
     9    21    12    1
    10    12     1    1
    11     1    24    1
    12    24    25    1
    13    25    26    1
    14    26    27    1
    15    27    28    1
    16    28    29    1
    17    29    30    1
    18    30    31    1
    19    31    32    1
    20    28    33    1
    21    33    34    1
    22    34    35    1
    23    35    36    1
    24     2     1    1
    25     2     3    1
    26     3     4    1
    27     4     5    1
    28     5     6    1
    29     6     7   ar
    30     7     8   ar
    31     8     9   ar
    32     9    10   ar
    33    10    11   ar
    34    21    22    1
    35    18    13   ar
    36    32    29    1
    37    36    33    1
    38    11     2    1
    39    22    16    1
    40    11     6   ar
    41    20    23    1
@<TRIPOS>MOLECULE
*****
 36 41 0 0 0
SMALL
GASTEIGER

@<TRIPOS>ATOM
      1 N          -9.3133  -18.7477   21.0036 N.3     1  UNL1       -0.2679
      2 C          -9.7895  -19.1986   22.3526 C.3     1  UNL1        0.0978
      3 C          -8.9300  -20.0995   23.1889 C.3     1  UNL1        0.0224
      4 C          -9.4063  -20.5503   24.5380 C.3     1  UNL1        0.0065
      5 C         -10.7422  -20.1002   25.0507 C.3     1  UNL1        0.0277
      6 C         -11.6018  -19.1993   24.2143 C.ar    1  UNL1       -0.0073
      7 C         -12.9376  -18.7492   24.7270 C.ar    1  UNL1       -0.0015
      8 C         -13.7972  -17.8482   23.8906 C.ar    1  UNL1        0.0203
      9 C         -13.3209  -17.3974   22.5416 C.ar    1  UNL1        0.0985
     10 N         -11.9850  -17.8475   22.0289 N.ar    1  UNL1       -0.2471
     11 C         -11.1255  -18.7484   22.8653 C.ar    1  UNL1        0.0695
     12 C          -8.4212  -19.6359   20.1877 C.3     1  UNL1        0.0886
     13 C          -1.5988  -18.8291   20.4197 C.ar    1  UNL1        0.0204
     14 C          -2.1644  -17.9263   19.3637 C.ar    1  UNL1        0.0984
     15 N          -3.6420  -17.9072   19.1061 N.ar    1  UNL1       -0.2484
     16 C          -4.5540  -18.7907   19.9045 C.ar    1  UNL1        0.0577
     17 C          -3.9884  -19.6935   20.9605 C.ar    1  UNL1        0.0073
     18 C          -2.5108  -19.7127   21.2181 C.ar    1  UNL1       -0.0002
     19 C          -4.9005  -20.5771   21.7589 C.3     1  UNL1        0.0968
     20 N          -6.3781  -20.5579   21.5014 N.3     1  UNL1       -0.2934
     21 C          -6.9436  -19.6551   20.4453 C.3     1  UNL1        0.0764
     22 C          -6.0316  -18.7715   19.6469 C.3     1  UNL1        0.0626
     23 H          -6.8269  -20.3002   22.3803 H       1  UNL1        0.1236
     24 C          -9.7290  -17.4088   20.4703 C.3     1  UNL1        0.0725
     25 C          -9.5460  -16.1781   21.3081 C.3     1  UNL1        0.0188
     26 C          -8.3065  -16.0122   22.1364 C.3     1  UNL1        0.0188
     27 C          -8.3983  -16.0204   23.6336 C.3     1  UNL1        0.0724
     28 N          -7.1534  -15.9024   24.4620 N.3     1  UNL1       -0.2667
     29 C          -5.8083  -16.0906   23.8255 C.3     1  UNL1        0.1173
     30 C          -5.0070  -17.2736   23.3690 C.3     1  UNL1        0.1606
     31 O          -3.9060  -16.3566   22.9252 O.3     1  UNL1       -0.3507
     32 C          -4.7073  -15.1736   23.3816 C.3     1  UNL1        0.1606
     33 C          -7.2536  -15.5964   25.9271 C.3     1  UNL1        0.1173
     34 C          -6.2664  -15.3423   27.0275 C.3     1  UNL1        0.1606
     35 O          -7.3953  -15.1635   27.9990 O.3     1  UNL1       -0.3507
     36 C          -8.3825  -15.4176   26.8986 C.3     1  UNL1        0.1606
@<TRIPOS>BOND
     1    13    14   ar
     2    14    15   ar
     3    15    16   ar
     4    16    17   ar
     5    17    18   ar
     6    17    19    1
     7    19    20    1
     8    20    21    1
     9    21    12    1
    10    12     1    1
    11     1    24    1
    12    24    25    1
    13    25    26    1
    14    26    27    1
    15    27    28    1
    16    28    29    1
    17    29    30    1
    18    30    31    1
    19    31    32    1
    20    28    33    1
    21    33    34    1
    22    34    35    1
    23    35    36    1
    24     2     1    1
    25     2     3    1
    26     3     4    1
    27     4     5    1
    28     5     6    1
    29     6     7   ar
    30     7     8   ar
    31     8     9   ar
    32     9    10   ar
    33    10    11   ar
    34    21    22    1
    35    18    13   ar
    36    32    29    1
    37    36    33    1
    38    11     2    1
    39    22    16    1
    40    11     6   ar
    41    20    23    1
@<TRIPOS>MOLECULE
*****
 36 41 0 0 0
SMALL
GASTEIGER

@<TRIPOS>ATOM
      1 N           7.0860   -3.9450   23.0513 N.3     1  UNL1       -0.2679
      2 C           7.6775   -5.1731   23.6771 C.3     1  UNL1        0.0978
      3 C           8.4320   -6.1564   22.8321 C.3     1  UNL1        0.0224
      4 C           9.0235   -7.3846   23.4581 C.3     1  UNL1        0.0065
      5 C           8.8606   -7.6295   24.9289 C.3     1  UNL1        0.0277
      6 C           8.1062   -6.6462   25.7739 C.ar    1  UNL1       -0.0073
      7 C           7.9432   -6.8911   27.2448 C.ar    1  UNL1       -0.0015
      8 C           7.1888   -5.9078   28.0898 C.ar    1  UNL1        0.0203
      9 C           6.5973   -4.6796   27.4639 C.ar    1  UNL1        0.0985
     10 N           6.7602   -4.4348   25.9931 N.ar    1  UNL1       -0.2471
     11 C           7.5146   -5.4180   25.1481 C.ar    1  UNL1        0.0695
     12 C           5.6211   -3.8971   22.7323 C.3     1  UNL1        0.0886
     13 C           1.3903    1.3957   23.8884 C.ar    1  UNL1        0.0204
     14 C           1.3864    1.0750   22.4231 C.ar    1  UNL1        0.0984
     15 N           2.2317   -0.0477   21.8989 N.ar    1  UNL1       -0.2484
     16 C           3.0810   -0.8497   22.8398 C.ar    1  UNL1        0.0577
     17 C           3.0850   -0.5289   24.3051 C.ar    1  UNL1        0.0073
     18 C           2.2396    0.5938   24.8294 C.ar    1  UNL1       -0.0002
     19 C           3.9343   -1.3309   25.2462 C.3     1  UNL1        0.0968
     20 N           4.7797   -2.4536   24.7219 N.3     1  UNL1       -0.2934
     21 C           4.7757   -2.7744   23.2566 C.3     1  UNL1        0.0764
     22 C           3.9264   -1.9724   22.3156 C.3     1  UNL1        0.0626
     23 H           4.4819   -3.2988   25.2091 H       1  UNL1        0.1236
     24 C           7.9594   -2.7647   22.7444 C.3     1  UNL1        0.0725
     25 C           8.3023   -2.4352   21.3218 C.3     1  UNL1        0.0188
     26 C           7.3255   -1.6791   20.4707 C.3     1  UNL1        0.0188
     27 C           6.8688   -2.2538   19.1625 C.3     1  UNL1        0.0724
     28 N           5.4031   -2.3840   18.8715 N.3     1  UNL1       -0.2667
     29 C           4.6311   -1.2018   18.3652 C.3     1  UNL1        0.1173
     30 C           4.2429    0.1324   18.9302 C.3     1  UNL1        0.1606
     31 O           3.5392    0.4701   17.6493 O.3     1  UNL1       -0.3507
     32 C           3.9274   -0.8641   17.0843 C.3     1  UNL1        0.1606
     33 C           4.7094   -3.6965   19.0867 C.3     1  UNL1        0.1173
     34 C           5.1502   -5.1277   19.1716 C.3     1  UNL1        0.1606
     35 O           3.7285   -5.5526   19.3910 O.3     1  UNL1       -0.3507
     36 C           3.2877   -4.1213   19.3061 C.3     1  UNL1        0.1606
@<TRIPOS>BOND
     1    13    14   ar
     2    14    15   ar
     3    15    16   ar
     4    16    17   ar
     5    17    18   ar
     6    17    19    1
     7    19    20    1
     8    20    21    1
     9    21    12    1
    10    12     1    1
    11     1    24    1
    12    24    25    1
    13    25    26    1
    14    26    27    1
    15    27    28    1
    16    28    29    1
    17    29    30    1
    18    30    31    1
    19    31    32    1
    20    28    33    1
    21    33    34    1
    22    34    35    1
    23    35    36    1
    24     2     1    1
    25     2     3    1
    26     3     4    1
    27     4     5    1
    28     5     6    1
    29     6     7   ar
    30     7     8   ar
    31     8     9   ar
    32     9    10   ar
    33    10    11   ar
    34    21    22    1
    35    18    13   ar
    36    32    29    1
    37    36    33    1
    38    11     2    1
    39    22    16    1
    40    11     6   ar
    41    20    23    1
@<TRIPOS>MOLECULE
*****
 36 41 0 0 0
SMALL
GASTEIGER

@<TRIPOS>ATOM
      1 N          -9.3139  -18.7597   21.0523 N.3     1  UNL1       -0.2679
      2 C          -9.7962  -19.2148   22.3977 C.3     1  UNL1        0.0978
      3 C          -8.9450  -20.1267   23.2307 C.3     1  UNL1        0.0224
      4 C          -9.4273  -20.5817   24.5762 C.3     1  UNL1        0.0065
      5 C         -10.7609  -20.1248   25.0887 C.3     1  UNL1        0.0277
      6 C         -11.6122  -19.2129   24.2558 C.ar    1  UNL1       -0.0073
      7 C         -12.9458  -18.7560   24.7683 C.ar    1  UNL1       -0.0015
      8 C         -13.7971  -17.8441   23.9354 C.ar    1  UNL1        0.0203
      9 C         -13.3148  -17.3891   22.5899 C.ar    1  UNL1        0.0985
     10 N         -11.9812  -17.8460   22.0774 N.ar    1  UNL1       -0.2471
     11 C         -11.1299  -18.7579   22.9103 C.ar    1  UNL1        0.0695
     12 C          -8.3958  -19.6334   20.2498 C.3     1  UNL1        0.0886
     13 C          -1.5766  -18.8041   20.4973 C.ar    1  UNL1        0.0204
     14 C          -2.1273  -18.0042   19.3542 C.ar    1  UNL1        0.0984
     15 N          -3.6013  -18.0101   19.0760 N.ar    1  UNL1       -0.2484
     16 C          -4.5246  -18.8158   19.9411 C.ar    1  UNL1        0.0577
     17 C          -3.9738  -19.6157   21.0842 C.ar    1  UNL1        0.0073
     18 C          -2.4999  -19.6098   21.3624 C.ar    1  UNL1       -0.0002
     19 C          -4.8971  -20.4215   21.9493 C.3     1  UNL1        0.0968
     20 N          -6.3711  -20.4274   21.6712 N.3     1  UNL1       -0.2934
     21 C          -6.9218  -19.6275   20.5279 C.3     1  UNL1        0.0764
     22 C          -5.9985  -18.8217   19.6629 C.3     1  UNL1        0.0626
     23 H          -6.8315  -20.0890   22.5161 H       1  UNL1        0.1236
     24 C          -9.7497  -17.4311   20.5092 C.3     1  UNL1        0.0725
     25 C          -9.4077  -16.1707   21.2469 C.3     1  UNL1        0.0188
     26 C          -8.1778  -16.1133   22.1037 C.3     1  UNL1        0.0188
     27 C          -8.2897  -15.7407   23.5524 C.3     1  UNL1        0.0724
     28 N          -7.0701  -15.7501   24.4256 N.3     1  UNL1       -0.2667
     29 C          -7.2058  -15.5486   25.9057 C.3     1  UNL1        0.1173
     30 C          -6.2468  -15.3405   27.0402 C.3     1  UNL1        0.1606
     31 O          -7.3977  -15.2637   27.9991 O.3     1  UNL1       -0.3507
     32 C          -8.3568  -15.4717   26.8646 C.3     1  UNL1        0.1606
     33 C          -5.7147  -15.9609   23.8185 C.3     1  UNL1        0.1173
     34 C          -4.6651  -15.0653   23.2300 C.3     1  UNL1        0.1606
     35 O          -3.7979  -16.2590   22.9599 O.3     1  UNL1       -0.3507
     36 C          -4.8474  -17.1547   23.5484 C.3     1  UNL1        0.1606
@<TRIPOS>BOND
     1    13    14   ar
     2    14    15   ar
     3    15    16   ar
     4    16    17   ar
     5    17    18   ar
     6    17    19    1
     7    19    20    1
     8    20    21    1
     9    21    12    1
    10    12     1    1
    11     1    24    1
    12    24    25    1
    13    25    26    1
    14    26    27    1
    15    27    28    1
    16    28    29    1
    17    29    30    1
    18    30    31    1
    19    31    32    1
    20    28    33    1
    21    33    34    1
    22    34    35    1
    23    35    36    1
    24     2     1    1
    25     2     3    1
    26     3     4    1
    27     4     5    1
    28     5     6    1
    29     6     7   ar
    30     7     8   ar
    31     8     9   ar
    32     9    10   ar
    33    10    11   ar
    34    21    22    1
    35    18    13   ar
    36    32    29    1
    37    36    33    1
    38    11     2    1
    39    22    16    1
    40    11     6   ar
    41    20    23    1
