@<TRIPOS>MOLECULE
*****
 31 33 0 0 0
SMALL
GASTEIGER

@<TRIPOS>ATOM
      1 C         -11.6870  -18.0384   21.3508 C.ar    1  UNL1        0.1724
      2 C         -11.5263  -18.2432   19.8736 C.ar    1  UNL1        0.0402
      3 C         -10.3025  -18.9269   19.3399 C.ar    1  UNL1        0.0078
      4 C          -9.2394  -19.4059   20.2835 C.ar    1  UNL1        0.0566
      5 C          -9.4001  -19.2012   21.7607 C.ar    1  UNL1        0.0445
      6 C         -10.6239  -18.5174   22.2943 C.ar    1  UNL1        0.1722
      7 C          -8.0156  -20.0897   19.7499 C.2     1  UNL1        0.2463
      8 O          -8.1147  -20.9647   18.5356 O.2     1  UNL1       -0.2701
      9 N          -6.6927  -19.8985   20.4305 N.am    1  UNL1       -0.2943
     10 H          -6.6276  -19.3243   21.2275 H       1  UNL1        0.1501
     11 C          -5.4689  -20.5823   19.8969 C.3     1  UNL1        0.1579
     12 C          -4.1058  -20.0854   20.2781 C.ar    1  UNL1        0.1738
     13 C          -3.6075  -18.6782   20.1315 C.ar    1  UNL1        0.0553
     14 C          -2.1955  -18.6316   20.6355 C.ar    1  UNL1        0.1000
     15 N          -1.8212  -20.0100   21.0937 N.ar    1  UNL1       -0.0817
     16 O          -3.0018  -20.9085   20.8728 O.2     1  UNL1       -0.3563
     17 C          -1.3129  -17.4194   20.6746 C.3     1  UNL1        0.0436
     18 C          -1.7440  -16.2020   21.4375 C.3     1  UNL1        0.0064
     19 C           0.0010  -17.4247   19.9508 C.3     1  UNL1        0.0064
     20 C         -12.8161  -15.9558   22.4175 C.3     1  UNL1        0.2526
     21 O         -12.9108  -17.3546   21.8844 O.3     1  UNL1       -0.4684
     22 O         -10.7846  -18.3127   23.7716 O.3     1  UNL1       -0.4760
     23 C          -9.7658  -17.5185   24.5339 C.3     1  UNL1        0.1688
     24 C          -9.0624  -16.3701   23.8732 C.3     1  UNL1        0.0609
     25 C          -8.0436  -15.5759   24.6355 C.3     1  UNL1        0.0758
     26 N          -7.7281  -15.9299   26.0586 N.3     1  UNL1       -0.2737
     27 C          -8.4315  -17.0782   26.7193 C.3     1  UNL1        0.0758
     28 C          -9.4503  -17.8725   25.9570 C.3     1  UNL1        0.0609
     29 C          -6.7093  -15.1357   26.8209 C.3     1  UNL1        0.0576
     30 C          -5.3115  -15.0051   26.2924 C.3     1  UNL1        0.0173
     31 C          -7.0882  -14.4721   28.1116 C.3     1  UNL1        0.0173
@<TRIPOS>BOND
     1    20    21    1
     2    21     1    1
     3     1     2   ar
     4     2     3   ar
     5     3     4   ar
     6     4     7    1
     7     7     8    2
     8     7     9   am
     9     9    11    1
    10    11    12    1
    11    12    13   ar
    12    13    14   ar
    13    14    17    1
    14    17    18    1
    15    17    19    1
    16    14    15   ar
    17    15    16   ar
    18     4     5   ar
    19     5     6   ar
    20     6    22    1
    21    22    23    1
    22    23    24    1
    23    24    25    1
    24    25    26    1
    25    26    29    1
    26    29    30    1
    27    29    31    1
    28    26    27    1
    29    27    28    1
    30     6     1   ar
    31    28    23    1
    32    16    12   ar
    33     9    10    1
@<TRIPOS>MOLECULE
*****
 31 33 0 0 0
SMALL
GASTEIGER

@<TRIPOS>ATOM
      1 C          -1.9532  -18.4809   20.8682 C.ar    1  UNL1        0.1724
      2 C          -2.2540  -19.1753   19.5732 C.ar    1  UNL1        0.0402
      3 C          -3.6352  -19.6946   19.3038 C.ar    1  UNL1        0.0078
      4 C          -4.7156  -19.5195   20.3294 C.ar    1  UNL1        0.0566
      5 C          -4.4148  -18.8250   21.6244 C.ar    1  UNL1        0.0445
      6 C          -3.0336  -18.3057   21.8938 C.ar    1  UNL1        0.1722
      7 C          -6.0968  -20.0388   20.0600 C.2     1  UNL1        0.2463
      8 O          -6.3672  -21.5132   20.1127 O.2     1  UNL1       -0.2701
      9 N          -7.2076  -19.0837   19.7379 N.am    1  UNL1       -0.2943
     10 H          -7.0301  -18.1159   19.7033 H       1  UNL1        0.1501
     11 C          -8.5888  -19.6030   19.4685 C.3     1  UNL1        0.1579
     12 C          -9.7606  -19.0417   20.2183 C.ar    1  UNL1        0.1738
     13 C         -10.0537  -19.2439   21.6754 C.ar    1  UNL1        0.0553
     14 C         -11.3192  -18.5070   22.0003 C.ar    1  UNL1        0.1000
     15 N         -11.8081  -17.8493   20.7439 N.ar    1  UNL1       -0.0817
     16 O         -10.8448  -18.1798   19.6426 O.2     1  UNL1       -0.3563
     17 C         -11.9797  -18.4395   23.3453 C.3     1  UNL1        0.0436
     18 C         -13.3469  -17.8373   23.4801 C.3     1  UNL1        0.0064
     19 C         -11.2731  -18.9743   24.5555 C.3     1  UNL1        0.0064
     20 C           0.2589  -17.4212   20.0118 C.3     1  UNL1        0.2526
     21 O          -0.5720  -17.9616   21.1376 O.3     1  UNL1       -0.4684
     22 O          -2.7328  -17.6112   23.1890 O.3     1  UNL1       -0.4760
     23 C          -3.8504  -17.0430   24.0125 C.3     1  UNL1        0.1688
     24 C          -3.9726  -17.4056   25.4629 C.3     1  UNL1        0.0609
     25 C          -5.0901  -16.8374   26.2864 C.3     1  UNL1        0.0758
     26 N          -6.0855  -15.9067   25.6596 N.3     1  UNL1       -0.2737
     27 C          -5.9634  -15.5441   24.2093 C.3     1  UNL1        0.0758
     28 C          -4.8458  -16.1123   23.3857 C.3     1  UNL1        0.0609
     29 C          -7.2031  -15.3385   26.4831 C.3     1  UNL1        0.0576
     30 C          -6.9135  -14.7339   27.8250 C.3     1  UNL1        0.0173
     31 C          -8.6102  -15.3749   25.9648 C.3     1  UNL1        0.0173
@<TRIPOS>BOND
     1    20    21    1
     2    21     1    1
     3     1     2   ar
     4     2     3   ar
     5     3     4   ar
     6     4     7    1
     7     7     8    2
     8     7     9   am
     9     9    11    1
    10    11    12    1
    11    12    13   ar
    12    13    14   ar
    13    14    17    1
    14    17    18    1
    15    17    19    1
    16    14    15   ar
    17    15    16   ar
    18     4     5   ar
    19     5     6   ar
    20     6    22    1
    21    22    23    1
    22    23    24    1
    23    24    25    1
    24    25    26    1
    25    26    29    1
    26    29    30    1
    27    29    31    1
    28    26    27    1
    29    27    28    1
    30     6     1   ar
    31    28    23    1
    32    16    12   ar
    33     9    10    1
@<TRIPOS>MOLECULE
*****
 31 33 0 0 0
SMALL
GASTEIGER

@<TRIPOS>ATOM
      1 C           6.6285   -4.4824   28.7074 C.ar    1  UNL1        0.1724
      2 C           6.7857   -5.8260   28.0595 C.ar    1  UNL1        0.0402
      3 C           6.8964   -5.9307   26.5673 C.ar    1  UNL1        0.0078
      4 C           6.8499   -4.6918   25.7230 C.ar    1  UNL1        0.0566
      5 C           6.6927   -3.3482   26.3709 C.ar    1  UNL1        0.0445
      6 C           6.5820   -3.2435   27.8631 C.ar    1  UNL1        0.1722
      7 C           6.9606   -4.7966   24.2307 C.2     1  UNL1        0.2463
      8 O           7.6864   -5.9542   23.6119 O.2     1  UNL1       -0.2701
      9 N           6.3455   -3.7436   23.3573 N.am    1  UNL1       -0.2943
     10 H           5.8691   -2.9838   23.7634 H       1  UNL1        0.1501
     11 C           6.4562   -3.8483   21.8651 C.3     1  UNL1        0.1579
     12 C           5.2897   -3.4760   20.9985 C.ar    1  UNL1        0.1738
     13 C           4.6671   -2.1153   20.8950 C.ar    1  UNL1        0.0553
     14 C           3.5337   -2.1973   19.9159 C.ar    1  UNL1        0.1000
     15 N           3.4559   -3.6089   19.4143 N.ar    1  UNL1       -0.0817
     16 O           4.5411   -4.3991   20.0833 O.2     1  UNL1       -0.3563
     17 C           2.6359   -1.0665   19.5098 C.3     1  UNL1        0.0436
     18 C           1.3553   -0.8219   20.2516 C.3     1  UNL1        0.0064
     19 C           3.0186   -0.1802   18.3617 C.3     1  UNL1        0.0064
     20 C           7.0488   -5.4778   31.0702 C.3     1  UNL1        0.2526
     21 O           6.5178   -4.3777   30.1997 O.3     1  UNL1       -0.4684
     22 O           6.4248   -1.8998   28.5111 O.3     1  UNL1       -0.4760
     23 C           5.0547   -1.3359   28.7455 C.3     1  UNL1        0.1688
     24 C           4.6467   -0.9048   30.1232 C.3     1  UNL1        0.0609
     25 C           3.2767   -0.3409   30.3576 C.3     1  UNL1        0.0758
     26 N           2.3146   -0.2081   29.2145 N.3     1  UNL1       -0.2737
     27 C           2.7225   -0.6391   27.8369 C.3     1  UNL1        0.0758
     28 C           4.0926   -1.2030   27.6024 C.3     1  UNL1        0.0609
     29 C           0.9446    0.3558   29.4489 C.3     1  UNL1        0.0576
     30 C          -0.2528   -0.2995   28.8268 C.3     1  UNL1        0.0173
     31 C           0.7718    1.5750   30.3055 C.3     1  UNL1        0.0173
@<TRIPOS>BOND
     1    20    21    1
     2    21     1    1
     3     1     2   ar
     4     2     3   ar
     5     3     4   ar
     6     4     7    1
     7     7     8    2
     8     7     9   am
     9     9    11    1
    10    11    12    1
    11    12    13   ar
    12    13    14   ar
    13    14    17    1
    14    17    18    1
    15    17    19    1
    16    14    15   ar
    17    15    16   ar
    18     4     5   ar
    19     5     6   ar
    20     6    22    1
    21    22    23    1
    22    23    24    1
    23    24    25    1
    24    25    26    1
    25    26    29    1
    26    29    30    1
    27    29    31    1
    28    26    27    1
    29    27    28    1
    30     6     1   ar
    31    28    23    1
    32    16    12   ar
    33     9    10    1
@<TRIPOS>MOLECULE
*****
 31 33 0 0 0
SMALL
GASTEIGER

@<TRIPOS>ATOM
      1 C           7.8712   -7.5193   25.4762 C.ar    1  UNL1        0.1724
      2 C           8.8215   -7.6613   24.3245 C.ar    1  UNL1        0.0402
      3 C           9.0241   -6.5186   23.3740 C.ar    1  UNL1        0.0078
      4 C           8.2763   -5.2340   23.5754 C.ar    1  UNL1        0.0566
      5 C           7.3260   -5.0921   24.7272 C.ar    1  UNL1        0.0445
      6 C           7.1234   -6.2347   25.6776 C.ar    1  UNL1        0.1722
      7 C           8.4789   -4.0914   22.6250 C.2     1  UNL1        0.2463
      8 O           8.9103   -2.7517   23.1438 O.2     1  UNL1       -0.2701
      9 N           8.2501   -4.2883   21.1557 N.am    1  UNL1       -0.2943
     10 H           7.9670   -5.1676   20.8152 H       1  UNL1        0.1501
     11 C           8.4527   -3.1457   20.2053 C.3     1  UNL1        0.1579
     12 C           7.2953   -2.6163   19.4113 C.ar    1  UNL1        0.1738
     13 C           5.9644   -2.1995   19.9636 C.ar    1  UNL1        0.0553
     14 C           5.1122   -1.7364   18.8194 C.ar    1  UNL1        0.1000
     15 N           5.9164   -1.8671   17.5599 N.ar    1  UNL1       -0.0817
     16 O           7.2657   -2.4109   17.9258 O.2     1  UNL1       -0.3563
     17 C           3.7032   -1.2314   18.9174 C.3     1  UNL1        0.0436
     18 C           2.8331   -1.6538   20.0639 C.3     1  UNL1        0.0064
     19 C           3.1643   -0.3040   17.8688 C.3     1  UNL1        0.0064
     20 C           8.5514   -8.8011   27.6313 C.3     1  UNL1        0.2526
     21 O           7.6686   -8.6620   26.4267 O.3     1  UNL1       -0.4684
     22 O           6.1730   -6.0927   26.8294 O.3     1  UNL1       -0.4760
     23 C           6.5091   -5.1795   27.9709 C.3     1  UNL1        0.1688
     24 C           6.2613   -3.7050   27.8497 C.3     1  UNL1        0.0609
     25 C           6.5974   -2.7917   28.9911 C.3     1  UNL1        0.0758
     26 N           7.1812   -3.3528   30.2538 N.3     1  UNL1       -0.2737
     27 C           7.4289   -4.8272   30.3750 C.3     1  UNL1        0.0758
     28 C           7.0928   -5.7406   29.2335 C.3     1  UNL1        0.0609
     29 C           7.5173   -2.4396   31.3952 C.3     1  UNL1        0.0576
     30 C           6.6684   -2.4411   32.6320 C.3     1  UNL1        0.0173
     31 C           8.7021   -1.5247   31.3000 C.3     1  UNL1        0.0173
@<TRIPOS>BOND
     1    20    21    1
     2    21     1    1
     3     1     2   ar
     4     2     3   ar
     5     3     4   ar
     6     4     7    1
     7     7     8    2
     8     7     9   am
     9     9    11    1
    10    11    12    1
    11    12    13   ar
    12    13    14   ar
    13    14    17    1
    14    17    18    1
    15    17    19    1
    16    14    15   ar
    17    15    16   ar
    18     4     5   ar
    19     5     6   ar
    20     6    22    1
    21    22    23    1
    22    23    24    1
    23    24    25    1
    24    25    26    1
    25    26    29    1
    26    29    30    1
    27    29    31    1
    28    26    27    1
    29    27    28    1
    30     6     1   ar
    31    28    23    1
    32    16    12   ar
    33     9    10    1
@<TRIPOS>MOLECULE
*****
 31 33 0 0 0
SMALL
GASTEIGER

@<TRIPOS>ATOM
      1 C           4.4251   -0.7084   18.1574 C.ar    1  UNL1        0.1724
      2 C           4.0525    0.7342   17.9840 C.ar    1  UNL1        0.0402
      3 C           2.8481    1.2874   18.6864 C.ar    1  UNL1        0.0078
      4 C           2.0162    0.3980   19.5621 C.ar    1  UNL1        0.0566
      5 C           2.3888   -1.0445   19.7355 C.ar    1  UNL1        0.0445
      6 C           3.5932   -1.5977   19.0332 C.ar    1  UNL1        0.1722
      7 C           0.8118    0.9513   20.2644 C.2     1  UNL1        0.2463
      8 O          -0.2131    0.0205   20.8418 O.2     1  UNL1       -0.2701
      9 N           0.6322    2.4352   20.3895 N.am    1  UNL1       -0.2943
     10 H           1.3049    3.0461   20.0106 H       1  UNL1        0.1501
     11 C          -0.5722    2.9884   21.0918 C.3     1  UNL1        0.1579
     12 C          -1.8119    3.3130   20.3121 C.ar    1  UNL1        0.1738
     13 C          -3.2215    3.2130   20.8152 C.ar    1  UNL1        0.0553
     14 C          -4.1403    3.6328   19.7064 C.ar    1  UNL1        0.1000
     15 N          -3.2986    3.9923   18.5180 N.ar    1  UNL1       -0.0817
     16 O          -1.8596    3.7946   18.8923 O.2     1  UNL1       -0.3563
     17 C          -5.6379    3.6842   19.7742 C.3     1  UNL1        0.0436
     18 C          -6.3155    4.2091   21.0052 C.3     1  UNL1        0.0064
     19 C          -6.4579    3.2106   18.6109 C.3     1  UNL1        0.0064
     20 C           6.9955   -1.0691   18.0441 C.3     1  UNL1        0.2526
     21 O           5.6295   -1.2616   17.4551 O.3     1  UNL1       -0.4684
     22 O           3.9658   -3.0404   19.2066 O.3     1  UNL1       -0.4760
     23 C           4.8398   -3.4568   20.3523 C.3     1  UNL1        0.1688
     24 C           6.2705   -3.8344   20.1056 C.3     1  UNL1        0.0609
     25 C           7.1445   -4.2507   21.2513 C.3     1  UNL1        0.0758
     26 N           6.5880   -4.2895   22.6437 N.3     1  UNL1       -0.2737
     27 C           5.1575   -3.9120   22.8904 C.3     1  UNL1        0.0758
     28 C           4.2833   -3.4956   21.7447 C.3     1  UNL1        0.0609
     29 C           7.4621   -4.7059   23.7893 C.3     1  UNL1        0.0576
     30 C           8.7312   -5.4618   23.5284 C.3     1  UNL1        0.0173
     31 C           7.0671   -4.3664   25.1960 C.3     1  UNL1        0.0173
@<TRIPOS>BOND
     1    20    21    1
     2    21     1    1
     3     1     2   ar
     4     2     3   ar
     5     3     4   ar
     6     4     7    1
     7     7     8    2
     8     7     9   am
     9     9    11    1
    10    11    12    1
    11    12    13   ar
    12    13    14   ar
    13    14    17    1
    14    17    18    1
    15    17    19    1
    16    14    15   ar
    17    15    16   ar
    18     4     5   ar
    19     5     6   ar
    20     6    22    1
    21    22    23    1
    22    23    24    1
    23    24    25    1
    24    25    26    1
    25    26    29    1
    26    29    30    1
    27    29    31    1
    28    26    27    1
    29    27    28    1
    30     6     1   ar
    31    28    23    1
    32    16    12   ar
    33     9    10    1
@<TRIPOS>MOLECULE
*****
 31 33 0 0 0
SMALL
GASTEIGER

@<TRIPOS>ATOM
      1 C           4.0001   -1.0599   31.4793 C.ar    1  UNL1        0.1724
      2 C           5.3444   -1.6364   31.1470 C.ar    1  UNL1        0.0402
      3 C           5.8079   -1.6853   29.7212 C.ar    1  UNL1        0.0078
      4 C           4.9270   -1.1577   28.6278 C.ar    1  UNL1        0.0566
      5 C           3.5827   -0.5812   28.9600 C.ar    1  UNL1        0.0445
      6 C           3.1193   -0.5323   30.3858 C.ar    1  UNL1        0.1722
      7 C           5.3905   -1.2067   27.2020 C.2     1  UNL1        0.2463
      8 O           6.1377   -0.0455   26.6160 O.2     1  UNL1       -0.2701
      9 N           5.1068   -2.4167   26.3622 N.am    1  UNL1       -0.2943
     10 H           4.6164   -3.1788   26.7469 H       1  UNL1        0.1501
     11 C           5.5703   -2.4657   24.9365 C.3     1  UNL1        0.1579
     12 C           4.6530   -2.0256   23.8342 C.ar    1  UNL1        0.1738
     13 C           4.7115   -2.4778   22.4051 C.ar    1  UNL1        0.0553
     14 C           3.6109   -1.7879   21.6551 C.ar    1  UNL1        0.1000
     15 N           2.8721   -0.9092   22.6206 N.ar    1  UNL1       -0.0817
     16 O           3.5162   -1.0562   23.9673 O.2     1  UNL1       -0.3563
     17 C           3.3031   -1.9484   20.1958 C.3     1  UNL1        0.0436
     18 C           3.5358   -3.2676   19.5209 C.3     1  UNL1        0.0064
     19 C           2.7626   -0.7896   19.4115 C.3     1  UNL1        0.0064
     20 C           4.2915   -1.7568   33.9651 C.3     1  UNL1        0.2526
     21 O           3.5366   -1.0109   32.9050 O.3     1  UNL1       -0.4684
     22 O           1.7749    0.0443   30.7181 O.3     1  UNL1       -0.4760
     23 C           0.9718    0.7350   29.6560 C.3     1  UNL1        0.1688
     24 C          -0.0108   -0.0443   28.8330 C.3     1  UNL1        0.0609
     25 C          -0.8139    0.6464   27.7710 C.3     1  UNL1        0.0758
     26 N          -0.6345    2.1163   27.5319 N.3     1  UNL1       -0.2737
     27 C           0.3481    2.8956   28.3549 C.3     1  UNL1        0.0758
     28 C           1.1513    2.2049   29.4170 C.3     1  UNL1        0.0609
     29 C          -1.4376    2.8070   26.4699 C.3     1  UNL1        0.0576
     30 C          -2.6649    3.5841   26.8441 C.3     1  UNL1        0.0173
     31 C          -1.0134    2.7206   25.0337 C.3     1  UNL1        0.0173
@<TRIPOS>BOND
     1    20    21    1
     2    21     1    1
     3     1     2   ar
     4     2     3   ar
     5     3     4   ar
     6     4     7    1
     7     7     8    2
     8     7     9   am
     9     9    11    1
    10    11    12    1
    11    12    13   ar
    12    13    14   ar
    13    14    17    1
    14    17    18    1
    15    17    19    1
    16    14    15   ar
    17    15    16   ar
    18     4     5   ar
    19     5     6   ar
    20     6    22    1
    21    22    23    1
    22    23    24    1
    23    24    25    1
    24    25    26    1
    25    26    29    1
    26    29    30    1
    27    29    31    1
    28    26    27    1
    29    27    28    1
    30     6     1   ar
    31    28    23    1
    32    16    12   ar
    33     9    10    1
@<TRIPOS>MOLECULE
*****
 31 33 0 0 0
SMALL
GASTEIGER

@<TRIPOS>ATOM
      1 C           1.1340    0.7014   29.5030 C.ar    1  UNL1        0.1724
      2 C           0.9602    1.3854   28.1794 C.ar    1  UNL1        0.0402
      3 C           1.8485    1.0239   27.0261 C.ar    1  UNL1        0.0078
      4 C           2.9106   -0.0215   27.1963 C.ar    1  UNL1        0.0566
      5 C           3.0844   -0.7054   28.5198 C.ar    1  UNL1        0.0445
      6 C           2.1961   -0.3440   29.6732 C.ar    1  UNL1        0.1722
      7 C           3.7989   -0.3829   26.0429 C.2     1  UNL1        0.2463
      8 O           4.4733    0.6962   25.2487 O.2     1  UNL1       -0.2701
      9 N           4.0129   -1.8234   25.6837 N.am    1  UNL1       -0.2943
     10 H           3.5703   -2.5317   26.2049 H       1  UNL1        0.1501
     11 C           4.9012   -2.1848   24.5303 C.3     1  UNL1        0.1579
     12 C           4.3661   -2.1427   23.1296 C.ar    1  UNL1        0.1738
     13 C           4.7718   -3.0466   22.0033 C.ar    1  UNL1        0.0553
     14 C           3.9878   -2.6519   20.7869 C.ar    1  UNL1        0.1000
     15 N           3.0976   -1.5041   21.1614 N.ar    1  UNL1       -0.0817
     16 O           3.3315   -1.1895   22.6093 O.2     1  UNL1       -0.3563
     17 C           4.0781   -3.2925   19.4336 C.3     1  UNL1        0.0436
     18 C           4.7303   -2.5596   18.2989 C.3     1  UNL1        0.0064
     19 C           3.5163   -4.6661   19.2150 C.3     1  UNL1        0.0064
     20 C           0.6022    2.2179   31.5444 C.3     1  UNL1        0.2526
     21 O           0.2456    1.0628   30.6564 O.3     1  UNL1       -0.4684
     22 O           2.3699   -1.0281   30.9969 O.3     1  UNL1       -0.4760
     23 C           3.5646   -0.7191   31.8496 C.3     1  UNL1        0.1688
     24 C           4.3193   -1.8318   32.5147 C.3     1  UNL1        0.0609
     25 C           5.5140   -1.5229   33.3674 C.3     1  UNL1        0.0758
     26 N           5.9541   -0.1012   33.5551 N.3     1  UNL1       -0.2737
     27 C           5.1994    1.0115   32.8901 C.3     1  UNL1        0.0758
     28 C           4.0046    0.7026   32.0373 C.3     1  UNL1        0.0609
     29 C           7.1488    0.2078   34.4078 C.3     1  UNL1        0.0576
     30 C           8.3832   -0.6382   34.3042 C.3     1  UNL1        0.0173
     31 C           7.1091    1.3627   35.3642 C.3     1  UNL1        0.0173
@<TRIPOS>BOND
     1    20    21    1
     2    21     1    1
     3     1     2   ar
     4     2     3   ar
     5     3     4   ar
     6     4     7    1
     7     7     8    2
     8     7     9   am
     9     9    11    1
    10    11    12    1
    11    12    13   ar
    12    13    14   ar
    13    14    17    1
    14    17    18    1
    15    17    19    1
    16    14    15   ar
    17    15    16   ar
    18     4     5   ar
    19     5     6   ar
    20     6    22    1
    21    22    23    1
    22    23    24    1
    23    24    25    1
    24    25    26    1
    25    26    29    1
    26    29    30    1
    27    29    31    1
    28    26    27    1
    29    27    28    1
    30     6     1   ar
    31    28    23    1
    32    16    12   ar
    33     9    10    1
@<TRIPOS>MOLECULE
*****
 31 33 0 0 0
SMALL
GASTEIGER

@<TRIPOS>ATOM
      1 C           3.7846   -0.7905   29.4690 C.ar    1  UNL1        0.1724
      2 C           5.2760   -0.7839   29.6282 C.ar    1  UNL1        0.0402
      3 C           5.8938   -0.2467   30.8851 C.ar    1  UNL1        0.0078
      4 C           5.0201    0.2839   31.9828 C.ar    1  UNL1        0.0566
      5 C           3.5286    0.2773   31.8236 C.ar    1  UNL1        0.0445
      6 C           2.9109   -0.2599   30.5667 C.ar    1  UNL1        0.1722
      7 C           5.6379    0.8210   33.2397 C.2     1  UNL1        0.2463
      8 O           7.1254    0.9913   33.3309 O.2     1  UNL1       -0.2701
      9 N           4.7682    1.1879   34.4054 N.am    1  UNL1       -0.2943
     10 H           3.7919    1.0762   34.3456 H       1  UNL1        0.1501
     11 C           5.3860    1.7251   35.6623 C.3     1  UNL1        0.1579
     12 C           4.6267    1.6684   36.9548 C.ar    1  UNL1        0.1738
     13 C           3.1660    1.3631   37.1066 C.ar    1  UNL1        0.0553
     14 C           2.8313    1.4130   38.5679 C.ar    1  UNL1        0.1000
     15 N           4.0853    1.7492   39.3193 N.ar    1  UNL1       -0.0817
     16 O           5.1949    1.9070   38.3223 O.2     1  UNL1       -0.3563
     17 C           1.4801    1.1695   39.1718 C.3     1  UNL1        0.0436
     18 C           0.4845    2.2882   39.2581 C.3     1  UNL1        0.0064
     19 C           1.1243   -0.1926   39.6894 C.3     1  UNL1        0.0064
     20 C           3.5680   -0.7668   26.8801 C.3     1  UNL1        0.2526
     21 O           3.1668   -1.3277   28.2121 O.3     1  UNL1       -0.4684
     22 O           1.4193   -0.2665   30.4076 O.3     1  UNL1       -0.4760
     23 C           0.7612    0.6984   29.4664 C.3     1  UNL1        0.1688
     24 C          -0.3703    0.2416   28.5939 C.3     1  UNL1        0.0609
     25 C          -1.0284    1.2065   27.6527 C.3     1  UNL1        0.0758
     26 N          -0.5550    2.6282   27.5839 N.3     1  UNL1       -0.2737
     27 C           0.5764    3.0850   28.4563 C.3     1  UNL1        0.0758
     28 C           1.2346    2.1201   29.3975 C.3     1  UNL1        0.0609
     29 C          -1.2131    3.5930   26.6427 C.3     1  UNL1        0.0576
     30 C          -1.5768    3.1567   25.2543 C.3     1  UNL1        0.0173
     31 C          -1.5075    4.9943   27.0897 C.3     1  UNL1        0.0173
@<TRIPOS>BOND
     1    20    21    1
     2    21     1    1
     3     1     2   ar
     4     2     3   ar
     5     3     4   ar
     6     4     7    1
     7     7     8    2
     8     7     9   am
     9     9    11    1
    10    11    12    1
    11    12    13   ar
    12    13    14   ar
    13    14    17    1
    14    17    18    1
    15    17    19    1
    16    14    15   ar
    17    15    16   ar
    18     4     5   ar
    19     5     6   ar
    20     6    22    1
    21    22    23    1
    22    23    24    1
    23    24    25    1
    24    25    26    1
    25    26    29    1
    26    29    30    1
    27    29    31    1
    28    26    27    1
    29    27    28    1
    30     6     1   ar
    31    28    23    1
    32    16    12   ar
    33     9    10    1
@<TRIPOS>MOLECULE
*****
 31 33 0 0 0
SMALL
GASTEIGER

@<TRIPOS>ATOM
      1 C          -8.7166  -20.6124   18.7250 C.ar    1  UNL1        0.1724
      2 C         -10.0889  -20.0100   18.7873 C.ar    1  UNL1        0.0402
      3 C         -10.4759  -19.1443   19.9495 C.ar    1  UNL1        0.0078
      4 C          -9.4907  -18.8811   21.0495 C.ar    1  UNL1        0.0566
      5 C          -8.1185  -19.4835   20.9872 C.ar    1  UNL1        0.0445
      6 C          -7.7314  -20.3492   19.8250 C.ar    1  UNL1        0.1722
      7 C          -9.8778  -18.0154   22.2117 C.2     1  UNL1        0.2463
      8 O         -10.0408  -16.5362   22.0236 O.2     1  UNL1       -0.2701
      9 N         -10.1018  -18.6288   23.5620 N.am    1  UNL1       -0.2943
     10 H          -9.9948  -19.5997   23.6855 H       1  UNL1        0.1501
     11 C         -10.4888  -17.7631   24.7242 C.3     1  UNL1        0.1579
     12 C          -9.4318  -17.2201   25.6397 C.ar    1  UNL1        0.1738
     13 C          -8.3414  -16.2634   25.2578 C.ar    1  UNL1        0.0553
     14 C          -7.5154  -15.9903   26.4798 C.ar    1  UNL1        0.1000
     15 N          -8.0953  -16.7783   27.6168 N.ar    1  UNL1       -0.0817
     16 O          -9.2797  -17.5383   27.0976 O.2     1  UNL1       -0.3563
     17 C          -6.3195  -15.0879   26.5520 C.3     1  UNL1        0.0436
     18 C          -5.2200  -15.2172   25.5398 C.3     1  UNL1        0.0064
     19 C          -6.2230  -14.0560   27.6364 C.3     1  UNL1        0.0064
     20 C          -9.2022  -21.5315   16.3439 C.3     1  UNL1        0.2526
     21 O          -8.3296  -21.4781   17.5628 O.3     1  UNL1       -0.4684
     22 O          -6.3591  -20.9517   19.7628 O.3     1  UNL1       -0.4760
     23 C          -5.1517  -20.0931   19.9977 C.3     1  UNL1        0.1688
     24 C          -4.2168  -20.4068   21.1281 C.3     1  UNL1        0.0609
     25 C          -3.0095  -19.5483   21.3631 C.3     1  UNL1        0.0758
     26 N          -2.7370  -18.3761   20.4678 N.3     1  UNL1       -0.2737
     27 C          -3.6719  -18.0623   19.3375 C.3     1  UNL1        0.0758
     28 C          -4.8793  -18.9209   19.1024 C.3     1  UNL1        0.0609
     29 C          -1.5297  -17.5176   20.7027 C.3     1  UNL1        0.0576
     30 C          -0.2135  -17.8895   20.0868 C.3     1  UNL1        0.0173
     31 C          -1.6385  -16.2870   21.5536 C.3     1  UNL1        0.0173
@<TRIPOS>BOND
     1    20    21    1
     2    21     1    1
     3     1     2   ar
     4     2     3   ar
     5     3     4   ar
     6     4     7    1
     7     7     8    2
     8     7     9   am
     9     9    11    1
    10    11    12    1
    11    12    13   ar
    12    13    14   ar
    13    14    17    1
    14    17    18    1
    15    17    19    1
    16    14    15   ar
    17    15    16   ar
    18     4     5   ar
    19     5     6   ar
    20     6    22    1
    21    22    23    1
    22    23    24    1
    23    24    25    1
    24    25    26    1
    25    26    29    1
    26    29    30    1
    27    29    31    1
    28    26    27    1
    29    27    28    1
    30     6     1   ar
    31    28    23    1
    32    16    12   ar
    33     9    10    1
