@<TRIPOS>MOLECULE
*****
 43 46 0 0 0
SMALL
GASTEIGER

@<TRIPOS>ATOM
      1 N           5.7180   -3.5523   24.5134 N.am    1  UNL1       -0.2825
      2 C           7.1846   -3.3103   24.7141 C.2     1  UNL1        0.2461
      3 O           7.9868   -2.6340   23.6420 O.2     1  UNL1       -0.2729
      4 H           5.1915   -3.9961   25.2170 H       1  UNL1        0.1549
      5 C           3.7243   -2.2496   20.6951 C.ar    1  UNL1       -0.0022
      6 C           3.6348   -1.3881   21.9198 C.ar    1  UNL1       -0.0017
      7 C           4.2993   -1.8223   23.1925 C.ar    1  UNL1        0.0144
      8 C           5.0534   -3.1181   23.2406 C.ar    1  UNL1        0.0503
      9 C           5.1430   -3.9796   22.0160 C.ar    1  UNL1        0.0182
     10 C           4.4784   -3.5454   20.7432 C.ar    1  UNL1        0.0700
     11 C           4.5680   -4.4070   19.5186 C.3     1  UNL1        0.4184
     12 F           4.6575   -5.2685   18.2940 F       1  UNL1       -0.1659
     13 F           5.7953   -3.6619   19.0842 F       1  UNL1       -0.1659
     14 F           3.3407   -5.1520   19.9530 F       1  UNL1       -0.1659
     15 C           3.0598   -1.8154   19.4224 C.3     1  UNL1        0.0992
     16 N           0.6041    1.9545   19.3391 N.3     1  UNL1       -0.2703
     17 C           0.1392    0.7742   20.1394 C.3     1  UNL1        0.0897
     18 C           0.9578   -0.4825   20.1672 C.3     1  UNL1        0.0899
     19 N           2.2412   -0.5588   19.3946 N.3     1  UNL1       -0.2665
     20 C           2.7061    0.6216   18.5943 C.3     1  UNL1        0.0899
     21 C           1.8875    1.8782   18.5665 C.3     1  UNL1        0.0897
     22 C          -0.4917    3.8970   18.0065 C.3     1  UNL1        0.0188
     23 C          -0.2145    3.2112   19.3113 C.3     1  UNL1        0.0722
     24 C           7.8491   -3.7445   25.9868 C.3     1  UNL1        0.1739
     25 N           7.0781   -4.5315   27.0048 N.pl3   1  UNL1       -0.3253
     26 H           6.7918   -5.4514   26.8021 H       1  UNL1        0.1473
     27 C           6.7434   -3.9170   28.3315 C.ar    1  UNL1        0.0450
     28 C           6.1651   -2.5343   28.3931 C.ar    1  UNL1        0.0143
     29 C           5.8303   -1.9197   29.7198 C.ar    1  UNL1        0.0013
     30 C           6.0738   -2.6879   30.9850 C.ar    1  UNL1        0.0016
     31 C           6.6521   -4.0706   30.9234 C.ar    1  UNL1        0.0013
     32 C           6.9869   -4.6851   29.5967 C.ar    1  UNL1        0.0143
     33 C           5.7390   -2.0734   32.3117 C.ar    1  UNL1        0.0193
     34 C           6.7047   -1.1306   32.9667 C.ar    1  UNL1        0.0044
     35 C           6.3699   -0.5161   34.2934 C.ar    1  UNL1        0.0345
     36 C           5.0695   -0.8443   34.9653 C.ar    1  UNL1        0.1342
     37 N           4.1040   -1.7870   34.3104 N.ar    1  UNL1       -0.2290
     38 C           4.4387   -2.4015   32.9836 C.ar    1  UNL1        0.1003
     39 N           4.7348   -0.2298   36.2920 N.am    1  UNL1       -0.2693
     40 C           3.9739    1.0617   36.3498 C.2     1  UNL1        0.2277
     41 C           3.6391    1.6762   37.6765 C.3     1  UNL1        0.0950
     42 O           3.5478    1.7385   35.0808 O.2     1  UNL1       -0.2747
     43 H           5.0145   -0.6740   37.1249 H       1  UNL1        0.1563
@<TRIPOS>BOND
     1    22    23    1
     2    23    16    1
     3    16    17    1
     4    17    18    1
     5    18    19    1
     6    19    15    1
     7    15     5    1
     8     5     6   ar
     9     6     7   ar
    10     7     8   ar
    11     8     1    1
    12     1     2   am
    13     2     3    2
    14     2    24    1
    15    24    25    1
    16    25    27    1
    17    27    28   ar
    18    28    29   ar
    19    29    30   ar
    20    30    33    1
    21    33    34   ar
    22    34    35   ar
    23    35    36   ar
    24    36    39    1
    25    39    40   am
    26    40    41    1
    27    40    42    2
    28    36    37   ar
    29    37    38   ar
    30    30    31   ar
    31    31    32   ar
    32     8     9   ar
    33     9    10   ar
    34    10    11    1
    35    11    12    1
    36    11    13    1
    37    11    14    1
    38    19    20    1
    39    20    21    1
    40    21    16    1
    41    10     5   ar
    42    32    27   ar
    43    38    33   ar
    44     1     4    1
    45    25    26    1
    46    39    43    1
@<TRIPOS>MOLECULE
*****
 43 46 0 0 0
SMALL
GASTEIGER

@<TRIPOS>ATOM
      1 N           6.1030   -3.9438   24.4717 N.am    1  UNL1       -0.2825
      2 C           6.8366   -5.1829   24.8918 C.2     1  UNL1        0.2461
      3 O           7.5886   -5.9902   23.8755 O.2     1  UNL1       -0.2729
      4 H           5.6094   -3.4140   25.1387 H       1  UNL1        0.1549
      5 C           6.1582   -2.6484   20.1624 C.ar    1  UNL1       -0.0022
      6 C           7.2673   -2.2354   21.0841 C.ar    1  UNL1       -0.0017
      7 C           7.2489   -2.6672   22.5204 C.ar    1  UNL1        0.0144
      8 C           6.1214   -3.5120   23.0352 C.ar    1  UNL1        0.0503
      9 C           5.0123   -3.9250   22.1137 C.ar    1  UNL1        0.0182
     10 C           5.0307   -3.4932   20.6772 C.ar    1  UNL1        0.0700
     11 C           3.9216   -3.9061   19.7557 C.3     1  UNL1        0.4184
     12 F           2.8125   -4.3191   18.8341 F       1  UNL1       -0.1659
     13 F           4.6980   -5.1302   19.3698 F       1  UNL1       -0.1659
     14 F           3.1452   -2.6821   20.1415 F       1  UNL1       -0.1659
     15 C           6.1766   -2.2165   18.7261 C.3     1  UNL1        0.0992
     16 N           5.5864    2.1183   17.6720 N.3     1  UNL1       -0.2703
     17 C           6.9375    1.4857   17.5159 C.3     1  UNL1        0.0897
     18 C           7.1342    0.0407   17.8673 C.3     1  UNL1        0.0899
     19 N           5.9799   -0.7716   18.3747 N.3     1  UNL1       -0.2665
     20 C           4.6288   -0.1390   18.5308 C.3     1  UNL1        0.0899
     21 C           4.4321    1.3059   18.1794 C.3     1  UNL1        0.0897
     22 C           4.0980    4.2476   17.6567 C.3     1  UNL1        0.0188
     23 C           5.3897    3.5632   17.3206 C.3     1  UNL1        0.0722
     24 C           6.8182   -5.6146   26.3281 C.3     1  UNL1        0.1739
     25 N           7.8180   -5.0506   27.2938 N.pl3   1  UNL1       -0.3253
     26 H           8.7815   -5.1335   27.1093 H       1  UNL1        0.1473
     27 C           7.3497   -4.3602   28.5404 C.ar    1  UNL1        0.0450
     28 C           7.2454   -5.1244   29.8268 C.ar    1  UNL1        0.0143
     29 C           6.7772   -4.4340   31.0735 C.ar    1  UNL1        0.0013
     30 C           6.4133   -2.9794   31.0337 C.ar    1  UNL1        0.0016
     31 C           6.5176   -2.2151   29.7471 C.ar    1  UNL1        0.0013
     32 C           6.9858   -2.9055   28.5005 C.ar    1  UNL1        0.0143
     33 C           5.9451   -2.2890   32.2803 C.ar    1  UNL1        0.0193
     34 C           6.8426   -1.3102   32.9778 C.ar    1  UNL1        0.0044
     35 C           6.3744   -0.6198   34.2244 C.ar    1  UNL1        0.0345
     36 C           5.0086   -0.9081   34.7735 C.ar    1  UNL1        0.1342
     37 N           4.1111   -1.8868   34.0761 N.ar    1  UNL1       -0.2290
     38 C           4.5793   -2.5772   32.8294 C.ar    1  UNL1        0.1003
     39 N           4.5404   -0.2177   36.0202 N.am    1  UNL1       -0.2693
     40 C           4.0010    1.1800   35.9459 C.2     1  UNL1        0.2277
     41 C           3.5328    1.8704   37.1925 C.3     1  UNL1        0.0950
     42 O           3.9298    1.8873   34.6250 O.2     1  UNL1       -0.2747
     43 H           4.5871   -0.6819   36.8871 H       1  UNL1        0.1563
@<TRIPOS>BOND
     1    22    23    1
     2    23    16    1
     3    16    17    1
     4    17    18    1
     5    18    19    1
     6    19    15    1
     7    15     5    1
     8     5     6   ar
     9     6     7   ar
    10     7     8   ar
    11     8     1    1
    12     1     2   am
    13     2     3    2
    14     2    24    1
    15    24    25    1
    16    25    27    1
    17    27    28   ar
    18    28    29   ar
    19    29    30   ar
    20    30    33    1
    21    33    34   ar
    22    34    35   ar
    23    35    36   ar
    24    36    39    1
    25    39    40   am
    26    40    41    1
    27    40    42    2
    28    36    37   ar
    29    37    38   ar
    30    30    31   ar
    31    31    32   ar
    32     8     9   ar
    33     9    10   ar
    34    10    11    1
    35    11    12    1
    36    11    13    1
    37    11    14    1
    38    19    20    1
    39    20    21    1
    40    21    16    1
    41    10     5   ar
    42    32    27   ar
    43    38    33   ar
    44     1     4    1
    45    25    26    1
    46    39    43    1
@<TRIPOS>MOLECULE
*****
 43 46 0 0 0
SMALL
GASTEIGER

@<TRIPOS>ATOM
      1 N           6.4300   -5.0041   26.4869 N.am    1  UNL1       -0.2825
      2 C           7.5706   -5.0979   25.5173 C.2     1  UNL1        0.2461
      3 O           8.9599   -4.7425   25.9569 O.2     1  UNL1       -0.2729
      4 H           5.5181   -5.2374   26.1984 H       1  UNL1        0.1549
      5 C           7.1764   -3.6559   30.7149 C.ar    1  UNL1       -0.0022
      6 C           6.5995   -2.6996   29.7135 C.ar    1  UNL1       -0.0017
      7 C           6.3508   -3.1490   28.3042 C.ar    1  UNL1        0.0144
      8 C           6.6788   -4.5547   27.8963 C.ar    1  UNL1        0.0503
      9 C           7.2556   -5.5110   28.8976 C.ar    1  UNL1        0.0182
     10 C           7.5044   -5.0616   30.3070 C.ar    1  UNL1        0.0700
     11 C           8.0812   -6.0179   31.3083 C.3     1  UNL1        0.4184
     12 F           8.6580   -6.9743   32.3097 F       1  UNL1       -0.1659
     13 F           6.7139   -6.2405   31.8834 F       1  UNL1       -0.1659
     14 F           9.4486   -5.7953   30.7333 F       1  UNL1       -0.1659
     15 C           7.4251   -3.2066   32.1242 C.3     1  UNL1        0.0992
     16 N           4.8320   -0.0202   33.9607 N.3     1  UNL1       -0.2703
     17 C           6.2619    0.2800   33.6211 C.3     1  UNL1        0.0897
     18 C           7.1263   -0.7821   33.0090 C.3     1  UNL1        0.0899
     19 N           6.5608   -2.1444   32.7364 N.3     1  UNL1       -0.2665
     20 C           5.1309   -2.4446   33.0760 C.3     1  UNL1        0.0899
     21 C           4.2665   -1.3824   33.6881 C.3     1  UNL1        0.0897
     22 C           2.9011    1.7056   33.7532 C.3     1  UNL1        0.0188
     23 C           3.9677    1.0420   34.5729 C.3     1  UNL1        0.0722
     24 C           7.3217   -5.5473   24.1080 C.3     1  UNL1        0.1739
     25 N           7.7341   -4.6756   22.9589 N.pl3   1  UNL1       -0.3253
     26 H           8.6732   -4.6619   22.6637 H       1  UNL1        0.1473
     27 C           6.7157   -3.8248   22.2598 C.ar    1  UNL1        0.0450
     28 C           5.4352   -3.4653   22.9535 C.ar    1  UNL1        0.0143
     29 C           4.4167   -2.6144   22.2543 C.ar    1  UNL1        0.0013
     30 C           4.6787   -2.1230   20.8615 C.ar    1  UNL1        0.0016
     31 C           5.9592   -2.4825   20.1679 C.ar    1  UNL1        0.0013
     32 C           6.9777   -3.3334   20.8670 C.ar    1  UNL1        0.0143
     33 C           3.6603   -1.2722   20.1624 C.ar    1  UNL1        0.0193
     34 C           2.2646   -1.1760   20.7035 C.ar    1  UNL1        0.0044
     35 C           1.2461   -0.3251   20.0044 C.ar    1  UNL1        0.0345
     36 C           1.6234    0.4295   18.7641 C.ar    1  UNL1        0.1342
     37 N           3.0190    0.3333   18.2230 N.ar    1  UNL1       -0.2290
     38 C           4.0375   -0.5175   18.9222 C.ar    1  UNL1        0.1003
     39 N           0.6049    1.2804   18.0650 N.am    1  UNL1       -0.2693
     40 C           0.4685    2.7313   18.4203 C.2     1  UNL1        0.2277
     41 C          -0.5499    3.5821   17.7212 C.3     1  UNL1        0.0950
     42 O           1.3505    3.3313   19.4749 O.2     1  UNL1       -0.2747
     43 H           0.0260    0.8865   17.3729 H       1  UNL1        0.1563
@<TRIPOS>BOND
     1    22    23    1
     2    23    16    1
     3    16    17    1
     4    17    18    1
     5    18    19    1
     6    19    15    1
     7    15     5    1
     8     5     6   ar
     9     6     7   ar
    10     7     8   ar
    11     8     1    1
    12     1     2   am
    13     2     3    2
    14     2    24    1
    15    24    25    1
    16    25    27    1
    17    27    28   ar
    18    28    29   ar
    19    29    30   ar
    20    30    33    1
    21    33    34   ar
    22    34    35   ar
    23    35    36   ar
    24    36    39    1
    25    39    40   am
    26    40    41    1
    27    40    42    2
    28    36    37   ar
    29    37    38   ar
    30    30    31   ar
    31    31    32   ar
    32     8     9   ar
    33     9    10   ar
    34    10    11    1
    35    11    12    1
    36    11    13    1
    37    11    14    1
    38    19    20    1
    39    20    21    1
    40    21    16    1
    41    10     5   ar
    42    32    27   ar
    43    38    33   ar
    44     1     4    1
    45    25    26    1
    46    39    43    1
@<TRIPOS>MOLECULE
*****
 43 46 0 0 0
SMALL
GASTEIGER

@<TRIPOS>ATOM
      1 N           8.1689   -4.0027   30.8150 N.am    1  UNL1       -0.2825
      2 C           7.9958   -5.4766   31.0330 C.2     1  UNL1        0.2461
      3 O           6.6663   -6.0196   31.4661 O.2     1  UNL1       -0.2729
      4 H           9.0415   -3.6463   30.5307 H       1  UNL1        0.1549
      5 C           4.6998   -1.2099   31.4601 C.ar    1  UNL1       -0.0022
      6 C           5.1899   -1.4886   30.0700 C.ar    1  UNL1       -0.0017
      7 C           6.3463   -2.4195   29.8550 C.ar    1  UNL1        0.0144
      8 C           7.0125   -3.0717   31.0300 C.ar    1  UNL1        0.0503
      9 C           6.5225   -2.7931   32.4200 C.ar    1  UNL1        0.0182
     10 C           5.3661   -1.8622   32.6351 C.ar    1  UNL1        0.0700
     11 C           4.8760   -1.5835   34.0251 C.3     1  UNL1        0.4184
     12 F           4.3859   -1.3049   35.4151 F       1  UNL1       -0.1659
     13 F           3.9940   -2.7949   33.9569 F       1  UNL1       -0.1659
     14 F           5.7580   -0.3722   34.0932 F       1  UNL1       -0.1659
     15 C           3.5435   -0.2790   31.6751 C.3     1  UNL1        0.0992
     16 N           1.4785    1.5969   28.1442 N.3     1  UNL1       -0.2703
     17 C           1.1145    0.2069   28.5744 C.3     1  UNL1        0.0897
     18 C           1.8028   -0.4184   29.7514 C.3     1  UNL1        0.0899
     19 N           2.8552    0.3463   30.4981 N.3     1  UNL1       -0.2665
     20 C           3.2192    1.7364   30.0679 C.3     1  UNL1        0.0899
     21 C           2.5309    2.3617   28.8910 C.3     1  UNL1        0.0897
     22 C          -0.6417    1.8878   26.6711 C.3     1  UNL1        0.0188
     23 C           0.7902    2.2223   26.9673 C.3     1  UNL1        0.0722
     24 C           9.1522   -6.4074   30.8179 C.3     1  UNL1        0.1739
     25 N           9.2516   -7.1990   29.5476 N.pl3   1  UNL1       -0.3253
     26 H           9.5858   -8.1248   29.5694 H       1  UNL1        0.1473
     27 C           8.8419   -6.5800   28.2442 C.ar    1  UNL1        0.0450
     28 C           9.5332   -5.3436   27.7511 C.ar    1  UNL1        0.0143
     29 C           9.1235   -4.7245   26.4476 C.ar    1  UNL1        0.0013
     30 C           8.0225   -5.3420   25.6373 C.ar    1  UNL1        0.0016
     31 C           7.3312   -6.5785   26.1305 C.ar    1  UNL1        0.0013
     32 C           7.7409   -7.1975   27.4339 C.ar    1  UNL1        0.0143
     33 C           7.6128   -4.7230   24.3339 C.ar    1  UNL1        0.0193
     34 C           8.3562   -5.0623   23.0759 C.ar    1  UNL1        0.0044
     35 C           7.9465   -4.4433   21.7725 C.ar    1  UNL1        0.0345
     36 C           6.7934   -3.4850   21.7270 C.ar    1  UNL1        0.1342
     37 N           6.0500   -3.1457   22.9848 N.ar    1  UNL1       -0.2290
     38 C           6.4597   -3.7647   24.2883 C.ar    1  UNL1        0.1003
     39 N           6.3837   -2.8660   20.4235 N.am    1  UNL1       -0.2693
     40 C           5.5520   -3.6480   19.4505 C.2     1  UNL1        0.2277
     41 C           5.1423   -3.0290   18.1470 C.3     1  UNL1        0.0950
     42 O           5.1300   -5.0490   19.7809 O.2     1  UNL1       -0.2747
     43 H           6.6606   -1.9465   20.2067 H       1  UNL1        0.1563
@<TRIPOS>BOND
     1    22    23    1
     2    23    16    1
     3    16    17    1
     4    17    18    1
     5    18    19    1
     6    19    15    1
     7    15     5    1
     8     5     6   ar
     9     6     7   ar
    10     7     8   ar
    11     8     1    1
    12     1     2   am
    13     2     3    2
    14     2    24    1
    15    24    25    1
    16    25    27    1
    17    27    28   ar
    18    28    29   ar
    19    29    30   ar
    20    30    33    1
    21    33    34   ar
    22    34    35   ar
    23    35    36   ar
    24    36    39    1
    25    39    40   am
    26    40    41    1
    27    40    42    2
    28    36    37   ar
    29    37    38   ar
    30    30    31   ar
    31    31    32   ar
    32     8     9   ar
    33     9    10   ar
    34    10    11    1
    35    11    12    1
    36    11    13    1
    37    11    14    1
    38    19    20    1
    39    20    21    1
    40    21    16    1
    41    10     5   ar
    42    32    27   ar
    43    38    33   ar
    44     1     4    1
    45    25    26    1
    46    39    43    1
@<TRIPOS>MOLECULE
*****
 43 46 0 0 0
SMALL
GASTEIGER

@<TRIPOS>ATOM
      1 N           6.1058   -2.6413   30.9583 N.am    1  UNL1       -0.2825
      2 C           6.5950   -4.0574   30.8860 C.2     1  UNL1        0.2461
      3 O           6.7798   -4.8523   32.1446 O.2     1  UNL1       -0.2729
      4 H           5.9845   -2.1196   30.1322 H       1  UNL1        0.1549
      5 C           5.1924   -0.7774   34.9511 C.ar    1  UNL1       -0.0022
      6 C           4.2139   -1.7265   34.3249 C.ar    1  UNL1       -0.0017
      7 C           4.5184   -2.3477   32.9940 C.ar    1  UNL1        0.0144
      8 C           5.8013   -2.0200   32.2892 C.ar    1  UNL1        0.0503
      9 C           6.7798   -1.0710   32.9153 C.ar    1  UNL1        0.0182
     10 C           6.4753   -0.4497   34.2463 C.ar    1  UNL1        0.0700
     11 C           7.4538    0.4993   34.8724 C.3     1  UNL1        0.4184
     12 F           8.4322    1.4482   35.4985 F       1  UNL1       -0.1659
     13 F           6.7840    1.6479   34.1781 F       1  UNL1       -0.1659
     14 F           8.1235   -0.6493   35.5667 F       1  UNL1       -0.1659
     15 C           4.8879   -0.1562   36.2819 C.3     1  UNL1        0.0992
     16 N           2.1316    3.3922   36.5309 N.3     1  UNL1       -0.2703
     17 C           2.5231    2.6576   37.7787 C.3     1  UNL1        0.0897
     18 C           3.4419    1.4748   37.6957 C.3     1  UNL1        0.0899
     19 N           3.9691    1.0266   36.3649 N.3     1  UNL1       -0.2665
     20 C           3.5776    1.7612   35.1171 C.3     1  UNL1        0.0899
     21 C           2.6588    2.9439   35.2001 C.3     1  UNL1        0.0897
     22 C           1.0235    5.4628   35.4198 C.3     1  UNL1        0.0188
     23 C           1.2128    4.5749   36.6139 C.3     1  UNL1        0.0722
     24 C           6.8994   -4.6787   29.5551 C.3     1  UNL1        0.1739
     25 N           7.6902   -3.9152   28.5343 N.pl3   1  UNL1       -0.3253
     26 H           8.5876   -3.5780   28.7583 H       1  UNL1        0.1473
     27 C           7.1136   -3.6655   27.1723 C.ar    1  UNL1        0.0450
     28 C           7.2875   -4.6850   26.0858 C.ar    1  UNL1        0.0143
     29 C           6.7109   -4.4354   24.7237 C.ar    1  UNL1        0.0013
     30 C           5.9604   -3.1662   24.4481 C.ar    1  UNL1        0.0016
     31 C           5.7865   -2.1467   25.5346 C.ar    1  UNL1        0.0013
     32 C           6.3631   -2.3963   26.8966 C.ar    1  UNL1        0.0143
     33 C           5.3838   -2.9165   23.0861 C.ar    1  UNL1        0.0193
     34 C           4.2006   -2.0082   22.9275 C.ar    1  UNL1        0.0044
     35 C           3.6240   -1.7585   21.5655 C.ar    1  UNL1        0.0345
     36 C           4.2306   -2.4171   20.3620 C.ar    1  UNL1        0.1342
     37 N           5.4137   -3.3254   20.5205 N.ar    1  UNL1       -0.2290
     38 C           5.9904   -3.5751   21.8826 C.ar    1  UNL1        0.1003
     39 N           3.6540   -2.1674   19.0000 N.am    1  UNL1       -0.2693
     40 C           4.2798   -1.1468   18.0961 C.2     1  UNL1        0.2277
     41 C           3.7032   -0.8971   16.7341 C.3     1  UNL1        0.0950
     42 O           5.4821   -0.3759   18.5544 O.2     1  UNL1       -0.2747
     43 H           2.8648   -2.6734   18.6992 H       1  UNL1        0.1563
@<TRIPOS>BOND
     1    22    23    1
     2    23    16    1
     3    16    17    1
     4    17    18    1
     5    18    19    1
     6    19    15    1
     7    15     5    1
     8     5     6   ar
     9     6     7   ar
    10     7     8   ar
    11     8     1    1
    12     1     2   am
    13     2     3    2
    14     2    24    1
    15    24    25    1
    16    25    27    1
    17    27    28   ar
    18    28    29   ar
    19    29    30   ar
    20    30    33    1
    21    33    34   ar
    22    34    35   ar
    23    35    36   ar
    24    36    39    1
    25    39    40   am
    26    40    41    1
    27    40    42    2
    28    36    37   ar
    29    37    38   ar
    30    30    31   ar
    31    31    32   ar
    32     8     9   ar
    33     9    10   ar
    34    10    11    1
    35    11    12    1
    36    11    13    1
    37    11    14    1
    38    19    20    1
    39    20    21    1
    40    21    16    1
    41    10     5   ar
    42    32    27   ar
    43    38    33   ar
    44     1     4    1
    45    25    26    1
    46    39    43    1
@<TRIPOS>MOLECULE
*****
 43 46 0 0 0
SMALL
GASTEIGER

@<TRIPOS>ATOM
      1 N           6.2279   -3.8053   30.8733 N.am    1  UNL1       -0.2825
      2 C           7.2524   -3.9468   29.7869 C.2     1  UNL1        0.2461
      3 O           8.1686   -2.8032   29.4664 O.2     1  UNL1       -0.2729
      4 H           5.6266   -4.5559   31.0836 H       1  UNL1        0.1549
      5 C           5.9027    0.0501   33.1712 C.ar    1  UNL1       -0.0022
      6 C           7.0084   -0.9157   33.4792 C.ar    1  UNL1       -0.0017
      7 C           7.1168   -2.2008   32.7133 C.ar    1  UNL1        0.0144
      8 C           6.1195   -2.5201   31.6393 C.ar    1  UNL1        0.0503
      9 C           5.0139   -1.5544   31.3312 C.ar    1  UNL1        0.0182
     10 C           4.9055   -0.2692   32.0972 C.ar    1  UNL1        0.0700
     11 C           3.7999    0.6965   31.7891 C.3     1  UNL1        0.4184
     12 F           2.6943    1.6622   31.4811 F       1  UNL1       -0.1659
     13 F           4.6584    1.3462   30.7447 F       1  UNL1       -0.1659
     14 F           2.9414    0.0468   32.8336 F       1  UNL1       -0.1659
     15 C           5.7944    1.3352   33.9372 C.3     1  UNL1        0.0992
     16 N           3.0233    1.6214   37.4712 N.3     1  UNL1       -0.2703
     17 C           2.7914    2.4819   36.2647 C.3     1  UNL1        0.0897
     18 C           3.7151    2.3865   35.0867 C.3     1  UNL1        0.0899
     19 N           4.8707    1.4306   35.1152 N.3     1  UNL1       -0.2665
     20 C           5.1026    0.5702   36.3217 C.3     1  UNL1        0.0899
     21 C           4.1789    0.6656   37.4997 C.3     1  UNL1        0.0897
     22 C           1.4111    0.4876   39.1639 C.3     1  UNL1        0.0188
     23 C           2.0997    1.7168   38.6492 C.3     1  UNL1        0.0722
     24 C           7.3608   -5.2319   29.0210 C.3     1  UNL1        0.1739
     25 N           8.2660   -5.3201   27.8281 N.pl3   1  UNL1       -0.3253
     26 H           9.1967   -5.6217   27.9377 H       1  UNL1        0.1473
     27 C           7.7532   -4.9487   26.4684 C.ar    1  UNL1        0.0450
     28 C           6.8764   -3.7432   26.3010 C.ar    1  UNL1        0.0143
     29 C           6.3634   -3.3718   24.9412 C.ar    1  UNL1        0.0013
     30 C           6.7274   -4.2059   23.7488 C.ar    1  UNL1        0.0016
     31 C           7.6042   -5.4114   23.9162 C.ar    1  UNL1        0.0013
     32 C           8.1171   -5.7828   25.2759 C.ar    1  UNL1        0.0143
     33 C           6.2145   -3.8345   22.3890 C.ar    1  UNL1        0.0193
     34 C           4.7409   -3.6686   22.1627 C.ar    1  UNL1        0.0044
     35 C           4.2281   -3.2972   20.8030 C.ar    1  UNL1        0.0345
     36 C           5.1887   -3.0917   19.6695 C.ar    1  UNL1        0.1342
     37 N           6.6622   -3.2575   19.8957 N.ar    1  UNL1       -0.2290
     38 C           7.1752   -3.6289   21.2555 C.ar    1  UNL1        0.1003
     39 N           4.6759   -2.7203   18.3097 N.am    1  UNL1       -0.2693
     40 C           4.2549   -1.3086   18.0267 C.2     1  UNL1        0.2277
     41 C           3.7420   -0.9372   16.6669 C.3     1  UNL1        0.0950
     42 O           4.3468   -0.2684   19.1035 O.2     1  UNL1       -0.2747
     43 H           4.6156   -3.4030   17.6030 H       1  UNL1        0.1563
@<TRIPOS>BOND
     1    22    23    1
     2    23    16    1
     3    16    17    1
     4    17    18    1
     5    18    19    1
     6    19    15    1
     7    15     5    1
     8     5     6   ar
     9     6     7   ar
    10     7     8   ar
    11     8     1    1
    12     1     2   am
    13     2     3    2
    14     2    24    1
    15    24    25    1
    16    25    27    1
    17    27    28   ar
    18    28    29   ar
    19    29    30   ar
    20    30    33    1
    21    33    34   ar
    22    34    35   ar
    23    35    36   ar
    24    36    39    1
    25    39    40   am
    26    40    41    1
    27    40    42    2
    28    36    37   ar
    29    37    38   ar
    30    30    31   ar
    31    31    32   ar
    32     8     9   ar
    33     9    10   ar
    34    10    11    1
    35    11    12    1
    36    11    13    1
    37    11    14    1
    38    19    20    1
    39    20    21    1
    40    21    16    1
    41    10     5   ar
    42    32    27   ar
    43    38    33   ar
    44     1     4    1
    45    25    26    1
    46    39    43    1
@<TRIPOS>MOLECULE
*****
 43 46 0 0 0
SMALL
GASTEIGER

@<TRIPOS>ATOM
      1 N           6.6446   -3.8768   21.8202 N.am    1  UNL1       -0.2825
      2 C           5.1784   -3.5850   21.6971 C.2     1  UNL1        0.2461
      3 O           4.3213   -3.5176   22.9262 O.2     1  UNL1       -0.2729
      4 H           7.2071   -3.9210   21.0134 H       1  UNL1        0.1549
      5 C           8.4719   -4.5503   25.8770 C.ar    1  UNL1       -0.0022
      6 C           8.5210   -3.1889   25.2489 C.ar    1  UNL1       -0.0017
      7 C           7.9119   -2.9645   23.8966 C.ar    1  UNL1        0.0144
      8 C           7.2537   -4.1013   23.1725 C.ar    1  UNL1        0.0503
      9 C           7.2045   -5.4625   23.8005 C.ar    1  UNL1        0.0182
     10 C           7.8136   -5.6871   25.1528 C.ar    1  UNL1        0.0700
     11 C           7.7645   -7.0483   25.7809 C.3     1  UNL1        0.4184
     12 F           7.7153   -8.4096   26.4090 F       1  UNL1       -0.1659
     13 F           6.4969   -6.6751   26.4906 F       1  UNL1       -0.1659
     14 F           9.0321   -7.4216   25.0712 F       1  UNL1       -0.1659
     15 C           9.0809   -4.7747   27.2293 C.3     1  UNL1        0.0992
     16 N           6.7902   -3.6670   30.9408 N.3     1  UNL1       -0.2703
     17 C           6.9507   -5.1091   30.5610 C.3     1  UNL1        0.0897
     18 C           7.7143   -5.4784   29.3238 C.3     1  UNL1        0.0899
     19 N           8.3174   -4.4055   28.4664 N.3     1  UNL1       -0.2665
     20 C           8.1569   -2.9633   28.8463 C.3     1  UNL1        0.0899
     21 C           7.3933   -2.5940   30.0834 C.3     1  UNL1        0.0897
     22 C           6.2542   -1.9664   32.8304 C.3     1  UNL1        0.0188
     23 C           6.0267   -3.2977   32.1780 C.3     1  UNL1        0.0722
     24 C           4.5694   -3.3605   20.3448 C.3     1  UNL1        0.1739
     25 N           4.7951   -2.0630   19.6266 N.pl3   1  UNL1       -0.3253
     26 H           5.6690   -1.8739   19.2146 H       1  UNL1        0.1473
     27 C           3.6892   -1.0536   19.5361 C.ar    1  UNL1        0.0450
     28 C           3.7394    0.0222   18.4920 C.ar    1  UNL1        0.0143
     29 C           2.6335    1.0316   18.4015 C.ar    1  UNL1        0.0013
     30 C           1.4775    0.9651   19.3550 C.ar    1  UNL1        0.0016
     31 C           1.4274   -0.1107   20.3991 C.ar    1  UNL1        0.0013
     32 C           2.5332   -1.1201   20.4896 C.ar    1  UNL1        0.0143
     33 C           0.3716    1.9745   19.2645 C.ar    1  UNL1        0.0193
     34 C           0.2350    2.8296   18.0397 C.ar    1  UNL1        0.0044
     35 C          -0.8708    3.8390   17.9492 C.ar    1  UNL1        0.0345
     36 C          -1.8401    3.9933   19.0835 C.ar    1  UNL1        0.1342
     37 N          -1.7036    3.1382   20.3083 N.ar    1  UNL1       -0.2290
     38 C          -0.5977    2.1288   20.3988 C.ar    1  UNL1        0.1003
     39 N          -2.9460    5.0026   18.9930 N.am    1  UNL1       -0.2693
     40 C          -4.2200    4.6575   18.2803 C.2     1  UNL1        0.2277
     41 C          -5.3259    5.6668   18.1898 C.3     1  UNL1        0.0950
     42 O          -4.3881    3.3030   17.6581 O.2     1  UNL1       -0.2747
     43 H          -2.8357    5.8916   19.4013 H       1  UNL1        0.1563
@<TRIPOS>BOND
     1    22    23    1
     2    23    16    1
     3    16    17    1
     4    17    18    1
     5    18    19    1
     6    19    15    1
     7    15     5    1
     8     5     6   ar
     9     6     7   ar
    10     7     8   ar
    11     8     1    1
    12     1     2   am
    13     2     3    2
    14     2    24    1
    15    24    25    1
    16    25    27    1
    17    27    28   ar
    18    28    29   ar
    19    29    30   ar
    20    30    33    1
    21    33    34   ar
    22    34    35   ar
    23    35    36   ar
    24    36    39    1
    25    39    40   am
    26    40    41    1
    27    40    42    2
    28    36    37   ar
    29    37    38   ar
    30    30    31   ar
    31    31    32   ar
    32     8     9   ar
    33     9    10   ar
    34    10    11    1
    35    11    12    1
    36    11    13    1
    37    11    14    1
    38    19    20    1
    39    20    21    1
    40    21    16    1
    41    10     5   ar
    42    32    27   ar
    43    38    33   ar
    44     1     4    1
    45    25    26    1
    46    39    43    1
@<TRIPOS>MOLECULE
*****
 43 46 0 0 0
SMALL
GASTEIGER

@<TRIPOS>ATOM
      1 N           8.0628   -4.2292   31.7864 N.am    1  UNL1       -0.2825
      2 C           7.9211   -5.5727   31.1346 C.2     1  UNL1        0.2461
      3 O           6.6163   -5.9694   30.5099 O.2     1  UNL1       -0.2729
      4 H           8.9192   -3.9689   32.1964 H       1  UNL1        0.1549
      5 C           4.5735   -1.3886   31.8681 C.ar    1  UNL1       -0.0022
      6 C           4.5967   -2.5748   32.7860 C.ar    1  UNL1       -0.0017
      7 C           5.7598   -3.5216   32.7588 C.ar    1  UNL1        0.0144
      8 C           6.8997   -3.2823   31.8136 C.ar    1  UNL1        0.0503
      9 C           6.8766   -2.0962   30.8957 C.ar    1  UNL1        0.0182
     10 C           5.7135   -1.1493   30.9229 C.ar    1  UNL1        0.0700
     11 C           5.6903    0.0367   30.0050 C.3     1  UNL1        0.4184
     12 F           5.6672    1.2228   29.0871 F       1  UNL1       -0.1659
     13 F           5.0362   -0.7973   28.9437 F       1  UNL1       -0.1659
     14 F           6.3445    0.8708   31.0663 F       1  UNL1       -0.1659
     15 C           3.4105   -0.4418   31.8953 C.3     1  UNL1        0.0992
     16 N           3.0678    2.6071   35.1872 N.3     1  UNL1       -0.2703
     17 C           4.1130    1.5341   35.2646 C.3     1  UNL1        0.0897
     18 C           4.2273    0.5178   34.1673 C.3     1  UNL1        0.0899
     19 N           3.2962    0.5745   32.9926 N.3     1  UNL1       -0.2665
     20 C           2.2509    1.6475   32.9153 C.3     1  UNL1        0.0899
     21 C           2.1367    2.6638   34.0126 C.3     1  UNL1        0.0897
     22 C           1.6247    4.2465   36.5944 C.3     1  UNL1        0.0188
     23 C           2.9535    3.6234   36.2845 C.3     1  UNL1        0.0722
     24 C           9.0842   -6.5195   31.1074 C.3     1  UNL1        0.1739
     25 N           9.3741   -7.3160   29.8698 N.pl3   1  UNL1       -0.3253
     26 H           9.8209   -8.1904   29.9406 H       1  UNL1        0.1473
     27 C           8.9834   -6.7802   28.5244 C.ar    1  UNL1        0.0450
     28 C           8.0427   -7.5573   27.6520 C.ar    1  UNL1        0.0143
     29 C           7.6519   -7.0215   26.3065 C.ar    1  UNL1        0.0013
     30 C           8.2019   -5.7086   25.8335 C.ar    1  UNL1        0.0016
     31 C           9.1427   -4.9315   26.7059 C.ar    1  UNL1        0.0013
     32 C           9.5334   -5.4673   28.0513 C.ar    1  UNL1        0.0143
     33 C           7.8112   -5.1729   24.4880 C.ar    1  UNL1        0.0193
     34 C           6.7829   -4.0857   24.3834 C.ar    1  UNL1        0.0044
     35 C           6.3922   -3.5499   23.0380 C.ar    1  UNL1        0.0345
     36 C           7.0296   -4.1012   21.7971 C.ar    1  UNL1        0.1342
     37 N           8.0578   -5.1883   21.9017 N.ar    1  UNL1       -0.2290
     38 C           8.4486   -5.7242   23.2472 C.ar    1  UNL1        0.1003
     39 N           6.6389   -3.5654   20.4517 N.am    1  UNL1       -0.2693
     40 C           5.3347   -3.9722   19.8323 C.2     1  UNL1        0.2277
     41 C           4.9439   -3.4364   18.4869 C.3     1  UNL1        0.0950
     42 O           4.4212   -4.9147   20.5584 O.2     1  UNL1       -0.2747
     43 H           7.2385   -2.9468   19.9752 H       1  UNL1        0.1563
@<TRIPOS>BOND
     1    22    23    1
     2    23    16    1
     3    16    17    1
     4    17    18    1
     5    18    19    1
     6    19    15    1
     7    15     5    1
     8     5     6   ar
     9     6     7   ar
    10     7     8   ar
    11     8     1    1
    12     1     2   am
    13     2     3    2
    14     2    24    1
    15    24    25    1
    16    25    27    1
    17    27    28   ar
    18    28    29   ar
    19    29    30   ar
    20    30    33    1
    21    33    34   ar
    22    34    35   ar
    23    35    36   ar
    24    36    39    1
    25    39    40   am
    26    40    41    1
    27    40    42    2
    28    36    37   ar
    29    37    38   ar
    30    30    31   ar
    31    31    32   ar
    32     8     9   ar
    33     9    10   ar
    34    10    11    1
    35    11    12    1
    36    11    13    1
    37    11    14    1
    38    19    20    1
    39    20    21    1
    40    21    16    1
    41    10     5   ar
    42    32    27   ar
    43    38    33   ar
    44     1     4    1
    45    25    26    1
    46    39    43    1
@<TRIPOS>MOLECULE
*****
 43 46 0 0 0
SMALL
GASTEIGER

@<TRIPOS>ATOM
      1 N           2.1965   -0.0713   18.1715 N.am    1  UNL1       -0.2825
      2 C           3.6598   -0.3473   18.3517 C.2     1  UNL1        0.2461
      3 O           4.4260    0.3484   19.4376 O.2     1  UNL1       -0.2729
      4 H           1.6936   -0.5279   17.4588 H       1  UNL1        0.1549
      5 C           0.1050    2.8435   20.8881 C.ar    1  UNL1       -0.0022
      6 C           0.2113    1.3988   21.2776 C.ar    1  UNL1       -0.0017
      7 C           0.9085    0.4273   20.3721 C.ar    1  UNL1        0.0144
      8 C           1.4993    0.9003   19.0770 C.ar    1  UNL1        0.0503
      9 C           1.3930    2.3449   18.6875 C.ar    1  UNL1        0.0182
     10 C           0.6959    3.3166   19.5931 C.ar    1  UNL1        0.0700
     11 C           0.5896    4.7612   19.2036 C.3     1  UNL1        0.4184
     12 F           0.4834    6.2058   18.8141 F       1  UNL1       -0.1659
     13 F          -0.6799    4.4675   18.4607 F       1  UNL1       -0.1659
     14 F           1.8592    5.0549   19.9465 F       1  UNL1       -0.1659
     15 C          -0.5921    3.8151   21.7937 C.3     1  UNL1        0.0992
     16 N          -5.0838    4.0867   21.7714 N.3     1  UNL1       -0.2703
     17 C          -4.3701    3.3724   20.6622 C.3     1  UNL1        0.0897
     18 C          -2.8729    3.2819   20.6696 C.3     1  UNL1        0.0899
     19 N          -2.0893    3.9056   21.7862 N.3     1  UNL1       -0.2665
     20 C          -2.8030    4.6199   22.8954 C.3     1  UNL1        0.0899
     21 C          -4.3003    4.7105   22.8880 C.3     1  UNL1        0.0897
     22 C          -7.3220    4.4554   23.0382 C.3     1  UNL1        0.0188
     23 C          -6.5811    4.1772   21.7640 C.3     1  UNL1        0.0722
     24 C           4.3568   -1.3189   17.4462 C.3     1  UNL1        0.1739
     25 N           4.5452   -2.7433   17.8772 N.pl3   1  UNL1       -0.3253
     26 H           4.3385   -3.4774   17.2546 H       1  UNL1        0.1473
     27 C           5.0486   -3.0492   19.2567 C.ar    1  UNL1        0.0450
     28 C           6.4891   -2.8098   19.5996 C.ar    1  UNL1        0.0143
     29 C           6.9925   -3.1157   20.9791 C.ar    1  UNL1        0.0013
     30 C           6.0553   -3.6609   22.0157 C.ar    1  UNL1        0.0016
     31 C           4.6148   -3.9003   21.6727 C.ar    1  UNL1        0.0013
     32 C           4.1114   -3.5944   20.2932 C.ar    1  UNL1        0.0143
     33 C           6.5587   -3.9668   23.3952 C.ar    1  UNL1        0.0193
     34 C           7.5215   -5.0971   23.6088 C.ar    1  UNL1        0.0044
     35 C           8.0248   -5.4030   24.9883 C.ar    1  UNL1        0.0345
     36 C           7.5654   -4.5786   26.1542 C.ar    1  UNL1        0.1342
     37 N           6.6027   -3.4483   25.9407 N.ar    1  UNL1       -0.2290
     38 C           6.0993   -3.1424   24.5611 C.ar    1  UNL1        0.1003
     39 N           8.0688   -4.8845   27.5337 N.am    1  UNL1       -0.2693
     40 C           7.1307   -5.4261   28.5714 C.2     1  UNL1        0.2277
     41 C           7.6341   -5.7320   29.9509 C.3     1  UNL1        0.0950
     42 O           5.6893   -5.6619   28.2296 O.2     1  UNL1       -0.2747
     43 H           9.0148   -4.7297   27.7581 H       1  UNL1        0.1563
@<TRIPOS>BOND
     1    22    23    1
     2    23    16    1
     3    16    17    1
     4    17    18    1
     5    18    19    1
     6    19    15    1
     7    15     5    1
     8     5     6   ar
     9     6     7   ar
    10     7     8   ar
    11     8     1    1
    12     1     2   am
    13     2     3    2
    14     2    24    1
    15    24    25    1
    16    25    27    1
    17    27    28   ar
    18    28    29   ar
    19    29    30   ar
    20    30    33    1
    21    33    34   ar
    22    34    35   ar
    23    35    36   ar
    24    36    39    1
    25    39    40   am
    26    40    41    1
    27    40    42    2
    28    36    37   ar
    29    37    38   ar
    30    30    31   ar
    31    31    32   ar
    32     8     9   ar
    33     9    10   ar
    34    10    11    1
    35    11    12    1
    36    11    13    1
    37    11    14    1
    38    19    20    1
    39    20    21    1
    40    21    16    1
    41    10     5   ar
    42    32    27   ar
    43    38    33   ar
    44     1     4    1
    45    25    26    1
    46    39    43    1
