@<TRIPOS>MOLECULE
*****
 28 31 0 0 0
SMALL
GASTEIGER

@<TRIPOS>ATOM
      1 C          -7.3110  -17.8695   22.0054 C.2     1  UNL1        0.3279
      2 N          -5.9803  -18.2817   21.4493 N.2     1  UNL1       -0.0020
      3 C          -4.7175  -17.8889   22.1570 C.2     1  UNL1        0.3338
      4 C          -4.7853  -17.0839   23.4209 C.2     1  UNL1        0.0879
      5 C          -6.1160  -16.6717   23.9770 C.2     1  UNL1        0.0161
      6 C          -6.4937  -15.8820   25.1951 C.2     1  UNL1       -0.0100
      7 C          -5.5422  -15.2912   26.1928 C.3     1  UNL1        0.0320
      8 C          -7.9900  -15.7867   25.2401 C.2     1  UNL1        0.0509
      9 C          -8.7975  -15.0840   26.2910 C.3     1  UNL1        0.0513
     10 N          -8.5371  -16.5176   24.0500 N.2     1  UNL1       -0.2602
     11 C          -7.3788  -17.0645   23.2693 C.3     1  UNL1        0.2298
     12 N          -3.3867  -18.3010   21.6008 N.am    1  UNL1       -0.1406
     13 C          -2.9535  -19.7052   21.3000 C.3     1  UNL1        0.2108
     14 C          -1.5546  -19.6534   20.7611 C.3     1  UNL1        0.0634
     15 C          -1.1232  -18.2170   20.7289 C.3     1  UNL1        0.1170
     16 C          -2.2555  -17.3813   21.2479 C.2     1  UNL1        0.3135
     17 O          -2.2565  -15.8880   21.3891 O.2     1  UNL1       -0.2468
     18 N          -8.5739  -18.2624   21.2977 N.pl3   1  UNL1       -0.2166
     19 H          -8.7947  -17.8616   20.4260 H       1  UNL1        0.2923
     20 C          -9.5003  -19.2658   21.9182 C.3     1  UNL1        0.2258
     21 C         -10.1253  -19.7399   24.8138 C.3     1  UNL1        0.0308
     22 C         -11.1292  -19.0589   23.9315 C.ar    1  UNL1       -0.0223
     23 C         -12.4457  -18.6149   24.4971 C.ar    1  UNL1       -0.0045
     24 C         -13.4496  -17.9340   23.6149 C.ar    1  UNL1       -0.0007
     25 C         -13.1371  -17.6969   22.1671 C.ar    1  UNL1       -0.0045
     26 C         -11.8207  -18.1408   21.6015 C.ar    1  UNL1       -0.0223
     27 C         -11.5082  -17.9038   20.1537 C.3     1  UNL1        0.0308
     28 C         -10.8167  -18.8218   22.4837 C.ar    1  UNL1        0.0162
@<TRIPOS>BOND
     1    21    22    1
     2    22    23   ar
     3    23    24   ar
     4    24    25   ar
     5    25    26   ar
     6    26    27    1
     7    26    28   ar
     8    28    20    1
     9    20    18    1
    10    18     1    1
    11     1     2    2
    12     2     3    1
    13     3    12    1
    14    12    13    1
    15    13    14    1
    16    14    15    1
    17    15    16    1
    18    16    17    2
    19     3     4    2
    20     4     5    1
    21     5     6    2
    22     6     7    1
    23     6     8    1
    24     8     9    1
    25     8    10    2
    26    10    11    1
    27    28    22   ar
    28    11     1    1
    29    16    12   am
    30    11     5    1
    31    18    19    1
@<TRIPOS>MOLECULE
*****
 28 31 0 0 0
SMALL
GASTEIGER

@<TRIPOS>ATOM
      1 C          -7.8971  -17.7413   21.7409 C.2     1  UNL1        0.3279
      2 N          -8.1343  -17.0331   23.0417 N.2     1  UNL1       -0.0020
      3 C          -7.0019  -16.8354   24.0053 C.2     1  UNL1        0.3338
      4 C          -5.6323  -17.3458   23.6680 C.2     1  UNL1        0.0879
      5 C          -5.3951  -18.0539   22.3671 C.2     1  UNL1        0.0161
      6 C          -4.1630  -18.6619   21.7654 C.2     1  UNL1       -0.0100
      7 C          -2.7994  -18.6912   22.3895 C.3     1  UNL1        0.0320
      8 C          -4.5339  -19.2354   20.4299 C.2     1  UNL1        0.0509
      9 C          -3.6062  -19.9390   19.4841 C.3     1  UNL1        0.0513
     10 N          -5.9953  -18.9819   20.2062 N.2     1  UNL1       -0.2602
     11 C          -6.5276  -18.2517   21.4036 C.3     1  UNL1        0.2298
     12 N          -7.2390  -16.1272   25.3062 N.am    1  UNL1       -0.1406
     13 C          -8.4714  -16.2314   26.1549 C.3     1  UNL1        0.2108
     14 C          -8.2794  -15.3591   27.3600 C.3     1  UNL1        0.0634
     15 C          -6.9283  -14.7158   27.2561 C.3     1  UNL1        0.1170
     16 C          -6.2853  -15.1906   25.9868 C.2     1  UNL1        0.3135
     17 O          -4.9271  -14.7976   25.4860 O.2     1  UNL1       -0.2468
     18 N          -9.0296  -17.9390   20.7772 N.pl3   1  UNL1       -0.2166
     19 H          -9.0791  -17.3958   19.9577 H       1  UNL1        0.2923
     20 C         -10.0865  -18.9645   21.0623 C.3     1  UNL1        0.2258
     21 C         -12.4864  -17.1887   20.7675 C.3     1  UNL1        0.0308
     22 C         -12.2246  -17.8857   22.0696 C.ar    1  UNL1       -0.0223
     23 C         -13.1628  -17.6949   23.2244 C.ar    1  UNL1       -0.0045
     24 C         -12.9010  -18.3919   24.5265 C.ar    1  UNL1       -0.0007
     25 C         -11.7010  -19.2798   24.6739 C.ar    1  UNL1       -0.0045
     26 C         -10.7629  -19.4707   23.5192 C.ar    1  UNL1       -0.0223
     27 C          -9.5629  -20.3586   23.6666 C.3     1  UNL1        0.0308
     28 C         -11.0247  -18.7736   22.2170 C.ar    1  UNL1        0.0162
@<TRIPOS>BOND
     1    21    22    1
     2    22    23   ar
     3    23    24   ar
     4    24    25   ar
     5    25    26   ar
     6    26    27    1
     7    26    28   ar
     8    28    20    1
     9    20    18    1
    10    18     1    1
    11     1     2    2
    12     2     3    1
    13     3    12    1
    14    12    13    1
    15    13    14    1
    16    14    15    1
    17    15    16    1
    18    16    17    2
    19     3     4    2
    20     4     5    1
    21     5     6    2
    22     6     7    1
    23     6     8    1
    24     8     9    1
    25     8    10    2
    26    10    11    1
    27    28    22   ar
    28    11     1    1
    29    16    12   am
    30    11     5    1
    31    18    19    1
@<TRIPOS>MOLECULE
*****
 28 31 0 0 0
SMALL
GASTEIGER

@<TRIPOS>ATOM
      1 C          -7.8107  -17.7884   21.7507 C.2     1  UNL1        0.3279
      2 N          -8.0733  -17.0828   23.0480 N.2     1  UNL1       -0.0020
      3 C          -6.9494  -16.8423   24.0118 C.2     1  UNL1        0.3338
      4 C          -5.5629  -17.3075   23.6783 C.2     1  UNL1        0.0879
      5 C          -5.3003  -18.0130   22.3809 C.2     1  UNL1        0.0161
      6 C          -4.0475  -18.5815   21.7832 C.2     1  UNL1       -0.0100
      7 C          -2.6844  -18.5617   22.4090 C.3     1  UNL1        0.0320
      8 C          -4.3971  -19.1734   20.4500 C.2     1  UNL1        0.0509
      9 C          -3.4449  -19.8493   19.5084 C.3     1  UNL1        0.0513
     10 N          -5.8660  -18.9706   20.2237 N.2     1  UNL1       -0.2602
     11 C          -6.4242  -18.2535   21.4171 C.3     1  UNL1        0.2298
     12 N          -7.2120  -16.1367   25.3092 N.am    1  UNL1       -0.1406
     13 C          -8.4645  -16.2352   26.1287 C.3     1  UNL1        0.2108
     14 C          -8.2947  -15.3681   27.3408 C.3     1  UNL1        0.0634
     15 C          -6.9373  -14.7337   27.2706 C.3     1  UNL1        0.1170
     16 C          -6.2681  -15.2088   26.0150 C.2     1  UNL1        0.3135
     17 O          -4.8960  -14.8235   25.5472 O.2     1  UNL1       -0.2468
     18 N          -8.9346  -18.0289   20.7868 N.pl3   1  UNL1       -0.2166
     19 H          -8.9842  -17.5129   19.9498 H       1  UNL1        0.2923
     20 C          -9.9829  -19.0555   21.0981 C.3     1  UNL1        0.2258
     21 C          -9.5038  -20.3779   23.7480 C.3     1  UNL1        0.0308
     22 C         -10.6993  -19.4924   23.5570 C.ar    1  UNL1       -0.0223
     23 C         -11.6554  -19.2681   24.6909 C.ar    1  UNL1       -0.0045
     24 C         -12.8510  -18.3827   24.4998 C.ar    1  UNL1       -0.0007
     25 C         -13.0906  -17.7215   23.1749 C.ar    1  UNL1       -0.0045
     26 C         -12.1346  -17.9458   22.0410 C.ar    1  UNL1       -0.0223
     27 C         -12.3742  -17.2846   20.7161 C.3     1  UNL1        0.0308
     28 C         -10.9389  -18.8313   22.2320 C.ar    1  UNL1        0.0162
@<TRIPOS>BOND
     1    21    22    1
     2    22    23   ar
     3    23    24   ar
     4    24    25   ar
     5    25    26   ar
     6    26    27    1
     7    26    28   ar
     8    28    20    1
     9    20    18    1
    10    18     1    1
    11     1     2    2
    12     2     3    1
    13     3    12    1
    14    12    13    1
    15    13    14    1
    16    14    15    1
    17    15    16    1
    18    16    17    2
    19     3     4    2
    20     4     5    1
    21     5     6    2
    22     6     7    1
    23     6     8    1
    24     8     9    1
    25     8    10    2
    26    10    11    1
    27    28    22   ar
    28    11     1    1
    29    16    12   am
    30    11     5    1
    31    18    19    1
@<TRIPOS>MOLECULE
*****
 28 31 0 0 0
SMALL
GASTEIGER

@<TRIPOS>ATOM
      1 C          -7.2645  -17.9001   21.9516 C.2     1  UNL1        0.3279
      2 N          -5.9464  -18.2833   21.3471 N.2     1  UNL1       -0.0020
      3 C          -4.6674  -17.8692   22.0125 C.2     1  UNL1        0.3338
      4 C          -4.7067  -17.0718   23.2824 C.2     1  UNL1        0.0879
      5 C          -6.0249  -16.6886   23.8868 C.2     1  UNL1        0.0161
      6 C          -6.3751  -15.9123   25.1217 C.2     1  UNL1       -0.0100
      7 C          -5.4009  -15.3078   26.0889 C.3     1  UNL1        0.0320
      8 C          -7.8705  -15.8467   25.2194 C.2     1  UNL1        0.0509
      9 C          -8.6542  -15.1650   26.3017 C.3     1  UNL1        0.0513
     10 N          -8.4445  -16.5824   24.0451 N.2     1  UNL1       -0.2602
     11 C          -7.3038  -17.1027   23.2215 C.3     1  UNL1        0.2298
     12 N          -3.3492  -18.2524   21.4080 N.am    1  UNL1       -0.1406
     13 C          -2.0855  -17.4463   21.4648 C.3     1  UNL1        0.2108
     14 C          -1.0185  -18.2047   20.7325 C.3     1  UNL1        0.0634
     15 C          -1.6228  -19.4797   20.2230 C.3     1  UNL1        0.1170
     16 C          -3.0632  -19.5091   20.6405 C.2     1  UNL1        0.3135
     17 O          -4.0452  -20.6032   20.3428 O.2     1  UNL1       -0.2468
     18 N          -8.5436  -18.3142   21.2862 N.pl3   1  UNL1       -0.2166
     19 H          -8.7849  -17.9406   20.4078 H       1  UNL1        0.2923
     20 C          -9.4548  -19.2975   21.9590 C.3     1  UNL1        0.2258
     21 C         -11.4288  -17.9342   20.1577 C.3     1  UNL1        0.0308
     22 C         -11.7643  -18.1625   21.6017 C.ar    1  UNL1       -0.0223
     23 C         -13.0870  -17.7092   22.1452 C.ar    1  UNL1       -0.0045
     24 C         -13.4225  -17.9375   23.5892 C.ar    1  UNL1       -0.0007
     25 C         -12.4355  -18.6192   24.4899 C.ar    1  UNL1       -0.0045
     26 C         -11.1129  -19.0725   23.9465 C.ar    1  UNL1       -0.0223
     27 C         -10.1259  -19.7542   24.8471 C.3     1  UNL1        0.0308
     28 C         -10.7773  -18.8442   22.5024 C.ar    1  UNL1        0.0162
@<TRIPOS>BOND
     1    21    22    1
     2    22    23   ar
     3    23    24   ar
     4    24    25   ar
     5    25    26   ar
     6    26    27    1
     7    26    28   ar
     8    28    20    1
     9    20    18    1
    10    18     1    1
    11     1     2    2
    12     2     3    1
    13     3    12    1
    14    12    13    1
    15    13    14    1
    16    14    15    1
    17    15    16    1
    18    16    17    2
    19     3     4    2
    20     4     5    1
    21     5     6    2
    22     6     7    1
    23     6     8    1
    24     8     9    1
    25     8    10    2
    26    10    11    1
    27    28    22   ar
    28    11     1    1
    29    16    12   am
    30    11     5    1
    31    18    19    1
@<TRIPOS>MOLECULE
*****
 28 31 0 0 0
SMALL
GASTEIGER

@<TRIPOS>ATOM
      1 C          -7.0479  -18.1506   21.9889 C.2     1  UNL1        0.3279
      2 N          -6.7856  -17.4776   23.3035 N.2     1  UNL1       -0.0020
      3 C          -7.9194  -16.8673   24.0730 C.2     1  UNL1        0.3338
      4 C          -9.3154  -16.9300   23.5278 C.2     1  UNL1        0.0879
      5 C          -9.5777  -17.6029   22.2132 C.2     1  UNL1        0.0161
      6 C         -10.8385  -17.8182   21.4297 C.2     1  UNL1       -0.0100
      7 C         -12.2126  -17.3690   21.8297 C.3     1  UNL1        0.0320
      8 C         -10.4841  -18.5615   20.1760 C.2     1  UNL1        0.0509
      9 C         -11.4415  -18.9862   19.1022 C.3     1  UNL1        0.0513
     10 N          -9.0041  -18.8057   20.1846 N.2     1  UNL1       -0.2602
     11 C          -8.4439  -18.2132   21.4437 C.3     1  UNL1        0.2298
     12 N          -7.6571  -16.1944   25.3877 N.am    1  UNL1       -0.1406
     13 C          -8.4596  -16.3686   26.6430 C.3     1  UNL1        0.2108
     14 C          -7.8448  -15.5110   27.7090 C.3     1  UNL1        0.0634
     15 C          -6.6623  -14.8066   27.1126 C.3     1  UNL1        0.1170
     16 C          -6.5463  -15.2290   25.6780 C.2     1  UNL1        0.3135
     17 O          -5.5028  -14.7671   24.7045 O.2     1  UNL1       -0.2468
     18 N          -5.9141  -18.7609   21.2193 N.pl3   1  UNL1       -0.2166
     19 H          -6.0436  -19.0273   20.2805 H       1  UNL1        0.2923
     20 C          -4.5832  -18.9653   21.8803 C.3     1  UNL1        0.2258
     21 C          -3.4254  -20.1649   19.3863 C.3     1  UNL1        0.0308
     22 C          -2.7660  -18.9779   20.0236 C.ar    1  UNL1       -0.0223
     23 C          -1.5277  -18.3906   19.4139 C.ar    1  UNL1       -0.0045
     24 C          -0.8683  -17.2036   20.0512 C.ar    1  UNL1       -0.0007
     25 C          -1.4473  -16.6038   21.2983 C.ar    1  UNL1       -0.0045
     26 C          -2.6855  -17.1910   21.9080 C.ar    1  UNL1       -0.0223
     27 C          -3.2645  -16.5912   23.1550 C.3     1  UNL1        0.0308
     28 C          -3.3450  -18.3781   21.2706 C.ar    1  UNL1        0.0162
@<TRIPOS>BOND
     1    21    22    1
     2    22    23   ar
     3    23    24   ar
     4    24    25   ar
     5    25    26   ar
     6    26    27    1
     7    26    28   ar
     8    28    20    1
     9    20    18    1
    10    18     1    1
    11     1     2    2
    12     2     3    1
    13     3    12    1
    14    12    13    1
    15    13    14    1
    16    14    15    1
    17    15    16    1
    18    16    17    2
    19     3     4    2
    20     4     5    1
    21     5     6    2
    22     6     7    1
    23     6     8    1
    24     8     9    1
    25     8    10    2
    26    10    11    1
    27    28    22   ar
    28    11     1    1
    29    16    12   am
    30    11     5    1
    31    18    19    1
@<TRIPOS>MOLECULE
*****
 28 31 0 0 0
SMALL
GASTEIGER

@<TRIPOS>ATOM
      1 C          -8.0687  -16.6475   22.5893 C.2     1  UNL1        0.3279
      2 N          -6.8203  -17.2751   22.0438 N.2     1  UNL1       -0.0020
      3 C          -6.6897  -18.7687   21.9991 C.2     1  UNL1        0.3338
      4 C          -7.8074  -19.6346   22.4999 C.2     1  UNL1        0.0879
      5 C          -9.0557  -19.0070   23.0455 C.2     1  UNL1        0.0161
      6 C         -10.3145  -19.5994   23.6062 C.2     1  UNL1       -0.0100
      7 C         -10.6124  -21.0624   23.7504 C.3     1  UNL1        0.0320
      8 C         -11.2232  -18.4719   23.9975 C.2     1  UNL1        0.0509
      9 C         -12.5893  -18.6095   24.6016 C.3     1  UNL1        0.0513
     10 N         -10.5260  -17.1827   23.6786 N.2     1  UNL1       -0.2602
     11 C          -9.1864  -17.5134   23.0902 C.3     1  UNL1        0.2298
     12 N          -5.4413  -19.3964   21.4535 N.am    1  UNL1       -0.1406
     13 C          -5.3613  -20.3186   20.2733 C.3     1  UNL1        0.2108
     14 C          -3.9243  -20.7042   20.0828 C.3     1  UNL1        0.0634
     15 C          -3.1161  -20.0202   21.1454 C.3     1  UNL1        0.1170
     16 C          -4.0536  -19.2120   21.9925 C.2     1  UNL1        0.3135
     17 O          -3.6707  -18.3675   23.1716 O.2     1  UNL1       -0.2468
     18 N          -8.1994  -15.1538   22.6340 N.pl3   1  UNL1       -0.2166
     19 H          -8.6381  -14.6756   21.8937 H       1  UNL1        0.2923
     20 C          -7.6617  -14.3887   23.8068 C.3     1  UNL1        0.2258
     21 C          -4.7549  -15.0404   23.4519 C.3     1  UNL1        0.0308
     22 C          -5.4626  -15.4324   24.7150 C.ar    1  UNL1       -0.0223
     23 C          -4.7169  -16.1502   25.8007 C.ar    1  UNL1       -0.0045
     24 C          -5.4246  -16.5421   27.0639 C.ar    1  UNL1       -0.0007
     25 C          -6.8780  -16.2162   27.2413 C.ar    1  UNL1       -0.0045
     26 C          -7.6237  -15.4984   26.1557 C.ar    1  UNL1       -0.0223
     27 C          -9.0771  -15.1725   26.3332 C.3     1  UNL1        0.0308
     28 C          -6.9160  -15.1065   24.8925 C.ar    1  UNL1        0.0162
@<TRIPOS>BOND
     1    21    22    1
     2    22    23   ar
     3    23    24   ar
     4    24    25   ar
     5    25    26   ar
     6    26    27    1
     7    26    28   ar
     8    28    20    1
     9    20    18    1
    10    18     1    1
    11     1     2    2
    12     2     3    1
    13     3    12    1
    14    12    13    1
    15    13    14    1
    16    14    15    1
    17    15    16    1
    18    16    17    2
    19     3     4    2
    20     4     5    1
    21     5     6    2
    22     6     7    1
    23     6     8    1
    24     8     9    1
    25     8    10    2
    26    10    11    1
    27    28    22   ar
    28    11     1    1
    29    16    12   am
    30    11     5    1
    31    18    19    1
@<TRIPOS>MOLECULE
*****
 28 31 0 0 0
SMALL
GASTEIGER

@<TRIPOS>ATOM
      1 C         -14.1631   -7.1186   19.1176 C.2     1  UNL1        0.3279
      2 N         -14.3535   -5.6386   19.2706 N.2     1  UNL1       -0.0020
      3 C         -15.7325   -5.0735   19.4403 C.2     1  UNL1        0.3338
      4 C         -16.9211   -5.9883   19.4571 C.2     1  UNL1        0.0879
      5 C         -16.7307   -7.4682   19.3042 C.2     1  UNL1        0.0161
      6 C         -17.7049   -8.6085   19.2819 C.2     1  UNL1       -0.0100
      7 C         -19.1946   -8.4983   19.4190 C.3     1  UNL1        0.0320
      8 C         -16.9280   -9.8785   19.0983 C.2     1  UNL1        0.0509
      9 C         -17.5044  -11.2612   19.0197 C.3     1  UNL1        0.0513
     10 N         -15.4736   -9.5230   19.0072 N.2     1  UNL1       -0.2602
     11 C         -15.3517   -8.0334   19.1344 C.3     1  UNL1        0.2298
     12 N         -15.9229   -3.5934   19.5933 N.am    1  UNL1       -0.1406
     13 C         -17.1909   -2.8359   19.3316 C.3     1  UNL1        0.2108
     14 C         -16.9304   -1.3855   19.6114 C.3     1  UNL1        0.0634
     15 C         -15.5014   -1.2465   20.0459 C.3     1  UNL1        0.1170
     16 C         -14.8788   -2.6111   20.0347 C.2     1  UNL1        0.3135
     17 O         -13.4610   -2.9363   20.4008 O.2     1  UNL1       -0.2468
     18 N         -12.7840   -7.6838   18.9479 N.pl3   1  UNL1       -0.2166
     19 H         -12.3604   -8.1785   19.6862 H       1  UNL1        0.2923
     20 C         -12.0503   -7.4952   17.6532 C.3     1  UNL1        0.2258
     21 C         -13.2647   -5.3195   15.9824 C.3     1  UNL1        0.0308
     22 C         -11.8944   -5.1409   16.5658 C.ar    1  UNL1       -0.0223
     23 C         -11.1312   -3.8743   16.3137 C.ar    1  UNL1       -0.0045
     24 C          -9.7609   -3.6957   16.8971 C.ar    1  UNL1       -0.0007
     25 C          -9.1537   -4.7835   17.7325 C.ar    1  UNL1       -0.0045
     26 C          -9.9168   -6.0500   17.9845 C.ar    1  UNL1       -0.0223
     27 C          -9.3096   -7.1379   18.8199 C.3     1  UNL1        0.0308
     28 C         -11.2872   -6.2287   17.4012 C.ar    1  UNL1        0.0162
@<TRIPOS>BOND
     1    21    22    1
     2    22    23   ar
     3    23    24   ar
     4    24    25   ar
     5    25    26   ar
     6    26    27    1
     7    26    28   ar
     8    28    20    1
     9    20    18    1
    10    18     1    1
    11     1     2    2
    12     2     3    1
    13     3    12    1
    14    12    13    1
    15    13    14    1
    16    14    15    1
    17    15    16    1
    18    16    17    2
    19     3     4    2
    20     4     5    1
    21     5     6    2
    22     6     7    1
    23     6     8    1
    24     8     9    1
    25     8    10    2
    26    10    11    1
    27    28    22   ar
    28    11     1    1
    29    16    12   am
    30    11     5    1
    31    18    19    1
@<TRIPOS>MOLECULE
*****
 28 31 0 0 0
SMALL
GASTEIGER

@<TRIPOS>ATOM
      1 C          -6.9077  -17.4421   22.4003 C.2     1  UNL1        0.3279
      2 N          -8.3908  -17.3084   22.5810 N.2     1  UNL1       -0.0020
      3 C          -9.3170  -18.2957   21.9352 C.2     1  UNL1        0.3338
      4 C          -8.7603  -19.4168   21.1087 C.2     1  UNL1        0.0879
      5 C          -7.2773  -19.5506   20.9279 C.2     1  UNL1        0.0161
      6 C          -6.4434  -20.5447   20.1753 C.2     1  UNL1       -0.0100
      7 C          -6.9605  -21.7076   19.3814 C.3     1  UNL1        0.0320
      8 C          -5.0018  -20.1717   20.3560 C.2     1  UNL1        0.0509
      9 C          -3.8241  -20.8962   19.7744 C.3     1  UNL1        0.0513
     10 N          -4.9446  -18.9471   21.2202 N.2     1  UNL1       -0.2602
     11 C          -6.3510  -18.5632   21.5737 C.3     1  UNL1        0.2298
     12 N         -10.8001  -18.1620   22.1159 N.am    1  UNL1       -0.1406
     13 C         -11.5454  -18.2878   23.4116 C.3     1  UNL1        0.2108
     14 C         -13.0041  -18.0826   23.1291 C.3     1  UNL1        0.0634
     15 C         -13.1605  -17.8299   21.6588 C.3     1  UNL1        0.1170
     16 C         -11.7984  -17.8790   21.0327 C.2     1  UNL1        0.3135
     17 O         -11.4888  -17.6800   19.5785 O.2     1  UNL1       -0.2468
     18 N          -5.9814  -16.4547   23.0461 N.pl3   1  UNL1       -0.2166
     19 H          -5.0075  -16.5922   23.0027 H       1  UNL1        0.2923
     20 C          -6.5389  -15.2578   23.7579 C.3     1  UNL1        0.2258
     21 C          -9.4809  -15.2685   24.3449 C.3     1  UNL1        0.0308
     22 C          -8.4920  -15.3892   25.4662 C.ar    1  UNL1       -0.0223
     23 C          -8.9740  -15.5152   26.8811 C.ar    1  UNL1       -0.0045
     24 C          -7.9850  -15.6360   28.0024 C.ar    1  UNL1       -0.0007
     25 C          -6.5140  -15.6306   27.7089 C.ar    1  UNL1       -0.0045
     26 C          -6.0320  -15.5046   26.2941 C.ar    1  UNL1       -0.0223
     27 C          -4.5610  -15.4993   26.0006 C.3     1  UNL1        0.0308
     28 C          -7.0210  -15.3839   25.1727 C.ar    1  UNL1        0.0162
@<TRIPOS>BOND
     1    21    22    1
     2    22    23   ar
     3    23    24   ar
     4    24    25   ar
     5    25    26   ar
     6    26    27    1
     7    26    28   ar
     8    28    20    1
     9    20    18    1
    10    18     1    1
    11     1     2    2
    12     2     3    1
    13     3    12    1
    14    12    13    1
    15    13    14    1
    16    14    15    1
    17    15    16    1
    18    16    17    2
    19     3     4    2
    20     4     5    1
    21     5     6    2
    22     6     7    1
    23     6     8    1
    24     8     9    1
    25     8    10    2
    26    10    11    1
    27    28    22   ar
    28    11     1    1
    29    16    12   am
    30    11     5    1
    31    18    19    1
@<TRIPOS>MOLECULE
*****
 28 31 0 0 0
SMALL
GASTEIGER

@<TRIPOS>ATOM
      1 C         -14.6077   -6.6742   19.3775 C.2     1  UNL1        0.3279
      2 N         -15.0794   -5.2576   19.5217 N.2     1  UNL1       -0.0020
      3 C         -16.5483   -4.9555   19.5507 C.2     1  UNL1        0.3338
      4 C         -17.5456   -6.0700   19.4355 C.2     1  UNL1        0.0879
      5 C         -17.0740   -7.4866   19.2912 C.2     1  UNL1        0.0161
      6 C         -17.8165   -8.7831   19.1577 C.2     1  UNL1       -0.0100
      7 C         -19.3074   -8.9473   19.1390 C.3     1  UNL1        0.0320
      8 C         -16.8064   -9.8864   19.0462 C.2     1  UNL1        0.0509
      9 C         -17.1100  -11.3478   18.8964 C.3     1  UNL1        0.0513
     10 N         -15.4397   -9.2719   19.1108 N.2     1  UNL1       -0.2602
     11 C         -15.6050   -7.7887   19.2623 C.3     1  UNL1        0.2298
     12 N         -17.0200   -3.5389   19.6950 N.am    1  UNL1       -0.1406
     13 C         -16.2040   -2.3072   19.4362 C.3     1  UNL1        0.2108
     14 C         -17.0702   -1.1124   19.7046 C.3     1  UNL1        0.0634
     15 C         -18.4217   -1.6057   20.1293 C.3     1  UNL1        0.1170
     16 C         -18.3906   -3.1053   20.1233 C.2     1  UNL1        0.3135
     17 O         -19.5302   -4.0122   20.4826 O.2     1  UNL1       -0.2468
     18 N         -13.1387   -6.9763   19.3485 N.pl3   1  UNL1       -0.2166
     19 H         -12.6331   -7.0427   20.1907 H       1  UNL1        0.2923
     20 C         -12.4401   -7.1772   18.0364 C.3     1  UNL1        0.2258
     21 C          -9.5861   -7.0624   18.9537 C.3     1  UNL1        0.0308
     22 C         -10.0965   -6.0583   17.9632 C.ar    1  UNL1       -0.0223
     23 C          -9.1798   -4.9967   17.4312 C.ar    1  UNL1       -0.0045
     24 C          -9.6902   -3.9926   16.4406 C.ar    1  UNL1       -0.0007
     25 C         -11.1172   -4.0500   15.9820 C.ar    1  UNL1       -0.0045
     26 C         -12.0339   -5.1115   16.5139 C.ar    1  UNL1       -0.0223
     27 C         -13.4609   -5.1689   16.0553 C.3     1  UNL1        0.0308
     28 C         -11.5235   -6.1157   17.5045 C.ar    1  UNL1        0.0162
@<TRIPOS>BOND
     1    21    22    1
     2    22    23   ar
     3    23    24   ar
     4    24    25   ar
     5    25    26   ar
     6    26    27    1
     7    26    28   ar
     8    28    20    1
     9    20    18    1
    10    18     1    1
    11     1     2    2
    12     2     3    1
    13     3    12    1
    14    12    13    1
    15    13    14    1
    16    14    15    1
    17    15    16    1
    18    16    17    2
    19     3     4    2
    20     4     5    1
    21     5     6    2
    22     6     7    1
    23     6     8    1
    24     8     9    1
    25     8    10    2
    26    10    11    1
    27    28    22   ar
    28    11     1    1
    29    16    12   am
    30    11     5    1
    31    18    19    1
