@<TRIPOS>MOLECULE
*****
 31 33 0 0 0
SMALL
GASTEIGER

@<TRIPOS>ATOM
      1 C          -7.7822  -19.2987   20.1372 C.ar    1  UNL1        0.0824
      2 C          -8.2350  -20.0219   18.9036 C.ar    1  UNL1        0.0191
      3 C          -9.6846  -20.0120   18.5180 C.ar    1  UNL1        0.0015
      4 C         -10.6812  -19.2789   19.3661 C.ar    1  UNL1        0.0001
      5 C         -10.2284  -18.5557   20.5997 C.ar    1  UNL1        0.0014
      6 C          -8.7788  -18.5656   20.9853 C.ar    1  UNL1        0.0191
      7 C          -6.4831  -20.8867   22.6751 C.3     1  UNL1        0.0522
      8 C          -5.7355  -20.0385   21.6893 C.ar    1  UNL1        0.0625
      9 C          -4.2595  -19.7713   21.6971 C.ar    1  UNL1        0.0402
     10 C          -3.9443  -18.8763   20.5353 C.ar    1  UNL1        0.1553
     11 N          -5.2256  -18.5903   19.8097 N.ar    1  UNL1       -0.1608
     12 N          -6.3326  -19.3086   20.5229 N.ar    1  UNL1       -0.2336
     13 C          -2.5864  -18.3582   20.1644 C.2     1  UNL1        0.2623
     14 N          -2.4545  -17.0523   19.4382 N.am    1  UNL1       -0.3240
     15 O          -1.3604  -19.1460   20.5198 O.2     1  UNL1       -0.2687
     16 H          -3.2592  -16.5353   19.2051 H       1  UNL1        0.1453
     17 H          -1.5632  -16.7123   19.1948 H       1  UNL1        0.1453
     18 C         -11.2250  -17.8226   21.4478 C.ar    1  UNL1        0.0039
     19 C         -11.8091  -18.4847   22.6604 C.ar    1  UNL1        0.0038
     20 C         -12.8057  -17.7516   23.5084 C.ar    1  UNL1        0.0714
     21 C         -13.2184  -16.3563   23.1439 C.ar    1  UNL1        0.0038
     22 C         -12.6343  -15.6942   21.9313 C.ar    1  UNL1        0.0038
     23 C         -11.6377  -16.4273   21.0832 C.ar    1  UNL1        0.0714
     24 C         -13.3898  -18.4138   24.7211 C.3     1  UNL1        0.4186
     25 F         -13.9738  -19.0760   25.9336 F       1  UNL1       -0.1659
     26 F         -12.0333  -18.9384   25.0880 F       1  UNL1       -0.1659
     27 F         -14.7463  -17.8892   24.3542 F       1  UNL1       -0.1659
     28 C         -11.0536  -15.7651   19.8706 C.3     1  UNL1        0.4186
     29 F         -10.4696  -15.1029   18.6580 F       1  UNL1       -0.1659
     30 F          -9.9402  -15.2112   20.7093 F       1  UNL1       -0.1659
     31 F         -12.1670  -16.3190   19.0319 F       1  UNL1       -0.1659
@<TRIPOS>BOND
     1     7     8    1
     2     8     9   ar
     3     9    10   ar
     4    10    13    1
     5    13    14   am
     6    13    15    2
     7    10    11   ar
     8    11    12   ar
     9    12     1    1
    10     1     2   ar
    11     2     3   ar
    12     3     4   ar
    13     4     5   ar
    14     5    18    1
    15    18    19   ar
    16    19    20   ar
    17    20    24    1
    18    24    25    1
    19    24    26    1
    20    24    27    1
    21    20    21   ar
    22    21    22   ar
    23    22    23   ar
    24    23    28    1
    25    28    29    1
    26    28    30    1
    27    28    31    1
    28     5     6   ar
    29    12     8   ar
    30     6     1   ar
    31    23    18   ar
    32    14    16    1
    33    14    17    1
@<TRIPOS>MOLECULE
*****
 31 33 0 0 0
SMALL
GASTEIGER

@<TRIPOS>ATOM
      1 C          -5.6279  -17.3816   22.8797 C.ar    1  UNL1        0.0824
      2 C          -5.4171  -16.5267   24.0940 C.ar    1  UNL1        0.0191
      3 C          -6.5951  -15.9251   24.8013 C.ar    1  UNL1        0.0015
      4 C          -7.9839  -16.1784   24.2942 C.ar    1  UNL1        0.0001
      5 C          -8.1947  -17.0333   23.0799 C.ar    1  UNL1        0.0014
      6 C          -7.0167  -17.6349   22.3726 C.ar    1  UNL1        0.0191
      7 C          -5.2999  -20.5130   22.0214 C.3     1  UNL1        0.0522
      8 C          -4.2991  -19.4226   21.7779 C.ar    1  UNL1        0.0625
      9 C          -2.9718  -19.5801   21.0971 C.ar    1  UNL1        0.0402
     10 C          -2.3022  -18.2380   21.0707 C.ar    1  UNL1        0.1553
     11 N          -3.2157  -17.2512   21.7353 N.ar    1  UNL1       -0.1608
     12 N          -4.4498  -17.9833   22.1723 N.ar    1  UNL1       -0.2336
     13 C          -0.9556  -17.9359   20.4831 C.2     1  UNL1        0.2623
     14 N          -0.4443  -16.5258   20.4650 N.am    1  UNL1       -0.3240
     15 O          -0.1203  -19.0439   19.9134 O.2     1  UNL1       -0.2687
     16 H          -0.9926  -15.7986   20.8389 H       1  UNL1        0.1453
     17 H           0.4395  -16.3276   20.0793 H       1  UNL1        0.1453
     18 C          -9.5835  -17.2866   22.5728 C.ar    1  UNL1        0.0039
     19 C         -10.1269  -16.4728   21.4361 C.ar    1  UNL1        0.0038
     20 C         -11.5157  -16.7261   20.9290 C.ar    1  UNL1        0.0714
     21 C         -12.3610  -17.7933   21.5587 C.ar    1  UNL1        0.0038
     22 C         -11.8176  -18.6071   22.6955 C.ar    1  UNL1        0.0038
     23 C         -10.4288  -18.3538   23.2025 C.ar    1  UNL1        0.0714
     24 C         -12.0592  -15.9122   19.7922 C.3     1  UNL1        0.4186
     25 F         -12.6026  -15.0983   18.6555 F       1  UNL1       -0.1659
     26 F         -10.7028  -15.9010   19.1518 F       1  UNL1       -0.1659
     27 F         -13.4155  -15.9234   20.4327 F       1  UNL1       -0.1659
     28 C          -9.8853  -19.1677   24.3393 C.3     1  UNL1        0.4186
     29 F          -9.3419  -19.9816   25.4761 F       1  UNL1       -0.1659
     30 F          -9.3247  -20.1582   23.3623 F       1  UNL1       -0.1659
     31 F         -10.4459  -18.1773   25.3164 F       1  UNL1       -0.1659
@<TRIPOS>BOND
     1     7     8    1
     2     8     9   ar
     3     9    10   ar
     4    10    13    1
     5    13    14   am
     6    13    15    2
     7    10    11   ar
     8    11    12   ar
     9    12     1    1
    10     1     2   ar
    11     2     3   ar
    12     3     4   ar
    13     4     5   ar
    14     5    18    1
    15    18    19   ar
    16    19    20   ar
    17    20    24    1
    18    24    25    1
    19    24    26    1
    20    24    27    1
    21    20    21   ar
    22    21    22   ar
    23    22    23   ar
    24    23    28    1
    25    28    29    1
    26    28    30    1
    27    28    31    1
    28     5     6   ar
    29    12     8   ar
    30     6     1   ar
    31    23    18   ar
    32    14    16    1
    33    14    17    1
@<TRIPOS>MOLECULE
*****
 31 33 0 0 0
SMALL
GASTEIGER

@<TRIPOS>ATOM
      1 C          -5.8643  -19.0315   22.0482 C.ar    1  UNL1        0.0824
      2 C          -6.0610  -20.4774   22.3953 C.ar    1  UNL1        0.0191
      3 C          -7.4328  -20.9912   22.7181 C.ar    1  UNL1        0.0015
      4 C          -8.6078  -20.0591   22.6937 C.ar    1  UNL1        0.0001
      5 C          -8.4110  -18.6132   22.3465 C.ar    1  UNL1        0.0014
      6 C          -7.0392  -18.0994   22.0238 C.ar    1  UNL1        0.0191
      7 C          -4.0316  -17.1240   23.9593 C.3     1  UNL1        0.0522
      8 C          -3.6501  -17.6408   22.6039 C.ar    1  UNL1        0.0625
      9 C          -2.3592  -17.3717   21.8889 C.ar    1  UNL1        0.0402
     10 C          -2.4038  -18.0821   20.5685 C.ar    1  UNL1        0.1553
     11 N          -3.7222  -18.7903   20.4675 N.ar    1  UNL1       -0.1608
     12 N          -4.4924  -18.5176   21.7254 N.ar    1  UNL1       -0.2336
     13 C          -1.3202  -18.0840   19.5313 C.2     1  UNL1        0.2623
     14 N          -1.5993  -17.5592   18.1540 N.am    1  UNL1       -0.3240
     15 O           0.0425  -18.6106   19.8713 O.2     1  UNL1       -0.2687
     16 H          -2.4938  -17.2136   17.9309 H       1  UNL1        0.1453
     17 H          -0.8881  -17.5604   17.4733 H       1  UNL1        0.1453
     18 C          -9.5860  -17.6811   22.3222 C.ar    1  UNL1        0.0039
     19 C         -10.1160  -17.1765   21.0128 C.ar    1  UNL1        0.0038
     20 C         -11.2910  -16.2444   20.9884 C.ar    1  UNL1        0.0714
     21 C         -11.9359  -15.8169   22.2734 C.ar    1  UNL1        0.0038
     22 C         -11.4059  -16.3214   23.5827 C.ar    1  UNL1        0.0038
     23 C         -10.2309  -17.2535   23.6071 C.ar    1  UNL1        0.0714
     24 C         -11.8210  -15.7399   19.6790 C.3     1  UNL1        0.4186
     25 F         -12.3510  -15.2354   18.3696 F       1  UNL1       -0.1659
     26 F         -13.2213  -16.0208   20.1375 F       1  UNL1       -0.1659
     27 F         -10.4208  -15.4590   19.2205 F       1  UNL1       -0.1659
     28 C          -9.7009  -17.7580   24.9166 C.3     1  UNL1        0.4186
     29 F          -9.1709  -18.2625   26.2259 F       1  UNL1       -0.1659
     30 F         -10.7611  -18.8189   24.9370 F       1  UNL1       -0.1659
     31 F          -8.6407  -16.6972   24.8961 F       1  UNL1       -0.1659
@<TRIPOS>BOND
     1     7     8    1
     2     8     9   ar
     3     9    10   ar
     4    10    13    1
     5    13    14   am
     6    13    15    2
     7    10    11   ar
     8    11    12   ar
     9    12     1    1
    10     1     2   ar
    11     2     3   ar
    12     3     4   ar
    13     4     5   ar
    14     5    18    1
    15    18    19   ar
    16    19    20   ar
    17    20    24    1
    18    24    25    1
    19    24    26    1
    20    24    27    1
    21    20    21   ar
    22    21    22   ar
    23    22    23   ar
    24    23    28    1
    25    28    29    1
    26    28    30    1
    27    28    31    1
    28     5     6   ar
    29    12     8   ar
    30     6     1   ar
    31    23    18   ar
    32    14    16    1
    33    14    17    1
@<TRIPOS>MOLECULE
*****
 31 33 0 0 0
SMALL
GASTEIGER

@<TRIPOS>ATOM
      1 C          -7.4858  -16.8683   23.3805 C.ar    1  UNL1        0.0824
      2 C          -7.0149  -15.9658   24.4820 C.ar    1  UNL1        0.0191
      3 C          -5.5462  -15.7591   24.7061 C.ar    1  UNL1        0.0015
      4 C          -4.5484  -16.4551   23.8285 C.ar    1  UNL1        0.0001
      5 C          -5.0193  -17.3577   22.7270 C.ar    1  UNL1        0.0014
      6 C          -6.4880  -17.5643   22.5029 C.ar    1  UNL1        0.0191
      7 C          -9.6021  -18.0941   25.5411 C.3     1  UNL1        0.0522
      8 C          -9.9273  -17.6384   24.1495 C.ar    1  UNL1        0.0625
      9 C         -11.2823  -17.6662   23.5067 C.ar    1  UNL1        0.0402
     10 C         -11.1470  -17.1199   22.1162 C.ar    1  UNL1        0.1553
     11 N          -9.7084  -16.7545   21.8997 N.ar    1  UNL1       -0.1608
     12 N          -8.9546  -17.0750   23.1564 N.ar    1  UNL1       -0.2336
     13 C         -12.2557  -16.9660   21.1177 C.2     1  UNL1        0.2623
     14 N         -12.0917  -16.0358   19.9524 N.am    1  UNL1       -0.3240
     15 O         -13.5283  -17.7423   21.2844 O.2     1  UNL1       -0.2687
     16 H         -11.2564  -15.5262   19.8430 H       1  UNL1        0.1453
     17 H         -12.8194  -15.9348   19.2970 H       1  UNL1        0.1453
     18 C          -4.0216  -18.0536   21.8494 C.ar    1  UNL1        0.0039
     19 C          -2.7132  -17.3928   21.5311 C.ar    1  UNL1        0.0038
     20 C          -1.7154  -18.0888   20.6535 C.ar    1  UNL1        0.0714
     21 C          -2.0260  -19.4455   20.0943 C.ar    1  UNL1        0.0038
     22 C          -3.3344  -20.1063   20.4127 C.ar    1  UNL1        0.0038
     23 C          -4.3322  -19.4103   21.2902 C.ar    1  UNL1        0.0714
     24 C          -0.4069  -17.4279   20.3352 C.3     1  UNL1        0.4186
     25 F           0.9015  -16.7672   20.0168 F       1  UNL1       -0.1659
     26 F          -0.9047  -16.1498   20.9422 F       1  UNL1       -0.1659
     27 F           0.0909  -18.7061   19.7281 F       1  UNL1       -0.1659
     28 C          -5.6407  -20.0712   21.6086 C.3     1  UNL1        0.4186
     29 F          -6.9491  -20.7320   21.9268 F       1  UNL1       -0.1659
     30 F          -5.1255  -20.4359   22.9692 F       1  UNL1       -0.1659
     31 F          -6.1559  -19.7065   20.2479 F       1  UNL1       -0.1659
@<TRIPOS>BOND
     1     7     8    1
     2     8     9   ar
     3     9    10   ar
     4    10    13    1
     5    13    14   am
     6    13    15    2
     7    10    11   ar
     8    11    12   ar
     9    12     1    1
    10     1     2   ar
    11     2     3   ar
    12     3     4   ar
    13     4     5   ar
    14     5    18    1
    15    18    19   ar
    16    19    20   ar
    17    20    24    1
    18    24    25    1
    19    24    26    1
    20    24    27    1
    21    20    21   ar
    22    21    22   ar
    23    22    23   ar
    24    23    28    1
    25    28    29    1
    26    28    30    1
    27    28    31    1
    28     5     6   ar
    29    12     8   ar
    30     6     1   ar
    31    23    18   ar
    32    14    16    1
    33    14    17    1
@<TRIPOS>MOLECULE
*****
 31 33 0 0 0
SMALL
GASTEIGER

@<TRIPOS>ATOM
      1 C          -7.3491  -17.5966   22.4889 C.ar    1  UNL1        0.0824
      2 C          -6.8971  -16.5436   23.4568 C.ar    1  UNL1        0.0191
      3 C          -7.9043  -15.8122   24.2937 C.ar    1  UNL1        0.0015
      4 C          -9.3636  -16.1338   24.1628 C.ar    1  UNL1        0.0001
      5 C          -9.8156  -17.1869   23.1950 C.ar    1  UNL1        0.0014
      6 C          -8.8084  -17.9183   22.3581 C.ar    1  UNL1        0.0191
      7 C          -8.0101  -19.5219   19.9381 C.3     1  UNL1        0.0522
      8 C          -6.6457  -19.2130   20.4795 C.ar    1  UNL1        0.0625
      9 C          -5.3456  -19.7349   19.9434 C.ar    1  UNL1        0.0402
     10 C          -4.2382  -19.1725   20.7846 C.ar    1  UNL1        0.1553
     11 N          -4.8540  -18.3031   21.8405 N.ar    1  UNL1       -0.1608
     12 N          -6.3419  -18.3281   21.6519 N.ar    1  UNL1       -0.2336
     13 C          -2.7725  -19.4337   20.6019 C.2     1  UNL1        0.2623
     14 N          -2.0313  -20.2774   21.5963 N.am    1  UNL1       -0.3240
     15 O          -2.0479  -18.8512   19.4248 O.2     1  UNL1       -0.2687
     16 H          -2.5069  -20.6597   22.3689 H       1  UNL1        0.1453
     17 H          -1.0693  -20.4488   21.4764 H       1  UNL1        0.1453
     18 C         -11.2749  -17.5085   23.0641 C.ar    1  UNL1        0.0039
     19 C         -12.0691  -17.8962   24.2761 C.ar    1  UNL1        0.0038
     20 C         -13.5283  -18.2178   24.1452 C.ar    1  UNL1        0.0714
     21 C         -14.1934  -18.1518   22.8023 C.ar    1  UNL1        0.0038
     22 C         -13.3992  -17.7640   21.5904 C.ar    1  UNL1        0.0038
     23 C         -11.9399  -17.4424   21.7213 C.ar    1  UNL1        0.0714
     24 C         -14.3225  -18.6056   25.3572 C.3     1  UNL1        0.4186
     25 F         -15.1167  -18.9933   26.5692 F       1  UNL1       -0.1659
     26 F         -13.0696  -18.5941   26.1819 F       1  UNL1       -0.1659
     27 F         -15.5754  -18.6171   24.5325 F       1  UNL1       -0.1659
     28 C         -11.1457  -17.0547   20.5092 C.3     1  UNL1        0.4186
     29 F         -10.3516  -16.6669   19.2972 F       1  UNL1       -0.1659
     30 F         -11.1698  -18.4785   20.0379 F       1  UNL1       -0.1659
     31 F         -11.1217  -15.6309   20.9805 F       1  UNL1       -0.1659
@<TRIPOS>BOND
     1     7     8    1
     2     8     9   ar
     3     9    10   ar
     4    10    13    1
     5    13    14   am
     6    13    15    2
     7    10    11   ar
     8    11    12   ar
     9    12     1    1
    10     1     2   ar
    11     2     3   ar
    12     3     4   ar
    13     4     5   ar
    14     5    18    1
    15    18    19   ar
    16    19    20   ar
    17    20    24    1
    18    24    25    1
    19    24    26    1
    20    24    27    1
    21    20    21   ar
    22    21    22   ar
    23    22    23   ar
    24    23    28    1
    25    28    29    1
    26    28    30    1
    27    28    31    1
    28     5     6   ar
    29    12     8   ar
    30     6     1   ar
    31    23    18   ar
    32    14    16    1
    33    14    17    1
@<TRIPOS>MOLECULE
*****
 31 33 0 0 0
SMALL
GASTEIGER

@<TRIPOS>ATOM
      1 C          -7.8412  -18.7298   22.2412 C.ar    1  UNL1        0.0824
      2 C          -7.8120  -20.1976   22.5487 C.ar    1  UNL1        0.0191
      3 C          -6.5130  -20.9466   22.5083 C.ar    1  UNL1        0.0015
      4 C          -5.2433  -20.2279   22.1603 C.ar    1  UNL1        0.0001
      5 C          -5.2725  -18.7601   21.8527 C.ar    1  UNL1        0.0014
      6 C          -6.5714  -18.0110   21.8931 C.ar    1  UNL1        0.0191
      7 C          -8.7769  -16.6364   24.5632 C.3     1  UNL1        0.0522
      8 C          -9.5702  -17.0185   23.3489 C.ar    1  UNL1        0.0625
      9 C         -10.9329  -16.5055   22.9887 C.ar    1  UNL1        0.0402
     10 C         -11.3451  -17.1506   21.6987 C.ar    1  UNL1        0.1553
     11 N         -10.2371  -18.0624   21.2617 N.ar    1  UNL1       -0.1608
     12 N          -9.1402  -17.9807   22.2816 N.ar    1  UNL1       -0.2336
     13 C         -12.6382  -16.9238   20.9732 C.2     1  UNL1        0.2623
     14 N         -12.6991  -15.9473   19.8362 N.am    1  UNL1       -0.3240
     15 O         -13.8705  -17.6735   21.3847 O.2     1  UNL1       -0.2687
     16 H         -11.8902  -15.4552   19.5662 H       1  UNL1        0.1453
     17 H         -13.5478  -15.7984   19.3601 H       1  UNL1        0.1453
     18 C          -4.0028  -18.0413   21.5047 C.ar    1  UNL1        0.0039
     19 C          -3.3912  -18.2143   20.1460 C.ar    1  UNL1        0.0038
     20 C          -2.1214  -17.4955   19.7980 C.ar    1  UNL1        0.0714
     21 C          -1.4633  -16.6037   20.8086 C.ar    1  UNL1        0.0038
     22 C          -2.0749  -16.4307   22.1673 C.ar    1  UNL1        0.0038
     23 C          -3.3446  -17.1494   22.5153 C.ar    1  UNL1        0.0714
     24 C          -1.5099  -17.6686   18.4393 C.3     1  UNL1        0.4186
     25 F          -0.8983  -17.8417   17.0806 F       1  UNL1       -0.1659
     26 F          -2.7014  -17.0021   17.8180 F       1  UNL1       -0.1659
     27 F          -0.3183  -18.3351   19.0605 F       1  UNL1       -0.1659
     28 C          -3.9562  -16.9764   23.8741 C.3     1  UNL1        0.4186
     29 F          -4.5677  -16.8032   25.2327 F       1  UNL1       -0.1659
     30 F          -3.3475  -18.2749   24.3135 F       1  UNL1       -0.1659
     31 F          -4.5649  -15.6778   23.4346 F       1  UNL1       -0.1659
@<TRIPOS>BOND
     1     7     8    1
     2     8     9   ar
     3     9    10   ar
     4    10    13    1
     5    13    14   am
     6    13    15    2
     7    10    11   ar
     8    11    12   ar
     9    12     1    1
    10     1     2   ar
    11     2     3   ar
    12     3     4   ar
    13     4     5   ar
    14     5    18    1
    15    18    19   ar
    16    19    20   ar
    17    20    24    1
    18    24    25    1
    19    24    26    1
    20    24    27    1
    21    20    21   ar
    22    21    22   ar
    23    22    23   ar
    24    23    28    1
    25    28    29    1
    26    28    30    1
    27    28    31    1
    28     5     6   ar
    29    12     8   ar
    30     6     1   ar
    31    23    18   ar
    32    14    16    1
    33    14    17    1
@<TRIPOS>MOLECULE
*****
 31 33 0 0 0
SMALL
GASTEIGER

@<TRIPOS>ATOM
      1 C          -9.5527  -16.9998   23.4997 C.ar    1  UNL1        0.0824
      2 C          -9.0154  -15.8758   24.3352 C.ar    1  UNL1        0.0191
      3 C          -7.5386  -15.6178   24.3849 C.ar    1  UNL1        0.0015
      4 C          -6.5991  -16.4838   23.5990 C.ar    1  UNL1        0.0001
      5 C          -7.1364  -17.6077   22.7636 C.ar    1  UNL1        0.0014
      6 C          -8.6132  -17.8657   22.7139 C.ar    1  UNL1        0.0191
      7 C         -11.5219  -16.3934   20.9690 C.3     1  UNL1        0.0522
      8 C         -11.9346  -16.9791   22.2868 C.ar    1  UNL1        0.0625
      9 C         -13.3250  -17.3889   22.6727 C.ar    1  UNL1        0.0402
     10 C         -13.2792  -17.9209   24.0745 C.ar    1  UNL1        0.1553
     11 N         -11.8605  -17.8399   24.5549 N.ar    1  UNL1       -0.1608
     12 N         -11.0295  -17.2578   23.4500 N.ar    1  UNL1       -0.2336
     13 C         -14.4470  -18.4424   24.8583 C.2     1  UNL1        0.2623
     14 N         -14.3771  -18.5063   26.3553 N.am    1  UNL1       -0.3240
     15 O         -15.6847  -18.8999   24.1450 O.2     1  UNL1       -0.2687
     16 H         -13.5648  -18.2061   26.8234 H       1  UNL1        0.1453
     17 H         -15.1436  -18.8486   26.8697 H       1  UNL1        0.1453
     18 C          -6.1969  -18.4736   21.9777 C.ar    1  UNL1        0.0039
     19 C          -4.7223  -18.2006   22.0083 C.ar    1  UNL1        0.0038
     20 C          -3.7828  -19.0665   21.2225 C.ar    1  UNL1        0.0714
     21 C          -4.3179  -20.2054   20.4061 C.ar    1  UNL1        0.0038
     22 C          -5.7925  -20.4784   20.3755 C.ar    1  UNL1        0.0038
     23 C          -6.7320  -19.6125   21.1614 C.ar    1  UNL1        0.0714
     24 C          -2.3081  -18.7935   21.2530 C.3     1  UNL1        0.4186
     25 F          -0.8335  -18.5205   21.2836 F       1  UNL1       -0.1659
     26 F          -2.3870  -18.5321   22.7279 F       1  UNL1       -0.1659
     27 F          -2.2292  -19.0549   19.7781 F       1  UNL1       -0.1659
     28 C          -8.2067  -19.8855   21.1308 C.3     1  UNL1        0.4186
     29 F          -9.6813  -20.1585   21.1002 F       1  UNL1       -0.1659
     30 F          -8.1060  -20.5779   22.4576 F       1  UNL1       -0.1659
     31 F          -8.3073  -19.1932   19.8040 F       1  UNL1       -0.1659
@<TRIPOS>BOND
     1     7     8    1
     2     8     9   ar
     3     9    10   ar
     4    10    13    1
     5    13    14   am
     6    13    15    2
     7    10    11   ar
     8    11    12   ar
     9    12     1    1
    10     1     2   ar
    11     2     3   ar
    12     3     4   ar
    13     4     5   ar
    14     5    18    1
    15    18    19   ar
    16    19    20   ar
    17    20    24    1
    18    24    25    1
    19    24    26    1
    20    24    27    1
    21    20    21   ar
    22    21    22   ar
    23    22    23   ar
    24    23    28    1
    25    28    29    1
    26    28    30    1
    27    28    31    1
    28     5     6   ar
    29    12     8   ar
    30     6     1   ar
    31    23    18   ar
    32    14    16    1
    33    14    17    1
@<TRIPOS>MOLECULE
*****
 31 33 0 0 0
SMALL
GASTEIGER

@<TRIPOS>ATOM
      1 C          -5.0781  -19.2964   20.9555 C.ar    1  UNL1        0.0824
      2 C          -5.3831  -20.4799   20.0858 C.ar    1  UNL1        0.0191
      3 C          -6.7885  -20.9942   19.9852 C.ar    1  UNL1        0.0015
      4 C          -7.8889  -20.3250   20.7542 C.ar    1  UNL1        0.0001
      5 C          -7.5839  -19.1416   21.6238 C.ar    1  UNL1        0.0014
      6 C          -6.1784  -18.6273   21.7245 C.ar    1  UNL1        0.0191
      7 C          -3.6946  -18.0027   23.6129 C.3     1  UNL1        0.0522
      8 C          -3.0367  -18.1874   22.2776 C.ar    1  UNL1        0.0625
      9 C          -1.6273  -17.8099   21.9294 C.ar    1  UNL1        0.0402
     10 C          -1.3922  -18.1712   20.4926 C.ar    1  UNL1        0.1553
     11 N          -2.6562  -18.7721   19.9530 N.ar    1  UNL1       -0.1608
     12 N          -3.6725  -18.7821   21.0561 N.ar    1  UNL1       -0.2336
     13 C          -0.1169  -17.9675   19.7296 C.2     1  UNL1        0.2623
     14 N          -0.1542  -17.7882   18.2408 N.am    1  UNL1       -0.3240
     15 O           1.1956  -17.9431   20.4553 O.2     1  UNL1       -0.2687
     16 H          -1.0157  -17.8042   17.7645 H       1  UNL1        0.1453
     17 H           0.6828  -17.6545   17.7400 H       1  UNL1        0.1453
     18 C          -8.6843  -18.4724   22.3928 C.ar    1  UNL1        0.0039
     19 C          -8.3805  -17.7811   23.6889 C.ar    1  UNL1        0.0038
     20 C          -9.4809  -17.1119   24.4578 C.ar    1  UNL1        0.0714
     21 C         -10.8851  -17.1341   23.9308 C.ar    1  UNL1        0.0038
     22 C         -11.1888  -17.8254   22.6347 C.ar    1  UNL1        0.0038
     23 C         -10.0884  -18.4945   21.8657 C.ar    1  UNL1        0.0714
     24 C          -9.1771  -16.4206   25.7540 C.3     1  UNL1        0.4186
     25 F          -8.8733  -15.7293   27.0500 F       1  UNL1       -0.1659
     26 F          -9.1964  -17.7421   26.4634 F       1  UNL1       -0.1659
     27 F          -9.1578  -15.0992   25.0445 F       1  UNL1       -0.1659
     28 C         -10.3922  -19.1859   20.5696 C.3     1  UNL1        0.4186
     29 F         -10.6960  -19.8771   19.2735 F       1  UNL1       -0.1659
     30 F         -10.8694  -20.3911   21.3243 F       1  UNL1       -0.1659
     31 F          -9.9151  -17.9806   19.8150 F       1  UNL1       -0.1659
@<TRIPOS>BOND
     1     7     8    1
     2     8     9   ar
     3     9    10   ar
     4    10    13    1
     5    13    14   am
     6    13    15    2
     7    10    11   ar
     8    11    12   ar
     9    12     1    1
    10     1     2   ar
    11     2     3   ar
    12     3     4   ar
    13     4     5   ar
    14     5    18    1
    15    18    19   ar
    16    19    20   ar
    17    20    24    1
    18    24    25    1
    19    24    26    1
    20    24    27    1
    21    20    21   ar
    22    21    22   ar
    23    22    23   ar
    24    23    28    1
    25    28    29    1
    26    28    30    1
    27    28    31    1
    28     5     6   ar
    29    12     8   ar
    30     6     1   ar
    31    23    18   ar
    32    14    16    1
    33    14    17    1
@<TRIPOS>MOLECULE
*****
 31 33 0 0 0
SMALL
GASTEIGER

@<TRIPOS>ATOM
      1 C           7.5715   -4.4682   22.6808 C.ar    1  UNL1        0.0824
      2 C           8.7848   -4.2474   21.8270 C.ar    1  UNL1        0.0191
      3 C           8.6960   -3.3776   20.6082 C.ar    1  UNL1        0.0015
      4 C           7.3938   -2.7287   20.2432 C.ar    1  UNL1        0.0001
      5 C           6.1805   -2.9495   21.0970 C.ar    1  UNL1        0.0014
      6 C           6.2693   -3.8193   22.3158 C.ar    1  UNL1        0.0191
      7 C           8.9596   -7.4176   22.8358 C.3     1  UNL1        0.0522
      8 C           8.2984   -6.6937   23.9709 C.ar    1  UNL1        0.0625
      9 C           8.1591   -7.1983   25.3766 C.ar    1  UNL1        0.0402
     10 C           7.4349   -6.1545   26.1742 C.ar    1  UNL1        0.1553
     11 N           7.1267   -5.0048   25.2615 N.ar    1  UNL1       -0.1608
     12 N           7.6603   -5.3380   23.8997 N.ar    1  UNL1       -0.2336
     13 C           7.0811   -6.2446   27.6291 C.2     1  UNL1        0.2623
     14 N           5.8050   -5.6357   28.1298 N.am    1  UNL1       -0.3240
     15 O           8.0035   -6.9437   28.5833 O.2     1  UNL1       -0.2687
     16 H           5.1996   -5.1768   27.5035 H       1  UNL1        0.1453
     17 H           5.5728   -5.6948   29.0847 H       1  UNL1        0.1453
     18 C           4.8783   -2.3006   20.7320 C.ar    1  UNL1        0.0039
     19 C           4.4674   -1.0190   21.3941 C.ar    1  UNL1        0.0038
     20 C           3.1652   -0.3701   21.0291 C.ar    1  UNL1        0.0714
     21 C           2.2739   -1.0028   20.0020 C.ar    1  UNL1        0.0038
     22 C           2.6847   -2.2845   19.3399 C.ar    1  UNL1        0.0038
     23 C           3.9869   -2.9334   19.7049 C.ar    1  UNL1        0.0714
     24 C           2.7544    0.9117   21.6912 C.3     1  UNL1        0.4186
     25 F           2.3437    2.1934   22.3533 F       1  UNL1       -0.1659
     26 F           1.9877    0.1346   22.7199 F       1  UNL1       -0.1659
     27 F           3.5211    1.6888   20.6626 F       1  UNL1       -0.1659
     28 C           4.3977   -4.2152   19.0427 C.3     1  UNL1        0.4186
     29 F           4.8086   -5.4969   18.3805 F       1  UNL1       -0.1659
     30 F           3.6800   -4.9940   20.1049 F       1  UNL1       -0.1659
     31 F           5.1154   -3.4364   17.9805 F       1  UNL1       -0.1659
@<TRIPOS>BOND
     1     7     8    1
     2     8     9   ar
     3     9    10   ar
     4    10    13    1
     5    13    14   am
     6    13    15    2
     7    10    11   ar
     8    11    12   ar
     9    12     1    1
    10     1     2   ar
    11     2     3   ar
    12     3     4   ar
    13     4     5   ar
    14     5    18    1
    15    18    19   ar
    16    19    20   ar
    17    20    24    1
    18    24    25    1
    19    24    26    1
    20    24    27    1
    21    20    21   ar
    22    21    22   ar
    23    22    23   ar
    24    23    28    1
    25    28    29    1
    26    28    30    1
    27    28    31    1
    28     5     6   ar
    29    12     8   ar
    30     6     1   ar
    31    23    18   ar
    32    14    16    1
    33    14    17    1
