@<TRIPOS>MOLECULE
*****
 39 43 0 0 0
SMALL
GASTEIGER

@<TRIPOS>ATOM
      1 C           4.2727   -1.5069   24.2460 C.3     1  UNL1        0.1522
      2 C           3.4468   -1.3224   23.0075 C.3     1  UNL1        0.0313
      3 C           4.0344   -2.1805   21.9265 C.3     1  UNL1        0.0264
      4 C           5.2234   -2.8954   22.4970 C.3     1  UNL1        0.0942
      5 N           5.3706   -2.4791   23.9305 N.am    1  UNL1       -0.2713
      6 C           6.4298   -2.9518   24.8816 C.2     1  UNL1        0.2527
      7 O           6.4506   -2.4451   26.2933 O.2     1  UNL1       -0.2726
      8 O           4.3163    0.6294   25.7240 O.2     1  UNL1       -0.2730
      9 C           4.0412   -0.8369   25.5680 C.2     1  UNL1        0.2442
     10 N           3.5347   -1.6331   26.7339 N.am    1  UNL1       -0.2826
     11 H           3.3542   -2.5955   26.6315 H       1  UNL1        0.1549
     12 C           3.3032   -0.9631   28.0559 C.ar    1  UNL1        0.0505
     13 C           4.4669   -0.6287   28.9412 C.ar    1  UNL1        0.0178
     14 C           4.2354    0.0413   30.2631 C.ar    1  UNL1        0.0388
     15 C           2.8401    0.3769   30.6996 C.ar    1  UNL1        0.1454
     16 C           1.6764    0.0425   29.8143 C.ar    1  UNL1        0.0388
     17 C           1.9079   -0.6275   28.4924 C.ar    1  UNL1        0.0178
     18 O           2.6086    1.0470   32.0216 O.3     1  UNL1       -0.4535
     19 C           3.4084    0.6346   33.2217 C.ar    1  UNL1        0.1454
     20 C           3.6933    1.6267   34.3101 C.ar    1  UNL1        0.0398
     21 C           4.4932    1.2143   35.5102 C.ar    1  UNL1        0.0328
     22 C           5.0081   -0.1901   35.6219 C.ar    1  UNL1        0.1403
     23 F           5.8079   -0.6024   36.8220 F       1  UNL1       -0.2042
     24 C           4.7232   -1.1821   34.5335 C.ar    1  UNL1        0.0328
     25 C           3.9234   -0.7698   33.3334 C.ar    1  UNL1        0.0398
     26 C           3.5228   -2.3024   20.5217 C.3     1  UNL1        0.0281
     27 C           2.7846   -1.1593   19.8905 C.ar    1  UNL1       -0.0220
     28 C           1.3792   -0.8494   20.3133 C.ar    1  UNL1       -0.0020
     29 C           0.6410    0.2937   19.6821 C.ar    1  UNL1        0.0293
     30 C           1.3082    1.1268   18.6282 C.ar    1  UNL1        0.1401
     31 F           0.5700    2.2699   17.9970 F       1  UNL1       -0.2042
     32 C           2.7137    0.8169   18.2055 C.ar    1  UNL1        0.0293
     33 C           3.4519   -0.3262   18.8367 C.ar    1  UNL1       -0.0020
     34 C           7.4683   -3.9314   24.4211 C.3     1  UNL1        0.2340
     35 N           7.4751   -5.3289   24.9659 N.ar    1  UNL1       -0.1607
     36 N           8.1312   -6.5193   24.3316 N.ar    1  UNL1       -0.1486
     37 C           7.8885   -7.7076   25.2143 C.ar    1  UNL1        0.1442
     38 C           7.0825   -7.2514   26.3942 C.ar    1  UNL1        0.1442
     39 N           6.8269   -5.7814   26.2407 N.ar    1  UNL1       -0.1486
@<TRIPOS>BOND
     1     8     9    2
     2     9    10   am
     3    10    12    1
     4    12    13   ar
     5    13    14   ar
     6    14    15   ar
     7    15    18    1
     8    18    19    1
     9    19    20   ar
    10    20    21   ar
    11    21    22   ar
    12    22    23    1
    13    22    24   ar
    14    24    25   ar
    15    15    16   ar
    16    16    17   ar
    17     1     9    1
    18     1     2    1
    19     2     3    1
    20     3    26    1
    21    26    27    1
    22    27    28   ar
    23    28    29   ar
    24    29    30   ar
    25    30    31    1
    26    30    32   ar
    27    32    33   ar
    28     3     4    1
    29     4     5    1
    30     5     6   am
    31     6     7    2
    32     6    34    1
    33    34    35    1
    34    35    36   ar
    35    36    37   ar
    36    37    38   ar
    37    38    39   ar
    38    17    12   ar
    39     5     1    1
    40    39    35   ar
    41    25    19   ar
    42    33    27   ar
    43    10    11    1
@<TRIPOS>MOLECULE
*****
 39 43 0 0 0
SMALL
GASTEIGER

@<TRIPOS>ATOM
      1 C           2.1721    1.6438   32.4205 C.3     1  UNL1        0.1522
      2 C           2.2422    2.5744   33.5949 C.3     1  UNL1        0.0313
      3 C           3.2247    2.0081   34.5769 C.3     1  UNL1        0.0264
      4 C           3.7617    0.7277   34.0093 C.3     1  UNL1        0.0942
      5 N           3.1112    0.5025   32.6766 N.am    1  UNL1       -0.2713
      6 C           3.3566   -0.6598   31.7608 C.2     1  UNL1        0.2527
      7 O           2.6285   -0.7506   30.4525 O.2     1  UNL1       -0.2726
      8 O          -0.1762    1.6835   31.3096 O.2     1  UNL1       -0.2730
      9 C           1.3135    1.8231   31.2036 C.2     1  UNL1        0.2442
     10 N           1.9447    2.1420   29.8808 N.am    1  UNL1       -0.2826
     11 H           2.9224    2.2337   29.8112 H       1  UNL1        0.1549
     12 C           1.0861    2.3214   28.6639 C.ar    1  UNL1        0.0505
     13 C           0.3978    1.1381   28.0507 C.ar    1  UNL1        0.0178
     14 C          -0.4608    1.3175   26.8339 C.ar    1  UNL1        0.0388
     15 C          -0.6309    2.6801   26.2302 C.ar    1  UNL1        0.1454
     16 C           0.0575    3.8633   26.8434 C.ar    1  UNL1        0.0388
     17 C           0.9160    3.6840   28.0602 C.ar    1  UNL1        0.0178
     18 O          -1.4895    2.8594   25.0133 O.3     1  UNL1       -0.4535
     19 C          -2.8633    3.4468   25.1447 C.ar    1  UNL1        0.1454
     20 C          -3.3662    3.8855   26.4881 C.ar    1  UNL1        0.0398
     21 C          -4.7402    4.4729   26.6195 C.ar    1  UNL1        0.0328
     22 C          -5.6112    4.6217   25.4074 C.ar    1  UNL1        0.1403
     23 F          -6.9851    5.2091   25.5388 F       1  UNL1       -0.2042
     24 C          -5.1084    4.1831   24.0640 C.ar    1  UNL1        0.0328
     25 C          -3.7345    3.5957   23.9326 C.ar    1  UNL1        0.0398
     26 C           3.6036    2.6157   35.8950 C.3     1  UNL1        0.0281
     27 C           2.8072    2.2954   37.1251 C.ar    1  UNL1       -0.0220
     28 C           3.0277    0.9977   37.8444 C.ar    1  UNL1       -0.0020
     29 C           2.2313    0.6774   39.0745 C.ar    1  UNL1        0.0293
     30 C           1.2145    1.6548   39.5852 C.ar    1  UNL1        0.1401
     31 F           0.4181    1.3345   40.8154 F       1  UNL1       -0.2042
     32 C           0.9940    2.9525   38.8658 C.ar    1  UNL1        0.0293
     33 C           1.7904    3.2727   37.6358 C.ar    1  UNL1       -0.0020
     34 C           4.3301   -1.7313   32.1532 C.3     1  UNL1        0.2340
     35 N           5.4870   -2.0588   31.2563 N.ar    1  UNL1       -0.1607
     36 N           5.8704   -1.3219   30.0073 N.ar    1  UNL1       -0.1486
     37 C           7.0839   -1.9884   29.4300 C.ar    1  UNL1        0.1442
     38 C           7.4504   -3.1371   30.3222 C.ar    1  UNL1        0.1442
     39 N           6.4635   -3.1807   31.4509 N.ar    1  UNL1       -0.1486
@<TRIPOS>BOND
     1     8     9    2
     2     9    10   am
     3    10    12    1
     4    12    13   ar
     5    13    14   ar
     6    14    15   ar
     7    15    18    1
     8    18    19    1
     9    19    20   ar
    10    20    21   ar
    11    21    22   ar
    12    22    23    1
    13    22    24   ar
    14    24    25   ar
    15    15    16   ar
    16    16    17   ar
    17     1     9    1
    18     1     2    1
    19     2     3    1
    20     3    26    1
    21    26    27    1
    22    27    28   ar
    23    28    29   ar
    24    29    30   ar
    25    30    31    1
    26    30    32   ar
    27    32    33   ar
    28     3     4    1
    29     4     5    1
    30     5     6   am
    31     6     7    2
    32     6    34    1
    33    34    35    1
    34    35    36   ar
    35    36    37   ar
    36    37    38   ar
    37    38    39   ar
    38    17    12   ar
    39     5     1    1
    40    39    35   ar
    41    25    19   ar
    42    33    27   ar
    43    10    11    1
@<TRIPOS>MOLECULE
*****
 39 43 0 0 0
SMALL
GASTEIGER

@<TRIPOS>ATOM
      1 C           4.2223   -1.5088   24.2367 C.3     1  UNL1        0.1522
      2 C           3.4125   -1.3219   22.9880 C.3     1  UNL1        0.0313
      3 C           4.0266   -2.1617   21.9073 C.3     1  UNL1        0.0264
      4 C           5.2159   -2.8676   22.4882 C.3     1  UNL1        0.0942
      5 N           5.3368   -2.4641   23.9279 N.am    1  UNL1       -0.2713
      6 C           6.3877   -2.9333   24.8898 C.2     1  UNL1        0.2527
      7 O           6.3814   -2.4408   26.3066 O.2     1  UNL1       -0.2726
      8 O           4.1426    0.6261   25.7152 O.2     1  UNL1       -0.2730
      9 C           3.9630   -0.8552   25.5617 C.2     1  UNL1        0.2442
     10 N           3.5241   -1.6828   26.7332 N.am    1  UNL1       -0.2826
     11 H           3.4063   -2.6551   26.6324 H       1  UNL1        0.1549
     12 C           3.2648   -1.0292   28.0582 C.ar    1  UNL1        0.0505
     13 C           1.9007   -0.4919   28.3753 C.ar    1  UNL1        0.0178
     14 C           1.6415    0.1617   29.7002 C.ar    1  UNL1        0.0388
     15 C           2.7463    0.2780   30.7081 C.ar    1  UNL1        0.1454
     16 C           4.1104   -0.2593   30.3910 C.ar    1  UNL1        0.0388
     17 C           4.3696   -0.9129   29.0661 C.ar    1  UNL1        0.0178
     18 O           2.4870    0.9316   32.0331 O.3     1  UNL1       -0.4535
     19 C           2.0915    2.3773   32.0916 C.ar    1  UNL1        0.1454
     20 C           0.6419    2.7607   32.0491 C.ar    1  UNL1        0.0398
     21 C           0.2465    4.2065   32.1076 C.ar    1  UNL1        0.0328
     22 C           1.3005    5.2689   32.2086 C.ar    1  UNL1        0.1403
     23 F           0.9051    6.7146   32.2671 F       1  UNL1       -0.2042
     24 C           2.7501    4.8855   32.2511 C.ar    1  UNL1        0.0328
     25 C           3.1456    3.4398   32.1926 C.ar    1  UNL1        0.0398
     26 C           3.5374   -2.2756   20.4939 C.3     1  UNL1        0.0281
     27 C           2.7858   -1.1391   19.8665 C.ar    1  UNL1       -0.0220
     28 C           3.4362   -0.3074   18.8011 C.ar    1  UNL1       -0.0020
     29 C           2.6846    0.8291   18.1737 C.ar    1  UNL1        0.0293
     30 C           1.2827    1.1337   18.6118 C.ar    1  UNL1        0.1401
     31 F           0.5311    2.2702   17.9844 F       1  UNL1       -0.2042
     32 C           0.6324    0.3019   19.6773 C.ar    1  UNL1        0.0293
     33 C           1.3839   -0.8345   20.3046 C.ar    1  UNL1       -0.0020
     34 C           7.4450   -3.8952   24.4350 C.3     1  UNL1        0.2340
     35 N           7.4661   -5.2957   24.9719 N.ar    1  UNL1       -0.1607
     36 N           8.1070   -6.4822   24.3152 N.ar    1  UNL1       -0.1486
     37 C           7.8869   -7.6753   25.1973 C.ar    1  UNL1        0.1442
     38 C           7.1101   -7.2261   26.3992 C.ar    1  UNL1        0.1442
     39 N           6.8500   -5.7554   26.2600 N.ar    1  UNL1       -0.1486
@<TRIPOS>BOND
     1     8     9    2
     2     9    10   am
     3    10    12    1
     4    12    13   ar
     5    13    14   ar
     6    14    15   ar
     7    15    18    1
     8    18    19    1
     9    19    20   ar
    10    20    21   ar
    11    21    22   ar
    12    22    23    1
    13    22    24   ar
    14    24    25   ar
    15    15    16   ar
    16    16    17   ar
    17     1     9    1
    18     1     2    1
    19     2     3    1
    20     3    26    1
    21    26    27    1
    22    27    28   ar
    23    28    29   ar
    24    29    30   ar
    25    30    31    1
    26    30    32   ar
    27    32    33   ar
    28     3     4    1
    29     4     5    1
    30     5     6   am
    31     6     7    2
    32     6    34    1
    33    34    35    1
    34    35    36   ar
    35    36    37   ar
    36    37    38   ar
    37    38    39   ar
    38    17    12   ar
    39     5     1    1
    40    39    35   ar
    41    25    19   ar
    42    33    27   ar
    43    10    11    1
@<TRIPOS>MOLECULE
*****
 39 43 0 0 0
SMALL
GASTEIGER

@<TRIPOS>ATOM
      1 C           5.6496   -1.5534   27.5998 C.3     1  UNL1        0.1522
      2 C           6.5340   -2.2357   28.6010 C.3     1  UNL1        0.0313
      3 C           6.1120   -1.7922   29.9704 C.3     1  UNL1        0.0264
      4 C           4.9668   -0.8359   29.8155 C.3     1  UNL1        0.0942
      5 N           4.6811   -0.6883   28.3504 N.am    1  UNL1       -0.2713
      6 C           3.6141    0.1732   27.7426 C.2     1  UNL1        0.2527
      7 O           3.4461    0.2199   26.2528 O.2     1  UNL1       -0.2726
      8 O           6.9199   -1.2076   25.3600 O.2     1  UNL1       -0.2730
      9 C           5.7213   -1.7090   26.1096 C.2     1  UNL1        0.2442
     10 N           4.5943   -2.3658   25.3690 N.am    1  UNL1       -0.2826
     11 H           3.8076   -2.6948   25.8610 H       1  UNL1        0.1549
     12 C           4.6660   -2.5214   23.8788 C.ar    1  UNL1        0.0505
     13 C           3.8667   -1.6145   22.9907 C.ar    1  UNL1        0.0178
     14 C           3.9384   -1.7701   21.5006 C.ar    1  UNL1        0.0388
     15 C           4.8094   -2.8326   20.8985 C.ar    1  UNL1        0.1454
     16 C           5.6087   -3.7395   21.7865 C.ar    1  UNL1        0.0388
     17 C           5.5370   -3.5839   23.2767 C.ar    1  UNL1        0.0178
     18 O           4.8811   -2.9882   19.4082 O.3     1  UNL1       -0.4535
     19 C           5.2901   -1.8267   18.5517 C.ar    1  UNL1        0.1454
     20 C           4.2933   -1.1847   17.6328 C.ar    1  UNL1        0.0398
     21 C           4.7024   -0.0232   16.7763 C.ar    1  UNL1        0.0328
     22 C           6.1082    0.4963   16.8387 C.ar    1  UNL1        0.1403
     23 F           6.5172    1.6578   15.9822 F       1  UNL1       -0.2042
     24 C           7.1049   -0.1456   17.7576 C.ar    1  UNL1        0.0328
     25 C           6.6959   -1.3071   18.6141 C.ar    1  UNL1        0.0398
     26 C           6.7271   -2.2285   31.2671 C.3     1  UNL1        0.0281
     27 C           6.1530   -1.7507   32.5679 C.ar    1  UNL1       -0.0220
     28 C           6.9068   -0.7558   33.3998 C.ar    1  UNL1       -0.0020
     29 C           6.3327   -0.2779   34.7006 C.ar    1  UNL1        0.0293
     30 C           5.0050   -0.7949   35.1694 C.ar    1  UNL1        0.1401
     31 F           4.4309   -0.3170   36.4702 F       1  UNL1       -0.2042
     32 C           4.2512   -1.7898   34.3374 C.ar    1  UNL1        0.0293
     33 C           4.8253   -2.2676   33.0367 C.ar    1  UNL1       -0.0020
     34 C           2.7151    0.9880   28.6246 C.3     1  UNL1        0.2340
     35 N           1.2285    0.7986   28.5600 N.ar    1  UNL1       -0.1607
     36 N           0.4375   -0.2314   29.3105 N.ar    1  UNL1       -0.1486
     37 C          -1.0080   -0.0606   28.9478 C.ar    1  UNL1        0.1442
     38 C          -1.1102    1.0751   27.9733 C.ar    1  UNL1        0.1442
     39 N           0.2720    1.6061   27.7336 N.ar    1  UNL1       -0.1486
@<TRIPOS>BOND
     1     8     9    2
     2     9    10   am
     3    10    12    1
     4    12    13   ar
     5    13    14   ar
     6    14    15   ar
     7    15    18    1
     8    18    19    1
     9    19    20   ar
    10    20    21   ar
    11    21    22   ar
    12    22    23    1
    13    22    24   ar
    14    24    25   ar
    15    15    16   ar
    16    16    17   ar
    17     1     9    1
    18     1     2    1
    19     2     3    1
    20     3    26    1
    21    26    27    1
    22    27    28   ar
    23    28    29   ar
    24    29    30   ar
    25    30    31    1
    26    30    32   ar
    27    32    33   ar
    28     3     4    1
    29     4     5    1
    30     5     6   am
    31     6     7    2
    32     6    34    1
    33    34    35    1
    34    35    36   ar
    35    36    37   ar
    36    37    38   ar
    37    38    39   ar
    38    17    12   ar
    39     5     1    1
    40    39    35   ar
    41    25    19   ar
    42    33    27   ar
    43    10    11    1
@<TRIPOS>MOLECULE
*****
 39 43 0 0 0
SMALL
GASTEIGER

@<TRIPOS>ATOM
      1 C           4.7898   -2.2182   24.0662 C.3     1  UNL1        0.1522
      2 C           4.0428   -1.9906   22.7855 C.3     1  UNL1        0.0313
      3 C           4.5037   -3.0154   21.7917 C.3     1  UNL1        0.0264
      4 C           5.5355   -3.8763   22.4583 C.3     1  UNL1        0.0942
      5 N           5.7123   -3.3836   23.8640 N.am    1  UNL1       -0.2713
      6 C           6.6474   -3.9558   24.8877 C.2     1  UNL1        0.2527
      7 O           6.7159   -3.3545   26.2602 O.2     1  UNL1       -0.2726
      8 O           5.1011    0.0064   25.3716 O.2     1  UNL1       -0.2730
      9 C           4.6405   -1.4204   25.3277 C.2     1  UNL1        0.2442
     10 N           4.0307   -2.0495   26.5452 N.am    1  UNL1       -0.2826
     11 H           3.7284   -2.9860   26.5163 H       1  UNL1        0.1549
     12 C           3.8814   -1.2517   27.8067 C.ar    1  UNL1        0.0505
     13 C           2.5337   -0.7307   28.2095 C.ar    1  UNL1        0.0178
     14 C           2.3844    0.0671   29.4709 C.ar    1  UNL1        0.0388
     15 C           3.5828    0.3438   30.3295 C.ar    1  UNL1        0.1454
     16 C           4.9305   -0.1771   29.9267 C.ar    1  UNL1        0.0388
     17 C           5.0798   -0.9749   28.6653 C.ar    1  UNL1        0.0178
     18 O           3.4335    1.1417   31.5910 O.3     1  UNL1       -0.4535
     19 C           4.0992    0.6802   32.8535 C.ar    1  UNL1        0.1454
     20 C           3.9324   -0.7375   33.3144 C.ar    1  UNL1        0.0398
     21 C           4.5981   -1.1989   34.5769 C.ar    1  UNL1        0.0328
     22 C           5.4306   -0.2427   35.3785 C.ar    1  UNL1        0.1403
     23 F           6.0963   -0.7042   36.6410 F       1  UNL1       -0.2042
     24 C           5.5975    1.1749   34.9176 C.ar    1  UNL1        0.0328
     25 C           4.9318    1.6364   33.6552 C.ar    1  UNL1        0.0398
     26 C           4.0180   -3.1548   20.3794 C.3     1  UNL1        0.0281
     27 C           4.4868   -2.1943   19.3268 C.ar    1  UNL1       -0.0220
     28 C           3.5166   -1.2386   18.6981 C.ar    1  UNL1       -0.0020
     29 C           3.9854   -0.2781   17.6456 C.ar    1  UNL1        0.0293
     30 C           5.4243   -0.2735   17.2218 C.ar    1  UNL1        0.1401
     31 F           5.8930    0.6869   16.1692 F       1  UNL1       -0.2042
     32 C           6.3944   -1.2294   17.8505 C.ar    1  UNL1        0.0293
     33 C           5.9256   -2.1897   18.9030 C.ar    1  UNL1       -0.0020
     34 C           7.5141   -5.1294   24.5391 C.3     1  UNL1        0.2340
     35 N           7.8987   -6.1189   25.5987 N.ar    1  UNL1       -0.1607
     36 N           8.8740   -5.8825   26.7136 N.ar    1  UNL1       -0.1486
     37 C           8.9537   -7.1360   27.5335 C.ar    1  UNL1        0.1442
     38 C           8.0276   -8.1472   26.9253 C.ar    1  UNL1        0.1442
     39 N           7.3756   -7.5186   25.7296 N.ar    1  UNL1       -0.1486
@<TRIPOS>BOND
     1     8     9    2
     2     9    10   am
     3    10    12    1
     4    12    13   ar
     5    13    14   ar
     6    14    15   ar
     7    15    18    1
     8    18    19    1
     9    19    20   ar
    10    20    21   ar
    11    21    22   ar
    12    22    23    1
    13    22    24   ar
    14    24    25   ar
    15    15    16   ar
    16    16    17   ar
    17     1     9    1
    18     1     2    1
    19     2     3    1
    20     3    26    1
    21    26    27    1
    22    27    28   ar
    23    28    29   ar
    24    29    30   ar
    25    30    31    1
    26    30    32   ar
    27    32    33   ar
    28     3     4    1
    29     4     5    1
    30     5     6   am
    31     6     7    2
    32     6    34    1
    33    34    35    1
    34    35    36   ar
    35    36    37   ar
    36    37    38   ar
    37    38    39   ar
    38    17    12   ar
    39     5     1    1
    40    39    35   ar
    41    25    19   ar
    42    33    27   ar
    43    10    11    1
@<TRIPOS>MOLECULE
*****
 39 43 0 0 0
SMALL
GASTEIGER

@<TRIPOS>ATOM
      1 C           5.7204   -1.6380   29.8001 C.3     1  UNL1        0.1522
      2 C           6.8000   -1.5824   30.8400 C.3     1  UNL1        0.0313
      3 C           6.2835   -0.7871   32.0023 C.3     1  UNL1        0.0264
      4 C           4.8847   -0.3511   31.6806 C.3     1  UNL1        0.0942
      5 N           4.5368   -0.8770   30.3196 N.am    1  UNL1       -0.2713
      6 C           3.2339   -0.6770   29.6037 C.2     1  UNL1        0.2527
      7 O           3.0297   -1.2658   28.2393 O.2     1  UNL1       -0.2726
      8 O           5.8684   -3.8302   28.4137 O.2     1  UNL1       -0.2730
      9 C           5.8090   -2.3326   28.4735 C.2     1  UNL1        0.2442
     10 N           5.8383   -1.5296   27.2070 N.am    1  UNL1       -0.2826
     11 H           5.7993   -0.5466   27.2463 H       1  UNL1        0.1549
     12 C           5.9269   -2.2242   25.8804 C.ar    1  UNL1        0.0505
     13 C           7.1151   -3.0820   25.5609 C.ar    1  UNL1        0.0178
     14 C           7.2037   -3.7766   24.2343 C.ar    1  UNL1        0.0388
     15 C           6.1040   -3.6134   23.2274 C.ar    1  UNL1        0.1454
     16 C           4.9157   -2.7555   23.5469 C.ar    1  UNL1        0.0388
     17 C           4.8272   -2.0610   24.8734 C.ar    1  UNL1        0.0178
     18 O           6.1926   -4.3080   21.9008 O.3     1  UNL1       -0.4535
     19 C           5.6707   -3.6356   20.6658 C.ar    1  UNL1        0.1454
     20 C           4.2803   -3.9265   20.1840 C.ar    1  UNL1        0.0398
     21 C           3.7584   -3.2540   18.9489 C.ar    1  UNL1        0.0328
     22 C           4.6269   -2.2906   18.1956 C.ar    1  UNL1        0.1403
     23 F           4.1049   -1.6182   16.9606 F       1  UNL1       -0.2042
     24 C           6.0173   -1.9996   18.6773 C.ar    1  UNL1        0.0328
     25 C           6.5392   -2.6721   19.9124 C.ar    1  UNL1        0.0398
     26 C           7.0340   -0.4814   33.2646 C.3     1  UNL1        0.0281
     27 C           6.3234    0.1483   34.4259 C.ar    1  UNL1       -0.0220
     28 C           5.4020   -0.6745   35.2768 C.ar    1  UNL1       -0.0020
     29 C           4.6914   -0.0449   36.4381 C.ar    1  UNL1        0.0293
     30 C           4.9022    1.4075   36.7484 C.ar    1  UNL1        0.1401
     31 F           4.1916    2.0371   37.9097 F       1  UNL1       -0.2042
     32 C           5.8236    2.2302   35.8973 C.ar    1  UNL1        0.0293
     33 C           6.5342    1.6006   34.7361 C.ar    1  UNL1       -0.0020
     34 C           2.1351    0.1118   30.2522 C.3     1  UNL1        0.2340
     35 N           0.8919    0.4411   29.4803 N.ar    1  UNL1       -0.1607
     36 N          -0.4033   -0.3137   29.5310 N.ar    1  UNL1       -0.1486
     37 C          -1.3701    0.3618   28.6041 C.ar    1  UNL1        0.1442
     38 C          -0.6723    1.5340   27.9805 C.ar    1  UNL1        0.1442
     39 N           0.7257    1.5830   28.5220 N.ar    1  UNL1       -0.1486
@<TRIPOS>BOND
     1     8     9    2
     2     9    10   am
     3    10    12    1
     4    12    13   ar
     5    13    14   ar
     6    14    15   ar
     7    15    18    1
     8    18    19    1
     9    19    20   ar
    10    20    21   ar
    11    21    22   ar
    12    22    23    1
    13    22    24   ar
    14    24    25   ar
    15    15    16   ar
    16    16    17   ar
    17     1     9    1
    18     1     2    1
    19     2     3    1
    20     3    26    1
    21    26    27    1
    22    27    28   ar
    23    28    29   ar
    24    29    30   ar
    25    30    31    1
    26    30    32   ar
    27    32    33   ar
    28     3     4    1
    29     4     5    1
    30     5     6   am
    31     6     7    2
    32     6    34    1
    33    34    35    1
    34    35    36   ar
    35    36    37   ar
    36    37    38   ar
    37    38    39   ar
    38    17    12   ar
    39     5     1    1
    40    39    35   ar
    41    25    19   ar
    42    33    27   ar
    43    10    11    1
@<TRIPOS>MOLECULE
*****
 39 43 0 0 0
SMALL
GASTEIGER

@<TRIPOS>ATOM
      1 C           1.2877    1.0893   23.5288 C.3     1  UNL1        0.1522
      2 C           1.7076    0.1304   22.4545 C.3     1  UNL1        0.0313
      3 C           1.0126    0.5237   21.1846 C.3     1  UNL1        0.0264
      4 C           0.1631    1.7257   21.4743 C.3     1  UNL1        0.0942
      5 N           0.3332    2.0752   22.9231 N.am    1  UNL1       -0.2713
      6 C          -0.3340    3.2112   23.6402 C.2     1  UNL1        0.2527
      7 O          -0.0658    3.4385   25.0984 O.2     1  UNL1       -0.2726
      8 O           3.1525    1.4450   25.3026 O.2     1  UNL1       -0.2730
      9 C           1.7425    1.0663   24.9580 C.2     1  UNL1        0.2442
     10 N           0.7875    0.6646   26.0427 N.am    1  UNL1       -0.2826
     11 H          -0.1379    0.4160   25.8165 H       1  UNL1        0.1549
     12 C           1.2423    0.6415   27.4719 C.ar    1  UNL1        0.0505
     13 C           2.0473   -0.5158   27.9842 C.ar    1  UNL1        0.0178
     14 C           2.5021   -0.5388   29.4134 C.ar    1  UNL1        0.0388
     15 C           2.1519    0.5955   30.3302 C.ar    1  UNL1        0.1454
     16 C           1.3469    1.7529   29.8179 C.ar    1  UNL1        0.0388
     17 C           0.8921    1.7759   28.3888 C.ar    1  UNL1        0.0178
     18 O           2.6067    0.5725   31.7595 O.3     1  UNL1       -0.4535
     19 C           3.9075   -0.0806   32.1222 C.ar    1  UNL1        0.1454
     20 C           5.2047    0.5675   31.7386 C.ar    1  UNL1        0.0398
     21 C           6.5055   -0.0856   32.1013 C.ar    1  UNL1        0.0328
     22 C           6.5090   -1.3867   32.8476 C.ar    1  UNL1        0.1403
     23 F           7.8097   -2.0398   33.2103 F       1  UNL1       -0.2042
     24 C           5.2117   -2.0348   33.2312 C.ar    1  UNL1        0.0328
     25 C           3.9110   -1.3818   32.8685 C.ar    1  UNL1        0.0398
     26 C           1.1439   -0.1641   19.8581 C.3     1  UNL1        0.0281
     27 C           2.4850   -0.6513   19.3954 C.ar    1  UNL1       -0.0220
     28 C           2.9430   -2.0352   19.7488 C.ar    1  UNL1       -0.0020
     29 C           4.2841   -2.5224   19.2861 C.ar    1  UNL1        0.0293
     30 C           5.1672   -1.6256   18.4700 C.ar    1  UNL1        0.1401
     31 F           6.5083   -2.1128   18.0073 F       1  UNL1       -0.2042
     32 C           4.7091   -0.2416   18.1167 C.ar    1  UNL1        0.0293
     33 C           3.3681    0.2455   18.5794 C.ar    1  UNL1       -0.0020
     34 C          -1.2696    4.1198   22.8992 C.3     1  UNL1        0.2340
     35 N          -2.6908    3.7021   22.6629 N.ar    1  UNL1       -0.1607
     36 N          -3.2613    3.2110   21.3655 N.ar    1  UNL1       -0.1486
     37 C          -4.7141    2.9075   21.5833 C.ar    1  UNL1        0.1442
     38 C          -5.0413    3.2111   23.0153 C.ar    1  UNL1        0.1442
     39 N          -3.7909    3.7022   23.6826 N.ar    1  UNL1       -0.1486
@<TRIPOS>BOND
     1     8     9    2
     2     9    10   am
     3    10    12    1
     4    12    13   ar
     5    13    14   ar
     6    14    15   ar
     7    15    18    1
     8    18    19    1
     9    19    20   ar
    10    20    21   ar
    11    21    22   ar
    12    22    23    1
    13    22    24   ar
    14    24    25   ar
    15    15    16   ar
    16    16    17   ar
    17     1     9    1
    18     1     2    1
    19     2     3    1
    20     3    26    1
    21    26    27    1
    22    27    28   ar
    23    28    29   ar
    24    29    30   ar
    25    30    31    1
    26    30    32   ar
    27    32    33   ar
    28     3     4    1
    29     4     5    1
    30     5     6   am
    31     6     7    2
    32     6    34    1
    33    34    35    1
    34    35    36   ar
    35    36    37   ar
    36    37    38   ar
    37    38    39   ar
    38    17    12   ar
    39     5     1    1
    40    39    35   ar
    41    25    19   ar
    42    33    27   ar
    43    10    11    1
@<TRIPOS>MOLECULE
*****
 39 43 0 0 0
SMALL
GASTEIGER

@<TRIPOS>ATOM
      1 C           4.1071   -0.3922   27.9648 C.3     1  UNL1        0.1522
      2 C           4.5873   -0.5588   29.3760 C.3     1  UNL1        0.0313
      3 C           5.6321   -1.6351   29.3861 C.3     1  UNL1        0.0264
      4 C           5.7975   -2.1336   27.9810 C.3     1  UNL1        0.0942
      5 N           4.8550   -1.3654   27.1026 N.am    1  UNL1       -0.2713
      6 C           4.6894   -1.5398   25.6221 C.2     1  UNL1        0.2527
      7 O           3.7019   -0.6950   24.8731 O.2     1  UNL1       -0.2726
      8 O           3.3611    2.0473   27.4720 O.2     1  UNL1       -0.2730
      9 C           3.0623    0.5776   27.4977 C.2     1  UNL1        0.2442
     10 N           1.7187    0.0776   27.0564 N.am    1  UNL1       -0.2826
     11 H           1.5226   -0.8870   27.0733 H       1  UNL1        0.1549
     12 C           0.6739    1.0474   26.5894 C.ar    1  UNL1        0.0505
     13 C           0.6545    1.4976   25.1587 C.ar    1  UNL1        0.0178
     14 C          -0.3902    2.4673   24.6917 C.ar    1  UNL1        0.0388
     15 C          -1.4156    2.9868   25.6555 C.ar    1  UNL1        0.1454
     16 C          -1.3962    2.5365   27.0861 C.ar    1  UNL1        0.0388
     17 C          -0.3515    1.5668   27.5531 C.ar    1  UNL1        0.0178
     18 O          -2.4604    3.9565   25.1884 O.3     1  UNL1       -0.4535
     19 C          -3.1509    3.7399   23.8746 C.ar    1  UNL1        0.1454
     20 C          -4.5974    3.3440   23.8437 C.ar    1  UNL1        0.0398
     21 C          -5.2879    3.1275   22.5298 C.ar    1  UNL1        0.0328
     22 C          -4.5319    3.3068   21.2467 C.ar    1  UNL1        0.1403
     23 F          -5.2224    3.0902   19.9329 F       1  UNL1       -0.2042
     24 C          -3.0854    3.7027   21.2775 C.ar    1  UNL1        0.0328
     25 C          -2.3949    3.9192   22.5914 C.ar    1  UNL1        0.0398
     26 C           6.3801   -2.1266   30.5898 C.3     1  UNL1        0.0281
     27 C           5.9247   -1.7393   31.9655 C.ar    1  UNL1       -0.0220
     28 C           6.6623   -0.6795   32.7289 C.ar    1  UNL1       -0.0020
     29 C           6.2069   -0.2922   34.1047 C.ar    1  UNL1        0.0293
     30 C           5.0141   -0.9647   34.7169 C.ar    1  UNL1        0.1401
     31 F           4.5587   -0.5774   36.0927 F       1  UNL1       -0.2042
     32 C           4.2765   -2.0246   33.9534 C.ar    1  UNL1        0.0293
     33 C           4.7319   -2.4118   32.5777 C.ar    1  UNL1       -0.0020
     34 C           5.5114   -2.5592   24.8904 C.3     1  UNL1        0.2340
     35 N           5.3420   -2.7374   23.4107 N.ar    1  UNL1       -0.1607
     36 N           5.9696   -1.8911   22.3431 N.ar    1  UNL1       -0.1486
     37 C           5.5307   -2.4240   21.0114 C.ar    1  UNL1        0.1442
     38 C           4.6319   -3.5997   21.2560 C.ar    1  UNL1        0.1442
     39 N           4.5153   -3.7934   22.7388 N.ar    1  UNL1       -0.1486
@<TRIPOS>BOND
     1     8     9    2
     2     9    10   am
     3    10    12    1
     4    12    13   ar
     5    13    14   ar
     6    14    15   ar
     7    15    18    1
     8    18    19    1
     9    19    20   ar
    10    20    21   ar
    11    21    22   ar
    12    22    23    1
    13    22    24   ar
    14    24    25   ar
    15    15    16   ar
    16    16    17   ar
    17     1     9    1
    18     1     2    1
    19     2     3    1
    20     3    26    1
    21    26    27    1
    22    27    28   ar
    23    28    29   ar
    24    29    30   ar
    25    30    31    1
    26    30    32   ar
    27    32    33   ar
    28     3     4    1
    29     4     5    1
    30     5     6   am
    31     6     7    2
    32     6    34    1
    33    34    35    1
    34    35    36   ar
    35    36    37   ar
    36    37    38   ar
    37    38    39   ar
    38    17    12   ar
    39     5     1    1
    40    39    35   ar
    41    25    19   ar
    42    33    27   ar
    43    10    11    1
@<TRIPOS>MOLECULE
*****
 39 43 0 0 0
SMALL
GASTEIGER

@<TRIPOS>ATOM
      1 C           3.9078    0.1116   32.2846 C.3     1  UNL1        0.1522
      2 C           3.6316    0.2767   33.7496 C.3     1  UNL1        0.0313
      3 C           4.7223   -0.4197   34.5083 C.3     1  UNL1        0.0264
      4 C           5.6725   -1.0152   33.5120 C.3     1  UNL1        0.0942
      5 N           5.1691   -0.6868   32.1377 N.am    1  UNL1       -0.2713
      6 C           5.8138   -1.0866   30.8437 C.2     1  UNL1        0.2527
      7 O           5.1917   -0.6835   29.5397 O.2     1  UNL1       -0.2726
      8 O           2.9379    2.1321   30.9704 O.2     1  UNL1       -0.2730
      9 C           3.0697    0.6504   31.1632 C.2     1  UNL1        0.2442
     10 N           2.3636   -0.2925   30.2346 N.am    1  UNL1       -0.2826
     11 H           2.4502   -1.2650   30.3611 H       1  UNL1        0.1549
     12 C           1.5255    0.2463   29.1132 C.ar    1  UNL1        0.0505
     13 C           0.0293    0.2190   29.2152 C.ar    1  UNL1        0.0178
     14 C          -0.8087    0.7578   28.0938 C.ar    1  UNL1        0.0388
     15 C          -0.1505    1.3238   26.8706 C.ar    1  UNL1        0.1454
     16 C           1.3458    1.3511   26.7687 C.ar    1  UNL1        0.0388
     17 C           2.1838    0.8123   27.8900 C.ar    1  UNL1        0.0178
     18 O          -0.9885    1.8626   25.7492 O.3     1  UNL1       -0.4535
     19 C          -1.7127    3.1659   25.9134 C.ar    1  UNL1        0.1454
     20 C          -1.1706    4.2136   26.8399 C.ar    1  UNL1        0.0398
     21 C          -1.8949    5.5169   27.0040 C.ar    1  UNL1        0.0328
     22 C          -3.1612    5.7725   26.2417 C.ar    1  UNL1        0.1403
     23 F          -3.8854    7.0757   26.4058 F       1  UNL1       -0.2042
     24 C          -3.7033    4.7247   25.3152 C.ar    1  UNL1        0.0328
     25 C          -2.9791    3.4215   25.1510 C.ar    1  UNL1        0.0398
     26 C           4.8417   -0.5056   36.0011 C.3     1  UNL1        0.0281
     27 C           4.6151    0.7150   36.8430 C.ar    1  UNL1       -0.0220
     28 C           5.7060    1.7330   36.9971 C.ar    1  UNL1       -0.0020
     29 C           5.4793    2.9535   37.8391 C.ar    1  UNL1        0.0293
     30 C           4.1618    3.1560   38.5269 C.ar    1  UNL1        0.1401
     31 F           3.9351    4.3766   39.3689 F       1  UNL1       -0.2042
     32 C           3.0709    2.1380   38.3728 C.ar    1  UNL1        0.0293
     33 C           3.2976    0.9175   37.5309 C.ar    1  UNL1       -0.0020
     34 C           7.0808   -1.8897   30.8536 C.3     1  UNL1        0.2340
     35 N           7.0227   -3.3838   30.7346 N.ar    1  UNL1       -0.1607
     36 N           7.0271   -4.3599   31.8736 N.ar    1  UNL1       -0.1486
     37 C           6.9572   -5.7435   31.2985 C.ar    1  UNL1        0.1442
     38 C           6.9096   -5.6225   29.8042 C.ar    1  UNL1        0.1442
     39 N           6.9501   -4.1642   29.4557 N.ar    1  UNL1       -0.1486
@<TRIPOS>BOND
     1     8     9    2
     2     9    10   am
     3    10    12    1
     4    12    13   ar
     5    13    14   ar
     6    14    15   ar
     7    15    18    1
     8    18    19    1
     9    19    20   ar
    10    20    21   ar
    11    21    22   ar
    12    22    23    1
    13    22    24   ar
    14    24    25   ar
    15    15    16   ar
    16    16    17   ar
    17     1     9    1
    18     1     2    1
    19     2     3    1
    20     3    26    1
    21    26    27    1
    22    27    28   ar
    23    28    29   ar
    24    29    30   ar
    25    30    31    1
    26    30    32   ar
    27    32    33   ar
    28     3     4    1
    29     4     5    1
    30     5     6   am
    31     6     7    2
    32     6    34    1
    33    34    35    1
    34    35    36   ar
    35    36    37   ar
    36    37    38   ar
    37    38    39   ar
    38    17    12   ar
    39     5     1    1
    40    39    35   ar
    41    25    19   ar
    42    33    27   ar
    43    10    11    1
