@<TRIPOS>MOLECULE
*****
 33 35 0 0 0
SMALL
GASTEIGER

@<TRIPOS>ATOM
      1 N           0.5176    1.8117   21.5647 N.ar    1  UNL1       -0.2480
      2 C           1.6780    1.4239   22.4326 C.ar    1  UNL1        0.0966
      3 C           2.5311    0.4600   21.6626 C.ar    1  UNL1        0.0393
      4 C           3.8026   -0.2553   22.0114 C.ar    1  UNL1        0.0175
      5 C           4.4411   -1.1785   21.0164 C.ar    1  UNL1        0.0488
      6 C           3.8080   -1.3865   19.6725 C.ar    1  UNL1        0.0168
      7 C           2.5364   -0.6712   19.3237 C.ar    1  UNL1        0.0201
      8 C           1.8980    0.2520   20.3187 C.ar    1  UNL1        0.1022
      9 N           0.6536    1.0874   20.2583 N.ar    1  UNL1       -0.1692
     10 C           4.4464   -2.3097   18.6775 C.3     1  UNL1        0.1083
     11 C           5.2981   -1.1811   18.1768 C.3     1  UNL1        0.0339
     12 C           3.5947   -3.4383   19.1782 C.3     1  UNL1        0.0339
     13 O           5.0848   -3.2329   17.6825 O.3     1  UNL1       -0.3826
     14 H           5.7417   -2.7438   17.1627 H       1  UNL1        0.2107
     15 N           5.7125   -1.8937   21.3652 N.am    1  UNL1       -0.2793
     16 C           5.6647   -3.1614   22.1656 C.2     1  UNL1        0.2672
     17 O           4.3453   -3.7139   22.6171 O.2     1  UNL1       -0.2682
     18 H           6.5785   -1.5311   21.0689 H       1  UNL1        0.1552
     19 C           6.9361   -3.8766   22.5145 C.ar    1  UNL1        0.1347
     20 C           8.2472   -3.3784   21.9825 C.ar    1  UNL1        0.0238
     21 C           9.5187   -4.0936   22.3314 C.ar    1  UNL1        0.0032
     22 C           9.4792   -5.3071   23.2122 C.ar    1  UNL1        0.0231
     23 C           8.1682   -5.8054   23.7441 C.ar    1  UNL1        0.1527
     24 N           6.8967   -5.0902   23.3953 N.ar    1  UNL1       -0.2368
     25 C           8.1287   -7.0190   24.6249 C.3     1  UNL1        0.4348
     26 F           8.0892   -8.2325   25.5057 F       1  UNL1       -0.1644
     27 F           7.2540   -6.2848   25.5975 F       1  UNL1       -0.1644
     28 F           9.0033   -7.7532   23.6524 F       1  UNL1       -0.1644
     29 C          -0.5851    2.7576   21.9378 C.3     1  UNL1        0.1448
     30 C          -1.7102    3.0134   20.9793 C.3     1  UNL1        0.0988
     31 C          -3.2825    3.6974   22.9312 C.3     1  UNL1        0.0897
     32 N          -3.0886    3.2958   21.4990 N.3     1  UNL1       -0.2686
     33 C          -4.2732    3.1766   20.5865 C.3     1  UNL1        0.0897
@<TRIPOS>BOND
     1    31    32    1
     2    32    33    1
     3    32    30    1
     4    30    29    1
     5    29     1    1
     6     1     2   ar
     7     2     3   ar
     8     3     4   ar
     9     4     5   ar
    10     5    15    1
    11    15    16   am
    12    16    17    2
    13    16    19    1
    14    19    20   ar
    15    20    21   ar
    16    21    22   ar
    17    22    23   ar
    18    23    25    1
    19    25    26    1
    20    25    27    1
    21    25    28    1
    22    23    24   ar
    23     5     6   ar
    24     6    10    1
    25    10    11    1
    26    10    12    1
    27    10    13    1
    28     6     7   ar
    29     7     8   ar
    30     8     9   ar
    31     9     1   ar
    32     8     3   ar
    33    24    19   ar
    34    15    18    1
    35    13    14    1
@<TRIPOS>MOLECULE
*****
 33 35 0 0 0
SMALL
GASTEIGER

@<TRIPOS>ATOM
      1 N           3.1781    1.2306   33.6585 N.ar    1  UNL1       -0.2480
      2 C           3.8468    0.3667   32.6307 C.ar    1  UNL1        0.0966
      3 C           3.0377    0.4359   31.3695 C.ar    1  UNL1        0.0393
      4 C           3.2142   -0.2095   30.0271 C.ar    1  UNL1        0.0175
      5 C           2.2218    0.0518   28.9329 C.ar    1  UNL1        0.0488
      6 C           1.0530    0.9585   29.1813 C.ar    1  UNL1        0.0168
      7 C           0.8766    1.6039   30.5239 C.ar    1  UNL1        0.0201
      8 C           1.8689    1.3426   31.6179 C.ar    1  UNL1        0.1022
      9 N           1.9557    1.8338   33.0326 N.ar    1  UNL1       -0.1692
     10 C           0.0607    1.2198   28.0873 C.3     1  UNL1        0.1083
     11 C          -0.7376    0.0284   28.5268 C.3     1  UNL1        0.0339
     12 C           0.8590    2.4113   27.6478 C.3     1  UNL1        0.0339
     13 O          -0.9316    1.4811   26.9932 O.3     1  UNL1       -0.3826
     14 H          -1.6322    0.8110   27.0254 H       1  UNL1        0.2107
     15 N           2.3983   -0.5937   27.5905 N.am    1  UNL1       -0.2793
     16 C           3.3892   -0.0336   26.6135 C.2     1  UNL1        0.2672
     17 O           4.2036    1.1719   26.9789 O.2     1  UNL1       -0.2682
     18 H           1.8638   -1.3849   27.3506 H       1  UNL1        0.1552
     19 C           3.5657   -0.6790   25.2710 C.ar    1  UNL1        0.1347
     20 C           2.7758   -0.1893   24.0937 C.ar    1  UNL1        0.0238
     21 C           2.9523   -0.8348   22.7512 C.ar    1  UNL1        0.0032
     22 C           3.9188   -1.9700   22.5861 C.ar    1  UNL1        0.0231
     23 C           4.7087   -2.4597   23.7634 C.ar    1  UNL1        0.1527
     24 N           4.5322   -1.8143   25.1059 N.ar    1  UNL1       -0.2368
     25 C           5.6752   -3.5950   23.5983 C.3     1  UNL1        0.4348
     26 F           6.6416   -4.7302   23.4331 F       1  UNL1       -0.1644
     27 F           6.5062   -3.0511   24.7223 F       1  UNL1       -0.1644
     28 F           4.8441   -4.1389   22.4742 F       1  UNL1       -0.1644
     29 C           3.6491    1.4523   35.0653 C.3     1  UNL1        0.1448
     30 C           2.9262    2.4201   35.9545 C.3     1  UNL1        0.0988
     31 C           3.5597    0.9933   38.0314 C.3     1  UNL1        0.0897
     32 N           2.8287    2.1559   37.4278 N.3     1  UNL1       -0.2686
     33 C           2.0002    3.0542   38.2977 C.3     1  UNL1        0.0897
@<TRIPOS>BOND
     1    31    32    1
     2    32    33    1
     3    32    30    1
     4    30    29    1
     5    29     1    1
     6     1     2   ar
     7     2     3   ar
     8     3     4   ar
     9     4     5   ar
    10     5    15    1
    11    15    16   am
    12    16    17    2
    13    16    19    1
    14    19    20   ar
    15    20    21   ar
    16    21    22   ar
    17    22    23   ar
    18    23    25    1
    19    25    26    1
    20    25    27    1
    21    25    28    1
    22    23    24   ar
    23     5     6   ar
    24     6    10    1
    25    10    11    1
    26    10    12    1
    27    10    13    1
    28     6     7   ar
    29     7     8   ar
    30     8     9   ar
    31     9     1   ar
    32     8     3   ar
    33    24    19   ar
    34    15    18    1
    35    13    14    1
@<TRIPOS>MOLECULE
*****
 33 35 0 0 0
SMALL
GASTEIGER

@<TRIPOS>ATOM
      1 N           2.9612    1.3713   33.6080 N.ar    1  UNL1       -0.2480
      2 C           3.6432    0.4681   32.6235 C.ar    1  UNL1        0.0966
      3 C           2.8820    0.5306   31.3325 C.ar    1  UNL1        0.0393
      4 C           3.0894   -0.1485   30.0112 C.ar    1  UNL1        0.0175
      5 C           2.1443    0.1143   28.8764 C.ar    1  UNL1        0.0488
      6 C           0.9918    1.0561   29.0629 C.ar    1  UNL1        0.0168
      7 C           0.7845    1.7352   30.3843 C.ar    1  UNL1        0.0201
      8 C           1.7295    1.4724   31.5191 C.ar    1  UNL1        0.1022
      9 N           1.7785    1.9919   32.9254 N.ar    1  UNL1       -0.1692
     10 C           0.0468    1.3189   27.9282 C.3     1  UNL1        0.1083
     11 C          -0.7801    0.1383   28.3434 C.3     1  UNL1        0.0339
     12 C           0.8736    2.4995   27.5129 C.3     1  UNL1        0.0339
     13 O          -0.8983    1.5817   26.7934 O.3     1  UNL1       -0.3826
     14 H          -1.6062    0.9186   26.8020 H       1  UNL1        0.2107
     15 N           2.3517   -0.5647   27.5551 N.am    1  UNL1       -0.2793
     16 C           3.3782   -0.0402   26.5952 C.2     1  UNL1        0.2672
     17 O           4.1972    1.1632   26.9567 O.2     1  UNL1       -0.2682
     18 H           1.8141   -1.3546   27.3178 H       1  UNL1        0.1552
     19 C           3.5856   -0.7193   25.2739 C.ar    1  UNL1        0.1347
     20 C           4.5792   -1.8363   25.1525 C.ar    1  UNL1        0.0238
     21 C           4.7866   -2.5154   23.8312 C.ar    1  UNL1        0.0032
     22 C           4.0003   -2.0773   22.6313 C.ar    1  UNL1        0.0231
     23 C           3.0066   -0.9602   22.7527 C.ar    1  UNL1        0.1527
     24 N           2.7992   -0.2812   24.0740 N.ar    1  UNL1       -0.2368
     25 C           2.2203   -0.5222   21.5527 C.3     1  UNL1        0.4348
     26 F           1.4340   -0.0842   20.3527 F       1  UNL1       -0.1644
     27 F           1.6868    0.6455   22.3284 F       1  UNL1       -0.1644
     28 F           2.7538   -1.6899   20.7769 F       1  UNL1       -0.1644
     29 C           3.3871    1.6116   35.0260 C.3     1  UNL1        0.1448
     30 C           2.6794    2.6399   35.8576 C.3     1  UNL1        0.0988
     31 C           1.4503    3.2563   38.0621 C.3     1  UNL1        0.0897
     32 N           2.3871    2.3640   37.3028 N.3     1  UNL1       -0.2686
     33 C           3.0314    1.1959   37.9886 C.3     1  UNL1        0.0897
@<TRIPOS>BOND
     1    31    32    1
     2    32    33    1
     3    32    30    1
     4    30    29    1
     5    29     1    1
     6     1     2   ar
     7     2     3   ar
     8     3     4   ar
     9     4     5   ar
    10     5    15    1
    11    15    16   am
    12    16    17    2
    13    16    19    1
    14    19    20   ar
    15    20    21   ar
    16    21    22   ar
    17    22    23   ar
    18    23    25    1
    19    25    26    1
    20    25    27    1
    21    25    28    1
    22    23    24   ar
    23     5     6   ar
    24     6    10    1
    25    10    11    1
    26    10    12    1
    27    10    13    1
    28     6     7   ar
    29     7     8   ar
    30     8     9   ar
    31     9     1   ar
    32     8     3   ar
    33    24    19   ar
    34    15    18    1
    35    13    14    1
@<TRIPOS>MOLECULE
*****
 33 35 0 0 0
SMALL
GASTEIGER

@<TRIPOS>ATOM
      1 N           0.8474    1.6649   22.1632 N.ar    1  UNL1       -0.2480
      2 C           1.6765    0.8046   23.0701 C.ar    1  UNL1        0.0966
      3 C           2.4082   -0.1928   22.2218 C.ar    1  UNL1        0.0393
      4 C           3.3690   -1.2915   22.5676 C.ar    1  UNL1        0.0175
      5 C           3.9529   -2.1465   21.4822 C.ar    1  UNL1        0.0488
      6 C           3.5761   -1.9027   20.0510 C.ar    1  UNL1        0.0168
      7 C           2.6153   -0.8039   19.7051 C.ar    1  UNL1        0.0201
      8 C           2.0314    0.0510   20.7905 C.ar    1  UNL1        0.1022
      9 N           1.0667    1.1991   20.7543 N.ar    1  UNL1       -0.1692
     10 C           4.1600   -2.7576   18.9656 C.3     1  UNL1        0.1083
     11 C           3.1702   -3.8386   19.2846 C.3     1  UNL1        0.0339
     12 C           5.1497   -1.6767   18.6465 C.3     1  UNL1        0.0339
     13 O           4.7439   -3.6126   17.8802 O.3     1  UNL1       -0.3826
     14 H           4.2663   -4.4559   17.8407 H       1  UNL1        0.2107
     15 N           4.9137   -3.2453   21.8281 N.am    1  UNL1       -0.2793
     16 C           6.3792   -2.9495   21.9496 C.2     1  UNL1        0.2672
     17 O           6.8840   -1.5549   21.7252 O.2     1  UNL1       -0.2682
     18 H           4.5824   -4.1606   21.9754 H       1  UNL1        0.1552
     19 C           7.3400   -4.0482   22.2955 C.ar    1  UNL1        0.1347
     20 C           8.5737   -4.2539   21.4675 C.ar    1  UNL1        0.0238
     21 C           9.5345   -5.3527   21.8135 C.ar    1  UNL1        0.0032
     22 C           9.2615   -6.2457   22.9873 C.ar    1  UNL1        0.0231
     23 C           8.0277   -6.0400   23.8153 C.ar    1  UNL1        0.1527
     24 N           7.0670   -4.9413   23.4694 N.ar    1  UNL1       -0.2368
     25 C           7.7547   -6.9331   24.9891 C.3     1  UNL1        0.4348
     26 F           7.4817   -7.8261   26.1630 F       1  UNL1       -0.1644
     27 F           8.5558   -8.0252   24.3446 F       1  UNL1       -0.1644
     28 F           6.9537   -5.8410   25.6337 F       1  UNL1       -0.1644
     29 C          -0.0445    2.7929   22.5901 C.3     1  UNL1        0.1448
     30 C          -0.0257    3.2664   24.0133 C.3     1  UNL1        0.0988
     31 C          -2.5648    3.4123   24.5444 C.3     1  UNL1        0.0897
     32 N          -1.1828    2.9653   24.9192 N.3     1  UNL1       -0.2686
     33 C          -0.9579    2.2174   26.1998 C.3     1  UNL1        0.0897
@<TRIPOS>BOND
     1    31    32    1
     2    32    33    1
     3    32    30    1
     4    30    29    1
     5    29     1    1
     6     1     2   ar
     7     2     3   ar
     8     3     4   ar
     9     4     5   ar
    10     5    15    1
    11    15    16   am
    12    16    17    2
    13    16    19    1
    14    19    20   ar
    15    20    21   ar
    16    21    22   ar
    17    22    23   ar
    18    23    25    1
    19    25    26    1
    20    25    27    1
    21    25    28    1
    22    23    24   ar
    23     5     6   ar
    24     6    10    1
    25    10    11    1
    26    10    12    1
    27    10    13    1
    28     6     7   ar
    29     7     8   ar
    30     8     9   ar
    31     9     1   ar
    32     8     3   ar
    33    24    19   ar
    34    15    18    1
    35    13    14    1
@<TRIPOS>MOLECULE
*****
 33 35 0 0 0
SMALL
GASTEIGER

@<TRIPOS>ATOM
      1 N           7.3886   -4.7620   24.3804 N.ar    1  UNL1       -0.2480
      2 C           6.1922   -3.8756   24.5619 C.ar    1  UNL1        0.0966
      3 C           5.6968   -3.4813   23.2021 C.ar    1  UNL1        0.0393
      4 C           4.5501   -2.6200   22.7624 C.ar    1  UNL1        0.0175
      5 C           4.2936   -2.4015   21.3007 C.ar    1  UNL1        0.0488
      6 C           5.1838   -3.0442   20.2788 C.ar    1  UNL1        0.0168
      7 C           6.3305   -3.9055   20.7185 C.ar    1  UNL1        0.0201
      8 C           6.5870   -4.1240   22.1801 C.ar    1  UNL1        0.1022
      9 N           7.6326   -4.9155   22.9084 N.ar    1  UNL1       -0.1692
     10 C           4.9273   -2.8258   18.8171 C.3     1  UNL1        0.1083
     11 C           5.9413   -1.7205   18.8044 C.3     1  UNL1        0.0339
     12 C           3.9133   -3.9310   18.8298 C.3     1  UNL1        0.0339
     13 O           4.6708   -2.6073   17.3555 O.3     1  UNL1       -0.3826
     14 H           5.2338   -1.8863   17.0327 H       1  UNL1        0.2107
     15 N           3.1469   -1.5403   20.8611 N.am    1  UNL1       -0.2793
     16 C           3.3176   -0.0527   20.7710 C.2     1  UNL1        0.2672
     17 O           4.6350    0.5736   21.1207 O.2     1  UNL1       -0.2682
     18 H           2.2823   -1.9513   20.6316 H       1  UNL1        0.1552
     19 C           2.1709    0.8085   20.3314 C.ar    1  UNL1        0.1347
     20 C           1.9525    1.0791   18.8722 C.ar    1  UNL1        0.0238
     21 C           0.8058    1.9404   18.4326 C.ar    1  UNL1        0.0032
     22 C          -0.1225    2.5311   19.4521 C.ar    1  UNL1        0.0231
     23 C           0.0959    2.2605   20.9112 C.ar    1  UNL1        0.1527
     24 N           1.2426    1.3993   21.3509 N.ar    1  UNL1       -0.2368
     25 C          -0.8324    2.8512   21.9307 C.3     1  UNL1        0.4348
     26 F          -1.7607    3.4420   22.9501 F       1  UNL1       -0.1644
     27 F           0.1088    2.4425   23.0247 F       1  UNL1       -0.1644
     28 F          -1.7737    3.2600   20.8367 F       1  UNL1       -0.1644
     29 C           8.1987   -5.3854   25.4782 C.3     1  UNL1        0.1448
     30 C           7.5861   -6.4321   26.3607 C.3     1  UNL1        0.0988
     31 C           8.1977   -6.7834   28.8612 C.3     1  UNL1        0.0897
     32 N           7.3408   -6.1402   27.8114 N.3     1  UNL1       -0.2686
     33 C           6.2386   -5.2051   28.2124 C.3     1  UNL1        0.0897
@<TRIPOS>BOND
     1    31    32    1
     2    32    33    1
     3    32    30    1
     4    30    29    1
     5    29     1    1
     6     1     2   ar
     7     2     3   ar
     8     3     4   ar
     9     4     5   ar
    10     5    15    1
    11    15    16   am
    12    16    17    2
    13    16    19    1
    14    19    20   ar
    15    20    21   ar
    16    21    22   ar
    17    22    23   ar
    18    23    25    1
    19    25    26    1
    20    25    27    1
    21    25    28    1
    22    23    24   ar
    23     5     6   ar
    24     6    10    1
    25    10    11    1
    26    10    12    1
    27    10    13    1
    28     6     7   ar
    29     7     8   ar
    30     8     9   ar
    31     9     1   ar
    32     8     3   ar
    33    24    19   ar
    34    15    18    1
    35    13    14    1
@<TRIPOS>MOLECULE
*****
 33 35 0 0 0
SMALL
GASTEIGER

@<TRIPOS>ATOM
      1 N          -1.0181    3.3144   23.0997 N.ar    1  UNL1       -0.2480
      2 C           0.1630    2.4062   23.2737 C.ar    1  UNL1        0.0966
      3 C           0.2190    1.9892   24.7134 C.ar    1  UNL1        0.0393
      4 C           1.1659    1.1012   25.4650 C.ar    1  UNL1        0.0175
      5 C           0.9663    0.8636   26.9326 C.ar    1  UNL1        0.0488
      6 C          -0.1802    1.5141   27.6486 C.ar    1  UNL1        0.0168
      7 C          -1.1271    2.4020   26.8969 C.ar    1  UNL1        0.0201
      8 C          -0.9275    2.6396   25.4294 C.ar    1  UNL1        0.1022
      9 N          -1.6921    3.4586   24.4320 N.ar    1  UNL1       -0.1692
     10 C          -0.3798    1.2765   29.1161 C.3     1  UNL1        0.1083
     11 C           0.4608    2.4797   29.4252 C.3     1  UNL1        0.0339
     12 C          -1.2204    0.0733   28.8070 C.3     1  UNL1        0.0339
     13 O          -0.5794    1.0390   30.5836 O.3     1  UNL1       -0.3826
     14 H          -0.1100    1.7214   31.0884 H       1  UNL1        0.2107
     15 N           1.9131   -0.0243   27.6842 N.am    1  UNL1       -0.2793
     16 C           3.2168    0.5229   28.1852 C.2     1  UNL1        0.2672
     17 O           3.5736    1.9581   27.9346 O.2     1  UNL1       -0.2682
     18 H           1.6790   -0.9663   27.8488 H       1  UNL1        0.1552
     19 C           4.1637   -0.3650   28.9368 C.ar    1  UNL1        0.1347
     20 C           5.3976   -0.8872   28.2623 C.ar    1  UNL1        0.0238
     21 C           6.3444   -1.7752   29.0140 C.ar    1  UNL1        0.0032
     22 C           6.0574   -2.1410   30.4401 C.ar    1  UNL1        0.0231
     23 C           4.8236   -1.6188   31.1146 C.ar    1  UNL1        0.1527
     24 N           3.8767   -0.7309   30.3630 N.ar    1  UNL1       -0.2368
     25 C           4.5366   -1.9847   32.5407 C.3     1  UNL1        0.4348
     26 F           4.2496   -2.3506   33.9668 F       1  UNL1       -0.1644
     27 F           3.5315   -0.8743   32.6234 F       1  UNL1       -0.1644
     28 F           5.5416   -3.0951   32.4581 F       1  UNL1       -0.1644
     29 C          -1.4496    3.9642   21.8185 C.3     1  UNL1        0.1448
     30 C          -2.2320    3.1808   20.8066 C.3     1  UNL1        0.0988
     31 C          -4.5540    3.1973   21.9721 C.3     1  UNL1        0.0897
     32 N          -3.7225    3.3314   20.7308 N.3     1  UNL1       -0.2686
     33 C          -4.3816    3.6159   19.4137 C.3     1  UNL1        0.0897
@<TRIPOS>BOND
     1    31    32    1
     2    32    33    1
     3    32    30    1
     4    30    29    1
     5    29     1    1
     6     1     2   ar
     7     2     3   ar
     8     3     4   ar
     9     4     5   ar
    10     5    15    1
    11    15    16   am
    12    16    17    2
    13    16    19    1
    14    19    20   ar
    15    20    21   ar
    16    21    22   ar
    17    22    23   ar
    18    23    25    1
    19    25    26    1
    20    25    27    1
    21    25    28    1
    22    23    24   ar
    23     5     6   ar
    24     6    10    1
    25    10    11    1
    26    10    12    1
    27    10    13    1
    28     6     7   ar
    29     7     8   ar
    30     8     9   ar
    31     9     1   ar
    32     8     3   ar
    33    24    19   ar
    34    15    18    1
    35    13    14    1
@<TRIPOS>MOLECULE
*****
 33 35 0 0 0
SMALL
GASTEIGER

@<TRIPOS>ATOM
      1 N           4.6079   -0.3593   18.0708 N.ar    1  UNL1       -0.2480
      2 C           3.1378   -0.5628   18.2886 C.ar    1  UNL1        0.0966
      3 C           2.4981    0.7871   18.4245 C.ar    1  UNL1        0.0393
      4 C           1.0758    1.2054   18.6529 C.ar    1  UNL1        0.0175
      5 C           0.7282    2.6615   18.7474 C.ar    1  UNL1        0.0488
      6 C           1.8029    3.6993   18.6136 C.ar    1  UNL1        0.0168
      7 C           3.2253    3.2810   18.3852 C.ar    1  UNL1        0.0201
      8 C           3.5728    1.8249   18.2907 C.ar    1  UNL1        0.1022
      9 N           4.8767    1.1164   18.0721 N.ar    1  UNL1       -0.1692
     10 C           1.4554    5.1554   18.7081 C.3     1  UNL1        0.1083
     11 C           1.2555    5.2042   17.2223 C.3     1  UNL1        0.0339
     12 C           1.6553    5.1067   20.1939 C.3     1  UNL1        0.0339
     13 O           1.1078    6.6115   18.8026 O.3     1  UNL1       -0.3826
     14 H           0.9111    6.9551   17.9171 H       1  UNL1        0.2107
     15 N          -0.6940    3.0798   18.9757 N.am    1  UNL1       -0.2793
     16 C          -1.3531    2.8080   20.2955 C.2     1  UNL1        0.2672
     17 O          -0.5899    2.1179   21.3869 O.2     1  UNL1       -0.2682
     18 H          -1.1950    3.5327   18.2594 H       1  UNL1        0.1552
     19 C          -2.7753    3.2262   20.5238 C.ar    1  UNL1        0.1347
     20 C          -3.6282    3.6487   19.3645 C.ar    1  UNL1        0.0238
     21 C          -5.0506    4.0670   19.5929 C.ar    1  UNL1        0.0032
     22 C          -5.6199    4.0628   20.9806 C.ar    1  UNL1        0.0231
     23 C          -4.7671    3.6403   22.1399 C.ar    1  UNL1        0.1527
     24 N          -3.3448    3.2220   21.9116 N.ar    1  UNL1       -0.2368
     25 C          -5.3365    3.6361   23.5277 C.3     1  UNL1        0.4348
     26 F          -5.9059    3.6319   24.9154 F       1  UNL1       -0.1644
     27 F          -6.6884    3.9762   22.9740 F       1  UNL1       -0.1644
     28 F          -3.9846    3.2960   24.0814 F       1  UNL1       -0.1644
     29 C           5.6297   -1.4415   17.8844 C.3     1  UNL1        0.1448
     30 C           6.0698   -2.2675   19.0565 C.3     1  UNL1        0.0988
     31 C           4.6678   -4.4326   18.7452 C.3     1  UNL1        0.0897
     32 N           5.1573   -3.3164   19.6197 N.3     1  UNL1       -0.2686
     33 C           4.7343   -3.2492   21.0572 C.3     1  UNL1        0.0897
@<TRIPOS>BOND
     1    31    32    1
     2    32    33    1
     3    32    30    1
     4    30    29    1
     5    29     1    1
     6     1     2   ar
     7     2     3   ar
     8     3     4   ar
     9     4     5   ar
    10     5    15    1
    11    15    16   am
    12    16    17    2
    13    16    19    1
    14    19    20   ar
    15    20    21   ar
    16    21    22   ar
    17    22    23   ar
    18    23    25    1
    19    25    26    1
    20    25    27    1
    21    25    28    1
    22    23    24   ar
    23     5     6   ar
    24     6    10    1
    25    10    11    1
    26    10    12    1
    27    10    13    1
    28     6     7   ar
    29     7     8   ar
    30     8     9   ar
    31     9     1   ar
    32     8     3   ar
    33    24    19   ar
    34    15    18    1
    35    13    14    1
@<TRIPOS>MOLECULE
*****
 33 35 0 0 0
SMALL
GASTEIGER

@<TRIPOS>ATOM
      1 N          -0.5012    3.0727   23.0656 N.ar    1  UNL1       -0.2480
      2 C           0.6530    2.1636   23.3677 C.ar    1  UNL1        0.0966
      3 C           0.5731    1.7784   24.8152 C.ar    1  UNL1        0.0393
      4 C           1.4408    0.9033   25.6703 C.ar    1  UNL1        0.0175
      5 C           1.1049    0.6991   27.1179 C.ar    1  UNL1        0.0488
      6 C          -0.0987    1.3701   27.7104 C.ar    1  UNL1        0.0168
      7 C          -0.9665    2.2453   26.8552 C.ar    1  UNL1        0.0201
      8 C          -0.6306    2.4494   25.4077 C.ar    1  UNL1        0.1022
      9 N          -1.2945    3.2493   24.3263 N.ar    1  UNL1       -0.1692
     10 C          -0.4347    1.1660   29.1579 C.3     1  UNL1        0.1083
     11 C          -1.2838   -0.0158   28.7942 C.3     1  UNL1        0.0339
     12 C           0.4145    2.3478   29.5216 C.3     1  UNL1        0.0339
     13 O          -0.7706    0.9619   30.6055 O.3     1  UNL1       -0.3826
     14 H          -1.3607    0.1974   30.6958 H       1  UNL1        0.2107
     15 N           1.9726   -0.1760   27.9730 N.am    1  UNL1       -0.2793
     16 C           3.2655    0.3537   28.5188 C.2     1  UNL1        0.2672
     17 O           3.6906    1.7585   28.2095 O.2     1  UNL1       -0.2682
     18 H           1.6936   -1.0981   28.1760 H       1  UNL1        0.1552
     19 C           4.1332   -0.5214   29.3738 C.ar    1  UNL1        0.1347
     20 C           5.3583   -1.1615   28.7912 C.ar    1  UNL1        0.0238
     21 C           6.2261   -2.0366   29.6464 C.ar    1  UNL1        0.0032
     22 C           5.8686   -2.2717   31.0841 C.ar    1  UNL1        0.0231
     23 C           4.6435   -1.6317   31.6667 C.ar    1  UNL1        0.1527
     24 N           3.7758   -0.7566   30.8116 N.ar    1  UNL1       -0.2368
     25 C           4.2861   -1.8668   33.1044 C.3     1  UNL1        0.4348
     26 F           3.9287   -2.1020   34.5421 F       1  UNL1       -0.1644
     27 F           3.5356   -0.5684   33.1303 F       1  UNL1       -0.1644
     28 F           5.0366   -3.1653   33.0786 F       1  UNL1       -0.1644
     29 C          -0.8083    3.6959   21.7361 C.3     1  UNL1        0.1448
     30 C          -1.2415    2.8352   20.5866 C.3     1  UNL1        0.0988
     31 C           0.3995    2.8004   18.5726 C.3     1  UNL1        0.0897
     32 N          -0.2167    2.1186   19.7582 N.3     1  UNL1       -0.2686
     33 C           0.1921    0.7203   20.1154 C.3     1  UNL1        0.0897
@<TRIPOS>BOND
     1    31    32    1
     2    32    33    1
     3    32    30    1
     4    30    29    1
     5    29     1    1
     6     1     2   ar
     7     2     3   ar
     8     3     4   ar
     9     4     5   ar
    10     5    15    1
    11    15    16   am
    12    16    17    2
    13    16    19    1
    14    19    20   ar
    15    20    21   ar
    16    21    22   ar
    17    22    23   ar
    18    23    25    1
    19    25    26    1
    20    25    27    1
    21    25    28    1
    22    23    24   ar
    23     5     6   ar
    24     6    10    1
    25    10    11    1
    26    10    12    1
    27    10    13    1
    28     6     7   ar
    29     7     8   ar
    30     8     9   ar
    31     9     1   ar
    32     8     3   ar
    33    24    19   ar
    34    15    18    1
    35    13    14    1
@<TRIPOS>MOLECULE
*****
 33 35 0 0 0
SMALL
GASTEIGER

@<TRIPOS>ATOM
      1 N           2.6457    2.5681   36.3575 N.ar    1  UNL1       -0.2480
      2 C           3.8230    1.6495   36.2154 C.ar    1  UNL1        0.0966
      3 C           3.9266    1.2484   34.7737 C.ar    1  UNL1        0.0393
      4 C           4.8908    0.3592   34.0461 C.ar    1  UNL1        0.0175
      5 C           4.7418    0.1405   32.5696 C.ar    1  UNL1        0.0488
      6 C           3.6285    0.8112   31.8207 C.ar    1  UNL1        0.0168
      7 C           2.6642    1.7005   32.5484 C.ar    1  UNL1        0.0201
      8 C           2.8133    1.9191   34.0248 C.ar    1  UNL1        0.1022
      9 N           2.0216    2.7346   35.0037 N.ar    1  UNL1       -0.1692
     10 C           3.4794    0.5926   30.3443 C.3     1  UNL1        0.1083
     11 C           2.5735   -0.5734   30.6084 C.3     1  UNL1        0.0339
     12 C           4.3852    1.7586   30.0802 C.3     1  UNL1        0.0339
     13 O           3.3303    0.3740   28.8678 O.3     1  UNL1       -0.3826
     14 H           2.7459   -0.3840   28.7106 H       1  UNL1        0.2107
     15 N           5.7060   -0.7487   31.8420 N.am    1  UNL1       -0.2793
     16 C           5.6741   -2.2316   32.0658 C.2     1  UNL1        0.2672
     17 O           4.6780   -2.8252   33.0173 O.2     1  UNL1       -0.2682
     18 H           6.3598   -0.3591   31.2175 H       1  UNL1        0.1552
     19 C           6.6384   -3.1208   31.3383 C.ar    1  UNL1        0.1347
     20 C           7.9065   -3.5594   32.0087 C.ar    1  UNL1        0.0238
     21 C           8.8708   -4.4487   31.2810 C.ar    1  UNL1        0.0032
     22 C           8.5669   -4.8994   29.8830 C.ar    1  UNL1        0.0231
     23 C           7.2987   -4.4608   29.2126 C.ar    1  UNL1        0.1527
     24 N           6.3345   -3.5715   29.9402 N.ar    1  UNL1       -0.2368
     25 C           6.9948   -4.9115   27.8145 C.3     1  UNL1        0.4348
     26 F           6.6910   -5.3622   26.4164 F       1  UNL1       -0.1644
     27 F           5.6685   -5.4407   28.2733 F       1  UNL1       -0.1644
     28 F           8.3212   -4.3822   27.3556 F       1  UNL1       -0.1644
     29 C           2.1750    3.2077   37.6301 C.3     1  UNL1        0.1448
     30 C           2.4805    2.5646   38.9503 C.3     1  UNL1        0.0988
     31 C           1.2952    0.2709   39.2400 C.3     1  UNL1        0.0897
     32 N           1.4476    1.7123   39.6262 N.3     1  UNL1       -0.2686
     33 C           0.5673    2.3013   40.6883 C.3     1  UNL1        0.0897
@<TRIPOS>BOND
     1    31    32    1
     2    32    33    1
     3    32    30    1
     4    30    29    1
     5    29     1    1
     6     1     2   ar
     7     2     3   ar
     8     3     4   ar
     9     4     5   ar
    10     5    15    1
    11    15    16   am
    12    16    17    2
    13    16    19    1
    14    19    20   ar
    15    20    21   ar
    16    21    22   ar
    17    22    23   ar
    18    23    25    1
    19    25    26    1
    20    25    27    1
    21    25    28    1
    22    23    24   ar
    23     5     6   ar
    24     6    10    1
    25    10    11    1
    26    10    12    1
    27    10    13    1
    28     6     7   ar
    29     7     8   ar
    30     8     9   ar
    31     9     1   ar
    32     8     3   ar
    33    24    19   ar
    34    15    18    1
    35    13    14    1
