@<TRIPOS>MOLECULE
*****
 41 46 0 0 0
SMALL
GASTEIGER

@<TRIPOS>ATOM
      1 N           2.7115    2.7671   35.0907 N.3     1  UNL1       -0.2676
      2 C           3.4712    1.6329   34.4691 C.3     1  UNL1        0.0746
      3 C           3.2102    1.2478   33.0431 C.3     1  UNL1        0.0449
      4 C           2.1896    1.9970   32.2387 C.3     1  UNL1        0.1391
      5 C           1.4300    3.1312   32.8602 C.3     1  UNL1        0.0449
      6 C           1.6909    3.5162   34.2863 C.3     1  UNL1        0.0746
      7 C           1.2047    2.6503   31.3150 C.2     1  UNL1        0.2529
      8 O           0.3078    3.8035   31.6553 O.2     1  UNL1       -0.2724
      9 N           1.2742    1.9480   29.9913 N.am    1  UNL1       -0.1907
     10 C           2.3021    0.8606   30.0969 C.2     1  UNL1        0.3219
     11 O           2.6952   -0.0900   29.0053 O.2     1  UNL1       -0.2512
     12 N           2.8678    0.8909   31.4858 N.am    1  UNL1       -0.2223
     13 C           0.4590    2.2756   28.7756 C.ar    1  UNL1        0.0622
     14 C          -0.1488    1.1728   27.9606 C.ar    1  UNL1        0.0154
     15 C          -0.9640    1.5004   26.7449 C.ar    1  UNL1        0.0013
     16 C          -1.1715    2.9308   26.3441 C.ar    1  UNL1        0.0001
     17 C          -0.5637    4.0337   27.1591 C.ar    1  UNL1        0.0013
     18 C           0.2515    3.7062   28.3748 C.ar    1  UNL1        0.0154
     19 C          -1.9867    3.2584   25.1283 C.ar    1  UNL1        0.0000
     20 C          -3.4439    3.5856   25.2683 C.ar    1  UNL1        0.0000
     21 C          -4.2591    3.9132   24.0525 C.ar    1  UNL1        0.0011
     22 C          -3.6172    3.9136   22.6968 C.ar    1  UNL1        0.0140
     23 C          -2.1600    3.5865   22.5568 C.ar    1  UNL1        0.0011
     24 C          -1.3447    3.2589   23.7727 C.ar    1  UNL1        0.0000
     25 C          -4.4324    4.2412   21.4810 C.2     1  UNL1        0.0729
     26 O          -5.0246    5.6101   21.3217 O.co2   1  UNL1       -0.5446
     27 O          -4.6554    3.1999   20.4246 O.co2   1  UNL1       -0.5446
     28 C           3.9260   -0.0242   32.0269 C.ar    1  UNL1        0.1422
     29 C           5.3742    0.3441   31.8969 C.ar    1  UNL1        0.0554
     30 C           6.4323   -0.5711   32.4380 C.ar    1  UNL1        0.1036
     31 N           6.0422   -1.8546   33.1093 N.ar    1  UNL1       -0.2223
     32 C           4.5940   -2.2229   33.2393 C.ar    1  UNL1        0.2001
     33 N           3.5359   -1.3077   32.6982 N.ar    1  UNL1       -0.2086
     34 C           2.9724    3.1522   36.5168 C.3     1  UNL1        0.1183
     35 C           3.9718    0.5970   37.7302 C.3     1  UNL1        0.0323
     36 C           2.7016    1.2183   38.2306 C.ar    1  UNL1       -0.0069
     37 C           1.9311    0.5621   39.3376 C.ar    1  UNL1       -0.0015
     38 C           0.6608    1.1834   39.8381 C.ar    1  UNL1        0.0203
     39 C           0.1611    2.4610   39.2314 C.ar    1  UNL1        0.0985
     40 N           0.9316    3.1173   38.1243 N.ar    1  UNL1       -0.2471
     41 C           2.2019    2.4960   37.6239 C.ar    1  UNL1        0.0712
@<TRIPOS>UNITY_ATOM_ATTR
26 1
charge -1
@<TRIPOS>BOND
     1    35    36    1
     2    36    37   ar
     3    37    38   ar
     4    38    39   ar
     5    39    40   ar
     6    40    41   ar
     7    41    34    1
     8    34     1    1
     9     1     2    1
    10     2     3    1
    11     3     4    1
    12     4     5    1
    13     5     6    1
    14     4     7    1
    15     7     8    2
    16     7     9   am
    17     9    13    1
    18    13    14   ar
    19    14    15   ar
    20    15    16   ar
    21    16    19    1
    22    19    20   ar
    23    20    21   ar
    24    21    22   ar
    25    22    25    1
    26    25    26   ar
    27    25    27   ar
    28    22    23   ar
    29    23    24   ar
    30    16    17   ar
    31    17    18   ar
    32     9    10   am
    33    10    11    2
    34    10    12   am
    35    12    28    1
    36    28    29   ar
    37    29    30   ar
    38    30    31   ar
    39    31    32   ar
    40    32    33   ar
    41    41    36   ar
    42     6     1    1
    43    18    13   ar
    44    33    28   ar
    45    12     4    1
    46    24    19   ar
@<TRIPOS>MOLECULE
*****
 41 46 0 0 0
SMALL
GASTEIGER

@<TRIPOS>ATOM
      1 N           6.5231   -2.7238   23.8372 N.3     1  UNL1       -0.2676
      2 C           6.0845   -2.6234   22.4064 C.3     1  UNL1        0.0746
      3 C           4.8600   -1.8331   22.0511 C.3     1  UNL1        0.0449
      4 C           4.0743   -1.1433   23.1266 C.3     1  UNL1        0.1391
      5 C           4.5130   -1.2437   24.5575 C.3     1  UNL1        0.0449
      6 C           5.7374   -2.0339   24.9128 C.3     1  UNL1        0.0746
      7 C           3.1925   -0.4035   24.0885 C.2     1  UNL1        0.2529
      8 O           3.3803   -0.3241   25.5745 O.2     1  UNL1       -0.2724
      9 N           2.0898    0.2429   23.3033 N.am    1  UNL1       -0.1907
     10 C           2.2902   -0.0974   21.8562 C.2     1  UNL1        0.3219
     11 O           1.4174    0.3418   20.7182 O.2     1  UNL1       -0.2512
     12 N           3.5166   -0.9541   21.7470 N.am    1  UNL1       -0.2223
     13 C           0.9815    1.0822   23.8664 C.ar    1  UNL1        0.0622
     14 C           0.3560    2.1582   23.0292 C.ar    1  UNL1        0.0154
     15 C          -0.7523    2.9975   23.5923 C.ar    1  UNL1        0.0013
     16 C          -1.2352    2.7608   24.9925 C.ar    1  UNL1        0.0001
     17 C          -0.6097    1.6848   25.8297 C.ar    1  UNL1        0.0013
     18 C           0.4986    0.8455   25.2667 C.ar    1  UNL1        0.0154
     19 C          -2.3436    3.6002   25.5556 C.ar    1  UNL1        0.0000
     20 C          -3.7290    3.4896   24.9913 C.ar    1  UNL1        0.0000
     21 C          -4.8373    4.3289   25.5544 C.ar    1  UNL1        0.0011
     22 C          -4.5603    5.2789   26.6818 C.ar    1  UNL1        0.0140
     23 C          -3.1749    5.3894   27.2461 C.ar    1  UNL1        0.0011
     24 C          -2.0665    4.5500   26.6830 C.ar    1  UNL1        0.0000
     25 C          -5.6686    6.1182   27.2449 C.2     1  UNL1        0.0729
     26 O          -6.9794    6.2128   26.5217 O.co2   1  UNL1       -0.5446
     27 O          -5.4663    6.8628   28.5312 O.co2   1  UNL1       -0.5446
     28 C           4.0856   -1.5220   20.4806 C.ar    1  UNL1        0.1422
     29 C           5.0389   -0.7089   19.6559 C.ar    1  UNL1        0.0554
     30 C           5.6078   -1.2769   18.3895 C.ar    1  UNL1        0.1036
     31 N           5.2234   -2.6579   17.9477 N.ar    1  UNL1       -0.2223
     32 C           4.2701   -3.4709   18.7724 C.ar    1  UNL1        0.2001
     33 N           3.7012   -2.9030   20.0387 N.ar    1  UNL1       -0.2086
     34 C           7.7476   -3.5140   24.1926 C.3     1  UNL1        0.1183
     35 C           8.8351   -5.8875   22.7148 C.3     1  UNL1        0.0323
     36 C           8.1535   -6.0755   24.0376 C.ar    1  UNL1       -0.0069
     37 C           8.0155   -7.4503   24.6216 C.ar    1  UNL1       -0.0015
     38 C           7.3339   -7.6383   25.9445 C.ar    1  UNL1        0.0203
     39 C           6.7902   -6.4516   26.6834 C.ar    1  UNL1        0.0985
     40 N           6.9281   -5.0768   26.0995 N.ar    1  UNL1       -0.2471
     41 C           7.6097   -4.8887   24.7766 C.ar    1  UNL1        0.0712
@<TRIPOS>UNITY_ATOM_ATTR
26 1
charge -1
@<TRIPOS>BOND
     1    35    36    1
     2    36    37   ar
     3    37    38   ar
     4    38    39   ar
     5    39    40   ar
     6    40    41   ar
     7    41    34    1
     8    34     1    1
     9     1     2    1
    10     2     3    1
    11     3     4    1
    12     4     5    1
    13     5     6    1
    14     4     7    1
    15     7     8    2
    16     7     9   am
    17     9    13    1
    18    13    14   ar
    19    14    15   ar
    20    15    16   ar
    21    16    19    1
    22    19    20   ar
    23    20    21   ar
    24    21    22   ar
    25    22    25    1
    26    25    26   ar
    27    25    27   ar
    28    22    23   ar
    29    23    24   ar
    30    16    17   ar
    31    17    18   ar
    32     9    10   am
    33    10    11    2
    34    10    12   am
    35    12    28    1
    36    28    29   ar
    37    29    30   ar
    38    30    31   ar
    39    31    32   ar
    40    32    33   ar
    41    41    36   ar
    42     6     1    1
    43    18    13   ar
    44    33    28   ar
    45    12     4    1
    46    24    19   ar
@<TRIPOS>MOLECULE
*****
 41 46 0 0 0
SMALL
GASTEIGER

@<TRIPOS>ATOM
      1 N           6.5250   -2.6686   23.8875 N.3     1  UNL1       -0.2676
      2 C           6.0674   -2.6066   22.4604 C.3     1  UNL1        0.0746
      3 C           4.8319   -1.8353   22.1018 C.3     1  UNL1        0.0449
      4 C           4.0540   -1.1260   23.1703 C.3     1  UNL1        0.1391
      5 C           4.5116   -1.1880   24.5975 C.3     1  UNL1        0.0449
      6 C           5.7471   -1.9593   24.9560 C.3     1  UNL1        0.0746
      7 C           3.1782   -0.3702   24.1253 C.2     1  UNL1        0.2529
      8 O           3.3842   -0.2531   25.6064 O.2     1  UNL1       -0.2724
      9 N           2.0603    0.2479   23.3389 N.am    1  UNL1       -0.1907
     10 C           2.2452   -0.1259   21.8980 C.2     1  UNL1        0.3219
     11 O           1.3544    0.2784   20.7610 O.2     1  UNL1       -0.2512
     12 N           3.4773   -0.9750   21.7938 N.am    1  UNL1       -0.2223
     13 C           0.9521    1.0916   23.8957 C.ar    1  UNL1        0.0622
     14 C           0.4934    0.8895   25.3094 C.ar    1  UNL1        0.0154
     15 C          -0.6148    1.7332   25.8662 C.ar    1  UNL1        0.0013
     16 C          -1.2643    2.7789   25.0093 C.ar    1  UNL1        0.0001
     17 C          -0.8057    2.9810   23.5955 C.ar    1  UNL1        0.0013
     18 C           0.3025    2.1373   23.0387 C.ar    1  UNL1        0.0154
     19 C          -2.3726    3.6226   25.5661 C.ar    1  UNL1        0.0000
     20 C          -2.0916    4.5938   26.6742 C.ar    1  UNL1        0.0000
     21 C          -3.1998    5.4375   27.2310 C.ar    1  UNL1        0.0011
     22 C          -4.5891    5.3100   26.6797 C.ar    1  UNL1        0.0140
     23 C          -4.8700    4.3388   25.5716 C.ar    1  UNL1        0.0011
     24 C          -3.7617    3.4951   25.0148 C.ar    1  UNL1        0.0000
     25 C          -5.6973    6.1537   27.2365 C.2     1  UNL1        0.0729
     26 O          -5.4844    6.9322   28.5009 O.co2   1  UNL1       -0.5446
     27 O          -7.0183    6.2190   26.5289 O.co2   1  UNL1       -0.5446
     28 C           4.0350   -1.5688   20.5343 C.ar    1  UNL1        0.1422
     29 C           3.5756   -2.9208   20.0751 C.ar    1  UNL1        0.0554
     30 C           4.1334   -3.5146   18.8156 C.ar    1  UNL1        0.1036
     31 N           5.1505   -2.7563   18.0152 N.ar    1  UNL1       -0.2223
     32 C           5.6099   -1.4043   18.4744 C.ar    1  UNL1        0.2001
     33 N           5.0521   -0.8105   19.7340 N.ar    1  UNL1       -0.2086
     34 C           7.7605   -3.4400   24.2462 C.3     1  UNL1        0.1183
     35 C           8.7841   -5.7933   22.6925 C.3     1  UNL1        0.0323
     36 C           8.1544   -5.9996   24.0382 C.ar    1  UNL1       -0.0069
     37 C           8.0365   -7.3825   24.6070 C.ar    1  UNL1       -0.0015
     38 C           7.4068   -7.5887   25.9528 C.ar    1  UNL1        0.0203
     39 C           6.8950   -6.4121   26.7296 C.ar    1  UNL1        0.0985
     40 N           7.0129   -5.0291   26.1607 N.ar    1  UNL1       -0.2471
     41 C           7.6426   -4.8229   24.8150 C.ar    1  UNL1        0.0712
@<TRIPOS>UNITY_ATOM_ATTR
26 1
charge -1
@<TRIPOS>BOND
     1    35    36    1
     2    36    37   ar
     3    37    38   ar
     4    38    39   ar
     5    39    40   ar
     6    40    41   ar
     7    41    34    1
     8    34     1    1
     9     1     2    1
    10     2     3    1
    11     3     4    1
    12     4     5    1
    13     5     6    1
    14     4     7    1
    15     7     8    2
    16     7     9   am
    17     9    13    1
    18    13    14   ar
    19    14    15   ar
    20    15    16   ar
    21    16    19    1
    22    19    20   ar
    23    20    21   ar
    24    21    22   ar
    25    22    25    1
    26    25    26   ar
    27    25    27   ar
    28    22    23   ar
    29    23    24   ar
    30    16    17   ar
    31    17    18   ar
    32     9    10   am
    33    10    11    2
    34    10    12   am
    35    12    28    1
    36    28    29   ar
    37    29    30   ar
    38    30    31   ar
    39    31    32   ar
    40    32    33   ar
    41    41    36   ar
    42     6     1    1
    43    18    13   ar
    44    33    28   ar
    45    12     4    1
    46    24    19   ar
@<TRIPOS>MOLECULE
*****
 41 46 0 0 0
SMALL
GASTEIGER

@<TRIPOS>ATOM
      1 N           7.0228   -2.1927   24.1736 N.3     1  UNL1       -0.2676
      2 C           7.3768   -3.5082   24.8014 C.3     1  UNL1        0.0746
      3 C           7.1789   -3.7138   26.2739 C.3     1  UNL1        0.0449
      4 C           6.6270   -2.6039   27.1187 C.3     1  UNL1        0.1391
      5 C           6.2730   -1.2885   26.4909 C.3     1  UNL1        0.0449
      6 C           6.4709   -1.0829   25.0183 C.3     1  UNL1        0.0746
      7 C           6.0875   -1.5919   28.0856 C.2     1  UNL1        0.2529
      8 O           5.6513   -0.1967   27.7497 O.2     1  UNL1       -0.2724
      9 N           6.0609   -2.2202   29.4475 N.am    1  UNL1       -0.1907
     10 C           6.5840   -3.6206   29.3223 C.2     1  UNL1        0.3219
     11 O           6.7313   -4.6099   30.4399 O.2     1  UNL1       -0.2512
     12 N           6.9338   -3.8577   27.8830 N.am    1  UNL1       -0.2223
     13 C           5.5934   -1.5635   30.7125 C.ar    1  UNL1        0.0622
     14 C           6.5042   -1.4938   31.9022 C.ar    1  UNL1        0.0154
     15 C           6.0367   -0.8371   33.1672 C.ar    1  UNL1        0.0013
     16 C           4.6584   -0.2501   33.2424 C.ar    1  UNL1        0.0001
     17 C           3.7476   -0.3199   32.0526 C.ar    1  UNL1        0.0013
     18 C           4.2151   -0.9766   30.7877 C.ar    1  UNL1        0.0154
     19 C           4.1909    0.4066   34.5074 C.ar    1  UNL1        0.0000
     20 C           4.6331   -0.1276   35.8375 C.ar    1  UNL1        0.0000
     21 C           4.1656    0.5291   37.1025 C.ar    1  UNL1        0.0011
     22 C           3.2559    1.7200   37.0374 C.ar    1  UNL1        0.0140
     23 C           2.8137    2.2542   35.7073 C.ar    1  UNL1        0.0011
     24 C           3.2813    1.5975   34.4422 C.ar    1  UNL1        0.0000
     25 C           2.7884    2.3767   38.3023 C.2     1  UNL1        0.0729
     26 O           3.7386    2.5580   39.4487 O.co2   1  UNL1       -0.5446
     27 O           1.3707    2.8522   38.4209 O.co2   1  UNL1       -0.5446
     28 C           7.4923   -5.1258   27.3088 C.ar    1  UNL1        0.1422
     29 C           6.5664   -6.2138   26.8516 C.ar    1  UNL1        0.0554
     30 C           7.1251   -7.4819   26.2774 C.ar    1  UNL1        0.1036
     31 N           8.6096   -7.6622   26.1604 N.ar    1  UNL1       -0.2223
     32 C           9.5355   -6.5742   26.6176 C.ar    1  UNL1        0.2001
     33 N           8.9769   -5.3061   27.1918 N.ar    1  UNL1       -0.2086
     34 C           7.2207   -1.9871   22.7009 C.3     1  UNL1        0.1183
     35 C           7.7043   -4.3352   20.8975 C.3     1  UNL1        0.0323
     36 C           6.4013   -3.5951   20.8320 C.ar    1  UNL1       -0.0069
     37 C           5.3400   -4.0291   19.8648 C.ar    1  UNL1       -0.0015
     38 C           4.0370   -3.2891   19.7994 C.ar    1  UNL1        0.0203
     39 C           3.7951   -2.1150   20.7011 C.ar    1  UNL1        0.0985
     40 N           4.8563   -1.6810   21.6683 N.ar    1  UNL1       -0.2471
     41 C           6.1594   -2.4210   21.7338 C.ar    1  UNL1        0.0712
@<TRIPOS>UNITY_ATOM_ATTR
26 1
charge -1
@<TRIPOS>BOND
     1    35    36    1
     2    36    37   ar
     3    37    38   ar
     4    38    39   ar
     5    39    40   ar
     6    40    41   ar
     7    41    34    1
     8    34     1    1
     9     1     2    1
    10     2     3    1
    11     3     4    1
    12     4     5    1
    13     5     6    1
    14     4     7    1
    15     7     8    2
    16     7     9   am
    17     9    13    1
    18    13    14   ar
    19    14    15   ar
    20    15    16   ar
    21    16    19    1
    22    19    20   ar
    23    20    21   ar
    24    21    22   ar
    25    22    25    1
    26    25    26   ar
    27    25    27   ar
    28    22    23   ar
    29    23    24   ar
    30    16    17   ar
    31    17    18   ar
    32     9    10   am
    33    10    11    2
    34    10    12   am
    35    12    28    1
    36    28    29   ar
    37    29    30   ar
    38    30    31   ar
    39    31    32   ar
    40    32    33   ar
    41    41    36   ar
    42     6     1    1
    43    18    13   ar
    44    33    28   ar
    45    12     4    1
    46    24    19   ar
@<TRIPOS>MOLECULE
*****
 41 46 0 0 0
SMALL
GASTEIGER

@<TRIPOS>ATOM
      1 N           4.1705   -1.7847   23.0249 N.3     1  UNL1       -0.2676
      2 C           5.3596   -2.6191   23.3988 C.3     1  UNL1        0.0746
      3 C           5.8158   -2.6775   24.8265 C.3     1  UNL1        0.0449
      4 C           5.0829   -1.9014   25.8804 C.3     1  UNL1        0.1391
      5 C           3.8939   -1.0670   25.5065 C.3     1  UNL1        0.0449
      6 C           3.4377   -1.0086   24.0788 C.3     1  UNL1        0.0746
      7 C           4.4534   -1.1835   27.0372 C.2     1  UNL1        0.2529
      8 O           3.2571   -0.2811   26.9694 O.2     1  UNL1       -0.2724
      9 N           5.2302   -1.5264   28.2738 N.am    1  UNL1       -0.1907
     10 C           6.3399   -2.4562   27.8812 C.2     1  UNL1        0.3219
     11 O           7.3612   -3.0500   28.8054 O.2     1  UNL1       -0.2512
     12 N           6.2489   -2.6880   26.4020 N.am    1  UNL1       -0.2223
     13 C           4.9471   -1.0271   29.6596 C.ar    1  UNL1        0.0622
     14 C           6.0801   -0.6447   30.5651 C.ar    1  UNL1        0.0154
     15 C           5.7970   -0.1454   31.9509 C.ar    1  UNL1        0.0013
     16 C           4.3809   -0.0285   32.4313 C.ar    1  UNL1        0.0001
     17 C           3.2478   -0.4109   31.5258 C.ar    1  UNL1        0.0013
     18 C           3.5309   -0.9102   30.1400 C.ar    1  UNL1        0.0154
     19 C           4.0978    0.4708   33.8171 C.ar    1  UNL1        0.0000
     20 C           4.7327   -0.1987   34.9998 C.ar    1  UNL1        0.0000
     21 C           4.4496    0.3006   36.3856 C.ar    1  UNL1        0.0011
     22 C           3.5316    1.4695   36.5888 C.ar    1  UNL1        0.0140
     23 C           2.8967    2.1390   35.4061 C.ar    1  UNL1        0.0011
     24 C           3.1799    1.6396   34.0202 C.ar    1  UNL1        0.0000
     25 C           3.2485    1.9688   37.9746 C.2     1  UNL1        0.0729
     26 O           3.5669    1.1084   39.1614 O.co2   1  UNL1       -0.5446
     27 O           2.6469    3.3284   38.1737 O.co2   1  UNL1       -0.5446
     28 C           7.1632   -3.5542   25.5874 C.ar    1  UNL1        0.1422
     29 C           6.8851   -5.0223   25.4553 C.ar    1  UNL1        0.0554
     30 C           7.7995   -5.8885   24.6407 C.ar    1  UNL1        0.1036
     31 N           8.9919   -5.2867   23.9580 N.ar    1  UNL1       -0.2223
     32 C           9.2699   -3.8186   24.0900 C.ar    1  UNL1        0.2001
     33 N           8.3556   -2.9524   24.9047 N.ar    1  UNL1       -0.2086
     34 C           3.7142   -1.7263   21.5972 C.3     1  UNL1        0.1183
     35 C           3.4631   -3.8286   19.4718 C.3     1  UNL1        0.0323
     36 C           4.5934   -2.8438   19.4227 C.ar    1  UNL1       -0.0069
     37 C           5.5981   -2.9101   18.3109 C.ar    1  UNL1       -0.0015
     38 C           6.7285   -1.9252   18.2618 C.ar    1  UNL1        0.0203
     39 C           6.8540   -0.8740   19.3244 C.ar    1  UNL1        0.0985
     40 N           5.8493   -0.8077   20.4363 N.ar    1  UNL1       -0.2471
     41 C           4.7190   -1.7925   20.4854 C.ar    1  UNL1        0.0712
@<TRIPOS>UNITY_ATOM_ATTR
26 1
charge -1
@<TRIPOS>BOND
     1    35    36    1
     2    36    37   ar
     3    37    38   ar
     4    38    39   ar
     5    39    40   ar
     6    40    41   ar
     7    41    34    1
     8    34     1    1
     9     1     2    1
    10     2     3    1
    11     3     4    1
    12     4     5    1
    13     5     6    1
    14     4     7    1
    15     7     8    2
    16     7     9   am
    17     9    13    1
    18    13    14   ar
    19    14    15   ar
    20    15    16   ar
    21    16    19    1
    22    19    20   ar
    23    20    21   ar
    24    21    22   ar
    25    22    25    1
    26    25    26   ar
    27    25    27   ar
    28    22    23   ar
    29    23    24   ar
    30    16    17   ar
    31    17    18   ar
    32     9    10   am
    33    10    11    2
    34    10    12   am
    35    12    28    1
    36    28    29   ar
    37    29    30   ar
    38    30    31   ar
    39    31    32   ar
    40    32    33   ar
    41    41    36   ar
    42     6     1    1
    43    18    13   ar
    44    33    28   ar
    45    12     4    1
    46    24    19   ar
@<TRIPOS>MOLECULE
*****
 41 46 0 0 0
SMALL
GASTEIGER

@<TRIPOS>ATOM
      1 N           2.5409   -0.6379   21.2737 N.3     1  UNL1       -0.2676
      2 C           1.8240    0.6712   21.4224 C.3     1  UNL1        0.0746
      3 C           1.7083    1.3136   22.7729 C.3     1  UNL1        0.0449
      4 C           2.3095    0.6469   23.9746 C.3     1  UNL1        0.1391
      5 C           3.0263   -0.6623   23.8259 C.3     1  UNL1        0.0449
      6 C           3.1420   -1.3047   22.4754 C.3     1  UNL1        0.0746
      7 C           2.8571    0.1016   25.2603 C.2     1  UNL1        0.2529
      8 O           3.6165   -1.1819   25.4211 O.2     1  UNL1       -0.2724
      9 N           2.5118    1.0652   26.3569 N.am    1  UNL1       -0.1907
     10 C           1.7509    2.2060   25.7490 C.2     1  UNL1        0.3219
     11 O           1.2100    3.3962   26.4842 O.2     1  UNL1       -0.2512
     12 N           1.6258    1.9475   24.2767 N.am    1  UNL1       -0.2223
     13 C           2.8655    0.9144   27.8068 C.ar    1  UNL1        0.0622
     14 C           2.1791   -0.1254   28.6419 C.ar    1  UNL1        0.0154
     15 C           2.5327   -0.2762   30.0918 C.ar    1  UNL1        0.0013
     16 C           3.5728    0.6128   30.7065 C.ar    1  UNL1        0.0001
     17 C           4.2592    1.6526   29.8713 C.ar    1  UNL1        0.0013
     18 C           3.9056    1.8034   28.4214 C.ar    1  UNL1        0.0154
     19 C           3.9264    0.4620   32.1564 C.ar    1  UNL1        0.0000
     20 C           4.1948   -0.8998   32.7252 C.ar    1  UNL1        0.0000
     21 C           4.5484   -1.0506   34.1751 C.ar    1  UNL1        0.0011
     22 C           4.6337    0.1604   35.0562 C.ar    1  UNL1        0.0140
     23 C           4.3654    1.5222   34.4874 C.ar    1  UNL1        0.0011
     24 C           4.0117    1.6730   33.0374 C.ar    1  UNL1        0.0000
     25 C           4.9874    0.0096   36.5061 C.2     1  UNL1        0.0729
     26 O           4.0549    0.5232   37.5629 O.co2   1  UNL1       -0.5446
     27 O           6.2735   -0.6547   36.8993 O.co2   1  UNL1       -0.5446
     28 C           0.9379    2.8339   23.2812 C.ar    1  UNL1        0.1422
     29 C           1.6981    3.9388   22.6095 C.ar    1  UNL1        0.0554
     30 C           1.0101    4.8251   21.6140 C.ar    1  UNL1        0.1036
     31 N          -0.4382    4.6066   21.2902 N.ar    1  UNL1       -0.2223
     32 C          -1.1984    3.5017   21.9619 C.ar    1  UNL1        0.2001
     33 N          -0.5104    2.6154   22.9574 N.ar    1  UNL1       -0.2086
     34 C           2.6566   -1.2804   19.9231 C.3     1  UNL1        0.1183
     35 C           3.3998   -4.0862   19.1644 C.3     1  UNL1        0.0323
     36 C           4.3812   -2.9698   18.9630 C.ar    1  UNL1       -0.0069
     37 C           5.7342   -3.2562   18.3822 C.ar    1  UNL1       -0.0015
     38 C           6.7156   -2.1399   18.1807 C.ar    1  UNL1        0.0203
     39 C           6.3440   -0.7370   18.5600 C.ar    1  UNL1        0.0985
     40 N           4.9910   -0.4505   19.1409 N.ar    1  UNL1       -0.2471
     41 C           4.0096   -1.5669   19.3423 C.ar    1  UNL1        0.0712
@<TRIPOS>UNITY_ATOM_ATTR
26 1
charge -1
@<TRIPOS>BOND
     1    35    36    1
     2    36    37   ar
     3    37    38   ar
     4    38    39   ar
     5    39    40   ar
     6    40    41   ar
     7    41    34    1
     8    34     1    1
     9     1     2    1
    10     2     3    1
    11     3     4    1
    12     4     5    1
    13     5     6    1
    14     4     7    1
    15     7     8    2
    16     7     9   am
    17     9    13    1
    18    13    14   ar
    19    14    15   ar
    20    15    16   ar
    21    16    19    1
    22    19    20   ar
    23    20    21   ar
    24    21    22   ar
    25    22    25    1
    26    25    26   ar
    27    25    27   ar
    28    22    23   ar
    29    23    24   ar
    30    16    17   ar
    31    17    18   ar
    32     9    10   am
    33    10    11    2
    34    10    12   am
    35    12    28    1
    36    28    29   ar
    37    29    30   ar
    38    30    31   ar
    39    31    32   ar
    40    32    33   ar
    41    41    36   ar
    42     6     1    1
    43    18    13   ar
    44    33    28   ar
    45    12     4    1
    46    24    19   ar
@<TRIPOS>MOLECULE
*****
 41 46 0 0 0
SMALL
GASTEIGER

@<TRIPOS>ATOM
      1 N           4.3080   -2.3081   22.7925 N.3     1  UNL1       -0.2676
      2 C           3.5096   -1.1927   22.1856 C.3     1  UNL1        0.0746
      3 C           2.9192   -0.1292   23.0632 C.3     1  UNL1        0.0449
      4 C           3.1271   -0.1811   24.5478 C.3     1  UNL1        0.1391
      5 C           3.9255   -1.2964   25.1548 C.3     1  UNL1        0.0449
      6 C           4.5159   -2.3600   24.2772 C.3     1  UNL1        0.0746
      7 C           3.2501   -0.1011   26.0406 C.2     1  UNL1        0.2529
      8 O           3.9851   -1.0707   26.9179 O.2     1  UNL1       -0.2724
      9 N           2.5089    1.1187   26.5022 N.am    1  UNL1       -0.1907
     10 C           1.9279    1.7926   25.2945 C.2     1  UNL1        0.3219
     11 O           1.1088    3.0491   25.2947 O.2     1  UNL1       -0.2512
     12 N           2.3100    0.9894   24.0867 N.am    1  UNL1       -0.2223
     13 C           2.3727    1.5830   27.9220 C.ar    1  UNL1        0.0622
     14 C           3.4718    2.3805   28.5589 C.ar    1  UNL1        0.0154
     15 C           3.3356    2.8448   29.9787 C.ar    1  UNL1        0.0013
     16 C           2.1003    2.5115   30.7616 C.ar    1  UNL1        0.0001
     17 C           1.0012    1.7139   30.1246 C.ar    1  UNL1        0.0013
     18 C           1.1374    1.2496   28.7048 C.ar    1  UNL1        0.0154
     19 C           1.9641    2.9758   32.1814 C.ar    1  UNL1        0.0000
     20 C           2.4964    2.1313   33.3010 C.ar    1  UNL1        0.0000
     21 C           2.3602    2.5956   34.7208 C.ar    1  UNL1        0.0011
     22 C           1.6917    3.9045   35.0210 C.ar    1  UNL1        0.0140
     23 C           1.1594    4.7490   33.9014 C.ar    1  UNL1        0.0011
     24 C           1.2957    4.2847   32.4816 C.ar    1  UNL1        0.0000
     25 C           1.5555    4.3688   36.4408 C.2     1  UNL1        0.0729
     26 O           1.2612    3.3788   37.5287 O.co2   1  UNL1       -0.5446
     27 O           1.7135    5.8230   36.7728 O.co2   1  UNL1       -0.5446
     28 C           1.9399    1.3016   22.6670 C.ar    1  UNL1        0.1422
     29 C           0.6411    0.8057   22.1040 C.ar    1  UNL1        0.0554
     30 C           0.2711    1.1180   20.6843 C.ar    1  UNL1        0.1036
     31 N           1.2000    1.9262   19.8275 N.ar    1  UNL1       -0.2223
     32 C           2.4988    2.4221   20.3905 C.ar    1  UNL1        0.2001
     33 N           2.8688    2.1098   21.8102 N.ar    1  UNL1       -0.2086
     34 C           4.8985   -3.3717   21.9149 C.3     1  UNL1        0.1183
     35 C           3.5124   -3.8887   19.3050 C.3     1  UNL1        0.0323
     36 C           4.8712   -3.2536   19.3196 C.ar    1  UNL1       -0.0069
     37 C           5.5370   -2.8771   18.0294 C.ar    1  UNL1       -0.0015
     38 C           6.8959   -2.2420   18.0440 C.ar    1  UNL1        0.0203
     39 C           7.5889   -1.9834   19.3489 C.ar    1  UNL1        0.0985
     40 N           6.9231   -2.3600   20.6392 N.ar    1  UNL1       -0.2471
     41 C           5.5643   -2.9951   20.6246 C.ar    1  UNL1        0.0712
@<TRIPOS>UNITY_ATOM_ATTR
26 1
charge -1
@<TRIPOS>BOND
     1    35    36    1
     2    36    37   ar
     3    37    38   ar
     4    38    39   ar
     5    39    40   ar
     6    40    41   ar
     7    41    34    1
     8    34     1    1
     9     1     2    1
    10     2     3    1
    11     3     4    1
    12     4     5    1
    13     5     6    1
    14     4     7    1
    15     7     8    2
    16     7     9   am
    17     9    13    1
    18    13    14   ar
    19    14    15   ar
    20    15    16   ar
    21    16    19    1
    22    19    20   ar
    23    20    21   ar
    24    21    22   ar
    25    22    25    1
    26    25    26   ar
    27    25    27   ar
    28    22    23   ar
    29    23    24   ar
    30    16    17   ar
    31    17    18   ar
    32     9    10   am
    33    10    11    2
    34    10    12   am
    35    12    28    1
    36    28    29   ar
    37    29    30   ar
    38    30    31   ar
    39    31    32   ar
    40    32    33   ar
    41    41    36   ar
    42     6     1    1
    43    18    13   ar
    44    33    28   ar
    45    12     4    1
    46    24    19   ar
@<TRIPOS>MOLECULE
*****
 41 46 0 0 0
SMALL
GASTEIGER

@<TRIPOS>ATOM
      1 N           5.0827   -0.2028   34.7599 N.3     1  UNL1       -0.2676
      2 C           5.8007   -0.9842   33.6999 C.3     1  UNL1        0.0746
      3 C           5.3184   -0.9412   32.2802 C.3     1  UNL1        0.0449
      4 C           4.1180   -0.1167   31.9206 C.3     1  UNL1        0.1391
      5 C           3.3999    0.6647   32.9807 C.3     1  UNL1        0.0449
      6 C           3.8823    0.6216   34.4003 C.3     1  UNL1        0.0746
      7 C           2.9383    0.6587   31.4134 C.2     1  UNL1        0.2529
      8 O           2.0340    1.5271   32.2367 O.2     1  UNL1       -0.2724
      9 N           2.8219    0.4131   29.9381 N.am    1  UNL1       -0.1907
     10 C           3.9295   -0.5141   29.5337 C.2     1  UNL1        0.3219
     11 O           4.1904   -1.0242   28.1475 O.2     1  UNL1       -0.2512
     12 N           4.7305   -0.8415   30.7589 N.am    1  UNL1       -0.2223
     13 C           1.7806    0.9929   29.0273 C.ar    1  UNL1        0.0622
     14 C           2.0671    2.2539   28.2673 C.ar    1  UNL1        0.0154
     15 C           1.0259    2.8336   27.3565 C.ar    1  UNL1        0.0013
     16 C          -0.3019    2.1525   27.2057 C.ar    1  UNL1        0.0001
     17 C          -0.5885    0.8914   27.9657 C.ar    1  UNL1        0.0013
     18 C           0.4528    0.3116   28.8765 C.ar    1  UNL1        0.0154
     19 C          -1.3432    2.7322   26.2948 C.ar    1  UNL1        0.0000
     20 C          -1.0790    2.8329   24.8217 C.ar    1  UNL1        0.0000
     21 C          -2.1202    3.4126   23.9109 C.ar    1  UNL1        0.0011
     22 C          -3.4258    3.8918   24.4732 C.ar    1  UNL1        0.0140
     23 C          -3.6900    3.7912   25.9463 C.ar    1  UNL1        0.0011
     24 C          -2.6486    3.2114   26.8572 C.ar    1  UNL1        0.0000
     25 C          -4.4670    4.4716   23.5624 C.2     1  UNL1        0.0729
     26 O          -5.4544    3.5702   22.8823 O.co2   1  UNL1       -0.5446
     27 O          -4.5209    5.9528   23.3316 O.co2   1  UNL1       -0.5446
     28 C           5.9330   -1.7365   30.8130 C.ar    1  UNL1        0.1422
     29 C           7.2825   -1.2036   30.4323 C.ar    1  UNL1        0.0554
     30 C           8.4849   -2.0987   30.4865 C.ar    1  UNL1        0.1036
     31 N           8.3379   -3.5268   30.9213 N.ar    1  UNL1       -0.2223
     32 C           6.9884   -4.0597   31.3020 C.ar    1  UNL1        0.2001
     33 N           5.7860   -3.1646   31.2478 N.ar    1  UNL1       -0.2086
     34 C           5.5650   -0.2459   36.1797 C.3     1  UNL1        0.1183
     35 C           7.2496    2.1526   36.8198 C.3     1  UNL1        0.0323
     36 C           5.9194    1.9702   37.4887 C.ar    1  UNL1       -0.0069
     37 C           5.4316    2.9869   38.4777 C.ar    1  UNL1       -0.0015
     38 C           4.1014    2.8045   39.1467 C.ar    1  UNL1        0.0203
     39 C           3.2592    1.6053   38.8266 C.ar    1  UNL1        0.0985
     40 N           3.7470    0.5885   37.8376 N.ar    1  UNL1       -0.2471
     41 C           5.0772    0.7709   37.1686 C.ar    1  UNL1        0.0712
@<TRIPOS>UNITY_ATOM_ATTR
26 1
charge -1
@<TRIPOS>BOND
     1    35    36    1
     2    36    37   ar
     3    37    38   ar
     4    38    39   ar
     5    39    40   ar
     6    40    41   ar
     7    41    34    1
     8    34     1    1
     9     1     2    1
    10     2     3    1
    11     3     4    1
    12     4     5    1
    13     5     6    1
    14     4     7    1
    15     7     8    2
    16     7     9   am
    17     9    13    1
    18    13    14   ar
    19    14    15   ar
    20    15    16   ar
    21    16    19    1
    22    19    20   ar
    23    20    21   ar
    24    21    22   ar
    25    22    25    1
    26    25    26   ar
    27    25    27   ar
    28    22    23   ar
    29    23    24   ar
    30    16    17   ar
    31    17    18   ar
    32     9    10   am
    33    10    11    2
    34    10    12   am
    35    12    28    1
    36    28    29   ar
    37    29    30   ar
    38    30    31   ar
    39    31    32   ar
    40    32    33   ar
    41    41    36   ar
    42     6     1    1
    43    18    13   ar
    44    33    28   ar
    45    12     4    1
    46    24    19   ar
@<TRIPOS>MOLECULE
*****
 41 46 0 0 0
SMALL
GASTEIGER

@<TRIPOS>ATOM
      1 N           5.8599   -2.8567   23.7614 N.3     1  UNL1       -0.2676
      2 C           5.0060   -1.6765   23.4037 C.3     1  UNL1        0.0746
      3 C           4.4537   -0.7954   24.4847 C.3     1  UNL1        0.0449
      4 C           4.7554   -1.0944   25.9233 C.3     1  UNL1        0.1391
      5 C           5.6093   -2.2746   26.2809 C.3     1  UNL1        0.0449
      6 C           6.1615   -3.1557   25.2000 C.3     1  UNL1        0.0746
      7 C           4.9705   -1.2674   27.3977 C.2     1  UNL1        0.2529
      8 O           5.7757   -2.3519   28.0500 O.2     1  UNL1       -0.2724
      9 N           4.2390   -0.1653   28.1053 N.am    1  UNL1       -0.1907
     10 C           3.5719    0.6887   27.0682 C.2     1  UNL1        0.3219
     11 O           2.7330    1.9035   27.3331 O.2     1  UNL1       -0.2512
     12 N           3.8910    0.1145   25.7197 N.am    1  UNL1       -0.2223
     13 C           4.1844    0.0456   29.5894 C.ar    1  UNL1        0.0622
     14 C           2.8609    0.2141   30.2747 C.ar    1  UNL1        0.0154
     15 C           2.8062    0.4250   31.7588 C.ar    1  UNL1        0.0013
     16 C           4.0751    0.4674   32.5575 C.ar    1  UNL1        0.0001
     17 C           5.3987    0.2989   31.8722 C.ar    1  UNL1        0.0013
     18 C           5.4533    0.0879   30.3881 C.ar    1  UNL1        0.0154
     19 C           4.0204    0.6783   34.0416 C.ar    1  UNL1        0.0000
     20 C           4.7322   -0.2698   34.9606 C.ar    1  UNL1        0.0000
     21 C           4.6775   -0.0589   36.4447 C.ar    1  UNL1        0.0011
     22 C           3.9111    1.1002   37.0099 C.ar    1  UNL1        0.0140
     23 C           3.1993    2.0483   36.0908 C.ar    1  UNL1        0.0011
     24 C           3.2540    1.8373   34.6067 C.ar    1  UNL1        0.0000
     25 C           3.8564    1.3111   38.4939 C.2     1  UNL1        0.0729
     26 O           2.6975    0.7805   39.2847 O.co2   1  UNL1       -0.5446
     27 O           4.9607    2.0526   39.1873 O.co2   1  UNL1       -0.5446
     28 C           3.4271    0.6544   24.3993 C.ar    1  UNL1        0.1422
     29 C           2.1005    0.2326   23.8408 C.ar    1  UNL1        0.0554
     30 C           1.6367    0.7725   22.5204 C.ar    1  UNL1        0.1036
     31 N           2.4996    1.7343   21.7585 N.ar    1  UNL1       -0.2223
     32 C           3.8263    2.1561   22.3171 C.ar    1  UNL1        0.2001
     33 N           4.2900    1.6162   23.6374 N.ar    1  UNL1       -0.2086
     34 C           6.4122   -3.7380   22.6804 C.3     1  UNL1        0.1183
     35 C           7.6599   -2.2038   20.4243 C.3     1  UNL1        0.0323
     36 C           6.3982   -2.9820   20.1948 C.ar    1  UNL1       -0.0069
     37 C           5.7604   -2.9931   18.8372 C.ar    1  UNL1       -0.0015
     38 C           4.4988   -3.7713   18.6076 C.ar    1  UNL1        0.0203
     39 C           3.8750   -4.5384   19.7356 C.ar    1  UNL1        0.0985
     40 N           4.5128   -4.5273   21.0933 N.ar    1  UNL1       -0.2471
     41 C           5.7744   -3.7491   21.3228 C.ar    1  UNL1        0.0712
@<TRIPOS>UNITY_ATOM_ATTR
26 1
charge -1
@<TRIPOS>BOND
     1    35    36    1
     2    36    37   ar
     3    37    38   ar
     4    38    39   ar
     5    39    40   ar
     6    40    41   ar
     7    41    34    1
     8    34     1    1
     9     1     2    1
    10     2     3    1
    11     3     4    1
    12     4     5    1
    13     5     6    1
    14     4     7    1
    15     7     8    2
    16     7     9   am
    17     9    13    1
    18    13    14   ar
    19    14    15   ar
    20    15    16   ar
    21    16    19    1
    22    19    20   ar
    23    20    21   ar
    24    21    22   ar
    25    22    25    1
    26    25    26   ar
    27    25    27   ar
    28    22    23   ar
    29    23    24   ar
    30    16    17   ar
    31    17    18   ar
    32     9    10   am
    33    10    11    2
    34    10    12   am
    35    12    28    1
    36    28    29   ar
    37    29    30   ar
    38    30    31   ar
    39    31    32   ar
    40    32    33   ar
    41    41    36   ar
    42     6     1    1
    43    18    13   ar
    44    33    28   ar
    45    12     4    1
    46    24    19   ar
