@<TRIPOS>MOLECULE
*****
 22 24 0 0 0
SMALL
GASTEIGER

@<TRIPOS>ATOM
      1 C          -9.4184  -19.3427   20.3261 C.2     1  UNL1        0.2192
      2 O          -9.7836  -19.7630   18.9333 O.2     1  UNL1       -0.2844
      3 C          -7.9779  -19.2958   20.7420 C.ar    1  UNL1        0.1496
      4 N          -7.4056  -18.4562   21.8453 N.ar    1  UNL1       -0.2351
      5 C          -5.9308  -18.7218   21.9127 C.ar    1  UNL1        0.0882
      6 C          -4.8530  -18.1793   22.8037 C.ar    1  UNL1        0.0227
      7 C          -3.4360  -18.6407   22.6329 C.ar    1  UNL1        0.0382
      8 C          -3.0968  -19.6445   21.5712 C.ar    1  UNL1        0.1343
      9 O          -1.6797  -20.1059   21.4005 O.3     1  UNL1       -0.5055
     10 C          -4.1747  -20.1870   20.6803 C.ar    1  UNL1        0.0446
     11 C          -5.5917  -19.7257   20.8510 C.ar    1  UNL1        0.0516
     12 S          -6.8568  -20.0804   20.1275 S.2     1  UNL1       -0.0633
     13 H          -1.0064  -19.7670   21.9571 H       1  UNL1        0.2922
     14 C         -13.7193  -17.8487   24.2339 C.3     1  UNL1        0.0342
     15 C         -12.6440  -18.2222   23.2569 C.ar    1  UNL1        0.0118
     16 C         -12.7345  -17.7653   21.8311 C.ar    1  UNL1       -0.0012
     17 C         -11.6593  -18.1388   20.8542 C.ar    1  UNL1        0.0031
     18 C         -10.4935  -18.9692   21.3030 C.ar    1  UNL1        0.0440
     19 C         -10.4030  -19.4261   22.7289 C.ar    1  UNL1        0.0395
     20 C         -11.4783  -19.0526   23.7058 C.ar    1  UNL1        0.1297
     21 O         -11.3878  -19.5095   25.1317 O.3     1  UNL1       -0.5058
     22 H         -10.6596  -20.0283   25.4121 H       1  UNL1        0.2922
@<TRIPOS>BOND
     1    14    15    1
     2    15    16   ar
     3    16    17   ar
     4    17    18   ar
     5    18     1    1
     6     1     2    2
     7     1     3    1
     8     3     4   ar
     9     4     5   ar
    10     5     6   ar
    11     6     7   ar
    12     7     8   ar
    13     8     9    1
    14     8    10   ar
    15    10    11   ar
    16    11    12   ar
    17    18    19   ar
    18    19    20   ar
    19    20    21    1
    20    20    15   ar
    21    12     3   ar
    22    11     5   ar
    23     9    13    1
    24    21    22    1
@<TRIPOS>MOLECULE
*****
 22 24 0 0 0
SMALL
GASTEIGER

@<TRIPOS>ATOM
      1 C          -8.7440  -19.7104   19.9862 C.2     1  UNL1        0.2192
      2 O          -9.0188  -20.3599   18.6623 O.2     1  UNL1       -0.2844
      3 C          -7.3321  -19.5629   20.4705 C.ar    1  UNL1        0.1496
      4 N          -6.1365  -20.2968   19.9393 N.ar    1  UNL1       -0.2351
      5 C          -4.9333  -19.8431   20.7116 C.ar    1  UNL1        0.0882
      6 C          -3.4846  -20.2225   20.6268 C.ar    1  UNL1        0.0227
      7 C          -2.4878  -19.5877   21.5505 C.ar    1  UNL1        0.0382
      8 C          -2.9396  -18.5734   22.5590 C.ar    1  UNL1        0.1343
      9 O          -1.9427  -17.9385   23.4827 O.3     1  UNL1       -0.5055
     10 C          -4.3883  -18.1939   22.6437 C.ar    1  UNL1        0.0446
     11 C          -5.3852  -18.8288   21.7201 C.ar    1  UNL1        0.0516
     12 S          -6.8677  -18.6557   21.5711 S.2     1  UNL1       -0.0633
     13 H          -1.0377  -18.1755   23.4297 H       1  UNL1        0.2922
     14 C         -13.2928  -17.7023   23.3443 C.3     1  UNL1        0.0342
     15 C         -12.1556  -18.2044   22.5047 C.ar    1  UNL1        0.0118
     16 C         -11.2632  -19.2925   23.0241 C.ar    1  UNL1       -0.0012
     17 C         -10.1261  -19.7945   22.1846 C.ar    1  UNL1        0.0031
     18 C          -9.8812  -19.2084   20.8257 C.ar    1  UNL1        0.0440
     19 C         -10.7735  -18.1202   20.3063 C.ar    1  UNL1        0.0395
     20 C         -11.9107  -17.6182   21.1459 C.ar    1  UNL1        0.1297
     21 O         -12.8031  -16.5301   20.6266 O.3     1  UNL1       -0.5058
     22 H         -12.6501  -16.1640   19.7777 H       1  UNL1        0.2922
@<TRIPOS>BOND
     1    14    15    1
     2    15    16   ar
     3    16    17   ar
     4    17    18   ar
     5    18     1    1
     6     1     2    2
     7     1     3    1
     8     3     4   ar
     9     4     5   ar
    10     5     6   ar
    11     6     7   ar
    12     7     8   ar
    13     8     9    1
    14     8    10   ar
    15    10    11   ar
    16    11    12   ar
    17    18    19   ar
    18    19    20   ar
    19    20    21    1
    20    20    15   ar
    21    12     3   ar
    22    11     5   ar
    23     9    13    1
    24    21    22    1
@<TRIPOS>MOLECULE
*****
 22 24 0 0 0
SMALL
GASTEIGER

@<TRIPOS>ATOM
      1 C          -5.9081  -19.9981   20.6504 C.2     1  UNL1        0.2192
      2 O          -5.9146  -21.4954   20.5611 O.2     1  UNL1       -0.2844
      3 C          -7.1989  -19.2507   20.8095 C.ar    1  UNL1        0.1496
      4 N          -8.3898  -19.3447   19.9023 N.ar    1  UNL1       -0.2351
      5 C          -9.4523  -18.4301   20.4357 C.ar    1  UNL1        0.0882
      6 C         -10.8372  -18.1125   19.9550 C.ar    1  UNL1        0.0227
      7 C         -11.6879  -17.1356   20.7112 C.ar    1  UNL1        0.0382
      8 C         -11.1538  -16.4764   21.9481 C.ar    1  UNL1        0.1343
      9 O         -12.0046  -15.4994   22.7043 O.3     1  UNL1       -0.5055
     10 C          -9.7689  -16.7940   22.4289 C.ar    1  UNL1        0.0446
     11 C          -8.9181  -17.7709   21.6727 C.ar    1  UNL1        0.0516
     12 S          -7.5255  -18.2780   21.9036 S.2     1  UNL1       -0.0633
     13 H         -12.8697  -15.3010   22.4040 H       1  UNL1        0.2922
     14 C          -0.7192  -16.9985   20.3714 C.3     1  UNL1        0.0342
     15 C          -2.0165  -17.7484   20.4412 C.ar    1  UNL1        0.0118
     16 C          -2.7897  -18.0279   19.1865 C.ar    1  UNL1       -0.0012
     17 C          -4.0869  -18.7777   19.2563 C.ar    1  UNL1        0.0031
     18 C          -4.6109  -19.2482   20.5807 C.ar    1  UNL1        0.0440
     19 C          -3.8378  -18.9688   21.8353 C.ar    1  UNL1        0.0395
     20 C          -2.5405  -18.2189   21.7655 C.ar    1  UNL1        0.1297
     21 O          -1.7673  -17.9395   23.0202 O.3     1  UNL1       -0.5058
     22 H          -2.0947  -18.2334   23.8475 H       1  UNL1        0.2922
@<TRIPOS>BOND
     1    14    15    1
     2    15    16   ar
     3    16    17   ar
     4    17    18   ar
     5    18     1    1
     6     1     2    2
     7     1     3    1
     8     3     4   ar
     9     4     5   ar
    10     5     6   ar
    11     6     7   ar
    12     7     8   ar
    13     8     9    1
    14     8    10   ar
    15    10    11   ar
    16    11    12   ar
    17    18    19   ar
    18    19    20   ar
    19    20    21    1
    20    20    15   ar
    21    12     3   ar
    22    11     5   ar
    23     9    13    1
    24    21    22    1
@<TRIPOS>MOLECULE
*****
 22 24 0 0 0
SMALL
GASTEIGER

@<TRIPOS>ATOM
      1 C          -8.0961  -16.2428   23.2456 C.2     1  UNL1        0.2192
      2 O          -7.7322  -14.8676   23.7214 O.2     1  UNL1       -0.2844
      3 C          -7.0404  -17.1427   22.6749 C.ar    1  UNL1        0.1496
      4 N          -7.1870  -18.0170   21.4649 N.ar    1  UNL1       -0.2351
      5 C          -5.8900  -18.7410   21.2562 C.ar    1  UNL1        0.0882
      6 C          -5.4499  -19.7338   20.2215 C.ar    1  UNL1        0.0227
      7 C          -4.0616  -20.2998   20.2678 C.ar    1  UNL1        0.0382
      8 C          -3.1134  -19.8730   21.3489 C.ar    1  UNL1        0.1343
      9 O          -1.7250  -20.4391   21.3952 O.3     1  UNL1       -0.5055
     10 C          -3.5535  -18.8803   22.3836 C.ar    1  UNL1        0.0446
     11 C          -4.9418  -18.3143   22.3373 C.ar    1  UNL1        0.0516
     12 S          -5.6528  -17.3265   23.2141 S.2     1  UNL1       -0.0633
     13 H          -1.4501  -21.0592   20.7488 H       1  UNL1        0.2922
     14 C         -13.7743  -18.1437   23.6252 C.3     1  UNL1        0.0342
     15 C         -12.3547  -17.6685   23.5303 C.ar    1  UNL1        0.0118
     16 C         -12.0086  -16.5134   22.6381 C.ar    1  UNL1       -0.0012
     17 C         -10.5890  -16.0381   22.5432 C.ar    1  UNL1        0.0031
     18 C          -9.5156  -16.7180   23.3405 C.ar    1  UNL1        0.0440
     19 C          -9.8617  -17.8731   24.2327 C.ar    1  UNL1        0.0395
     20 C         -11.2814  -18.3483   24.3276 C.ar    1  UNL1        0.1297
     21 O         -11.6275  -19.5034   25.2197 O.3     1  UNL1       -0.5058
     22 H         -10.9570  -19.9281   25.7177 H       1  UNL1        0.2922
@<TRIPOS>BOND
     1    14    15    1
     2    15    16   ar
     3    16    17   ar
     4    17    18   ar
     5    18     1    1
     6     1     2    2
     7     1     3    1
     8     3     4   ar
     9     4     5   ar
    10     5     6   ar
    11     6     7   ar
    12     7     8   ar
    13     8     9    1
    14     8    10   ar
    15    10    11   ar
    16    11    12   ar
    17    18    19   ar
    18    19    20   ar
    19    20    21    1
    20    20    15   ar
    21    12     3   ar
    22    11     5   ar
    23     9    13    1
    24    21    22    1
@<TRIPOS>MOLECULE
*****
 22 24 0 0 0
SMALL
GASTEIGER

@<TRIPOS>ATOM
      1 C          -4.9477  -16.7583   23.8418 C.2     1  UNL1        0.2192
      2 O          -4.6590  -16.2438   25.2209 O.2     1  UNL1       -0.2844
      3 C          -6.3668  -16.9310   23.3875 C.ar    1  UNL1        0.1496
      4 N          -6.8302  -17.7948   22.2521 N.ar    1  UNL1       -0.2351
      5 C          -8.3214  -17.6678   22.1517 C.ar    1  UNL1        0.0882
      6 C          -9.3212  -18.2885   21.2216 C.ar    1  UNL1        0.0227
      7 C         -10.7793  -17.9669   21.3649 C.ar    1  UNL1        0.0382
      8 C         -11.2376  -17.0246   22.4382 C.ar    1  UNL1        0.1343
      9 O         -12.6957  -16.7030   22.5815 O.3     1  UNL1       -0.5055
     10 C         -10.2378  -16.4039   23.3683 C.ar    1  UNL1        0.0446
     11 C          -8.7797  -16.7255   23.2251 C.ar    1  UNL1        0.0516
     12 S          -7.5717  -16.2702   23.9888 S.2     1  UNL1       -0.0633
     13 H         -13.3203  -17.0907   22.0005 H       1  UNL1        0.2922
     14 C          -0.4259  -18.1255   20.1425 C.3     1  UNL1        0.0342
     15 C          -1.5564  -17.7837   21.0673 C.ar    1  UNL1        0.0118
     16 C          -1.8858  -16.3480   21.3506 C.ar    1  UNL1       -0.0012
     17 C          -3.0162  -16.0062   22.2754 C.ar    1  UNL1        0.0031
     18 C          -3.8173  -17.1001   22.9170 C.ar    1  UNL1        0.0440
     19 C          -3.4879  -18.5358   22.6337 C.ar    1  UNL1        0.0395
     20 C          -2.3575  -18.8776   21.7089 C.ar    1  UNL1        0.1297
     21 O          -2.0281  -20.3133   21.4256 O.3     1  UNL1       -0.5058
     22 H          -2.5285  -20.9967   21.8264 H       1  UNL1        0.2922
@<TRIPOS>BOND
     1    14    15    1
     2    15    16   ar
     3    16    17   ar
     4    17    18   ar
     5    18     1    1
     6     1     2    2
     7     1     3    1
     8     3     4   ar
     9     4     5   ar
    10     5     6   ar
    11     6     7   ar
    12     7     8   ar
    13     8     9    1
    14     8    10   ar
    15    10    11   ar
    16    11    12   ar
    17    18    19   ar
    18    19    20   ar
    19    20    21    1
    20    20    15   ar
    21    12     3   ar
    22    11     5   ar
    23     9    13    1
    24    21    22    1
@<TRIPOS>MOLECULE
*****
 22 24 0 0 0
SMALL
GASTEIGER

@<TRIPOS>ATOM
      1 C          -6.7123  -16.2592   23.5166 C.2     1  UNL1        0.2192
      2 O          -6.3290  -15.0381   24.2988 O.2     1  UNL1       -0.2844
      3 C          -8.1583  -16.5551   23.2489 C.ar    1  UNL1        0.1496
      4 N          -8.8906  -16.2867   21.9676 N.ar    1  UNL1       -0.2351
      5 C         -10.3107  -16.7370   22.1422 C.ar    1  UNL1        0.0882
      6 C         -11.4902  -16.7198   21.2157 C.ar    1  UNL1        0.0227
      7 C         -12.8151  -17.2494   21.6784 C.ar    1  UNL1        0.0382
      8 C         -12.9605  -17.7961   23.0676 C.ar    1  UNL1        0.1343
      9 O         -14.2855  -18.3257   23.5303 O.3     1  UNL1       -0.5055
     10 C         -11.7810  -17.8133   23.9941 C.ar    1  UNL1        0.0446
     11 C         -10.4561  -17.2837   23.5314 C.ar    1  UNL1        0.0516
     12 S          -9.1258  -17.1713   24.2153 S.2     1  UNL1       -0.0633
     13 H         -15.0223  -18.3150   22.9515 H       1  UNL1        0.2922
     14 C          -2.4618  -19.9607   21.4592 C.3     1  UNL1        0.0342
     15 C          -3.5244  -19.0353   21.9736 C.ar    1  UNL1        0.0118
     16 C          -4.9725  -19.3864   21.8009 C.ar    1  UNL1       -0.0012
     17 C          -6.0351  -18.4611   22.3152 C.ar    1  UNL1        0.0031
     18 C          -5.6497  -17.1846   23.0023 C.ar    1  UNL1        0.0440
     19 C          -4.2016  -16.8335   23.1751 C.ar    1  UNL1        0.0395
     20 C          -3.1390  -17.7589   22.6607 C.ar    1  UNL1        0.1297
     21 O          -1.6909  -17.4078   22.8335 O.3     1  UNL1       -0.5058
     22 H          -1.4502  -16.6104   23.2627 H       1  UNL1        0.2922
@<TRIPOS>BOND
     1    14    15    1
     2    15    16   ar
     3    16    17   ar
     4    17    18   ar
     5    18     1    1
     6     1     2    2
     7     1     3    1
     8     3     4   ar
     9     4     5   ar
    10     5     6   ar
    11     6     7   ar
    12     7     8   ar
    13     8     9    1
    14     8    10   ar
    15    10    11   ar
    16    11    12   ar
    17    18    19   ar
    18    19    20   ar
    19    20    21    1
    20    20    15   ar
    21    12     3   ar
    22    11     5   ar
    23     9    13    1
    24    21    22    1
@<TRIPOS>MOLECULE
*****
 22 24 0 0 0
SMALL
GASTEIGER

@<TRIPOS>ATOM
      1 C          -6.6228  -16.6818   23.7621 C.2     1  UNL1        0.2192
      2 O          -6.3959  -15.8803   25.0095 O.2     1  UNL1       -0.2844
      3 C          -7.9818  -16.7138   23.1279 C.ar    1  UNL1        0.1496
      4 N          -9.1076  -17.6321   23.5013 N.ar    1  UNL1       -0.2351
      5 C         -10.2752  -17.3190   22.6132 C.ar    1  UNL1        0.0882
      6 C         -11.6541  -17.9026   22.5252 C.ar    1  UNL1        0.0227
      7 C         -12.6289  -17.3745   21.5149 C.ar    1  UNL1        0.0382
      8 C         -12.2248  -16.2626   20.5927 C.ar    1  UNL1        0.1343
      9 O         -13.1997  -15.7345   19.5824 O.3     1  UNL1       -0.5055
     10 C         -10.8459  -15.6790   20.6807 C.ar    1  UNL1        0.0446
     11 C          -9.8710  -16.2072   21.6910 C.ar    1  UNL1        0.0516
     12 S          -8.4537  -15.8332   22.0091 S.2     1  UNL1       -0.0633
     13 H         -14.0611  -16.0991   19.5274 H       1  UNL1        0.2922
     14 C          -2.0941  -19.7596   21.3089 C.3     1  UNL1        0.0342
     15 C          -3.2263  -18.9901   21.9222 C.ar    1  UNL1        0.0118
     16 C          -2.9407  -17.8638   22.8707 C.ar    1  UNL1       -0.0012
     17 C          -4.0728  -17.0943   23.4840 C.ar    1  UNL1        0.0031
     18 C          -5.4907  -17.4512   23.1488 C.ar    1  UNL1        0.0440
     19 C          -5.7763  -18.5776   22.2003 C.ar    1  UNL1        0.0395
     20 C          -4.6441  -19.3471   21.5870 C.ar    1  UNL1        0.1297
     21 O          -4.9298  -20.4734   20.6385 O.3     1  UNL1       -0.5058
     22 H          -5.8155  -20.6964   20.4291 H       1  UNL1        0.2922
@<TRIPOS>BOND
     1    14    15    1
     2    15    16   ar
     3    16    17   ar
     4    17    18   ar
     5    18     1    1
     6     1     2    2
     7     1     3    1
     8     3     4   ar
     9     4     5   ar
    10     5     6   ar
    11     6     7   ar
    12     7     8   ar
    13     8     9    1
    14     8    10   ar
    15    10    11   ar
    16    11    12   ar
    17    18    19   ar
    18    19    20   ar
    19    20    21    1
    20    20    15   ar
    21    12     3   ar
    22    11     5   ar
    23     9    13    1
    24    21    22    1
@<TRIPOS>MOLECULE
*****
 22 24 0 0 0
SMALL
GASTEIGER

@<TRIPOS>ATOM
      1 C         -14.5226   -4.3162   19.0200 C.2     1  UNL1        0.2192
      2 O         -15.1486   -3.0519   19.5296 O.2     1  UNL1       -0.2844
      3 C         -15.2684   -5.6141   19.1163 C.ar    1  UNL1        0.1496
      4 N         -16.6968   -5.7807   19.5429 N.ar    1  UNL1       -0.2351
      5 C         -17.0279   -7.2429   19.4931 C.ar    1  UNL1        0.0882
      6 C         -18.2857   -7.9983   19.8052 C.ar    1  UNL1        0.0227
      7 C         -18.3197   -9.4908   19.6597 C.ar    1  UNL1        0.0382
      8 C         -17.0960  -10.2279   19.2023 C.ar    1  UNL1        0.1343
      9 O         -17.1301  -11.7205   19.0568 O.3     1  UNL1       -0.5055
     10 C         -15.8383   -9.4724   18.8902 C.ar    1  UNL1        0.0446
     11 C         -15.8043   -7.9799   19.0356 C.ar    1  UNL1        0.0516
     12 S         -14.7168   -6.9733   18.8027 S.2     1  UNL1       -0.0633
     13 H         -17.9157  -12.1924   19.2518 H       1  UNL1        0.2922
     14 C          -9.0353   -4.1818   16.5968 C.3     1  UNL1        0.0342
     15 C         -10.4072   -4.2154   17.2027 C.ar    1  UNL1        0.0118
     16 C         -11.6162   -4.0446   16.3314 C.ar    1  UNL1       -0.0012
     17 C         -12.9880   -4.0782   16.9372 C.ar    1  UNL1        0.0031
     18 C         -13.1508   -4.2826   18.4143 C.ar    1  UNL1        0.0440
     19 C         -11.9418   -4.4534   19.2856 C.ar    1  UNL1        0.0395
     20 C         -10.5699   -4.4198   18.6797 C.ar    1  UNL1        0.1297
     21 O          -9.3609   -4.5906   19.5510 O.3     1  UNL1       -0.5058
     22 H          -9.4626   -4.7183   20.4737 H       1  UNL1        0.2922
@<TRIPOS>BOND
     1    14    15    1
     2    15    16   ar
     3    16    17   ar
     4    17    18   ar
     5    18     1    1
     6     1     2    2
     7     1     3    1
     8     3     4   ar
     9     4     5   ar
    10     5     6   ar
    11     6     7   ar
    12     7     8   ar
    13     8     9    1
    14     8    10   ar
    15    10    11   ar
    16    11    12   ar
    17    18    19   ar
    18    19    20   ar
    19    20    21    1
    20    20    15   ar
    21    12     3   ar
    22    11     5   ar
    23     9    13    1
    24    21    22    1
@<TRIPOS>MOLECULE
*****
 22 24 0 0 0
SMALL
GASTEIGER

@<TRIPOS>ATOM
      1 C         -10.5046  -17.2232   22.0417 C.2     1  UNL1        0.2192
      2 O         -11.9114  -16.7032   22.0215 O.2     1  UNL1       -0.2844
      3 C          -9.5496  -16.7618   23.1023 C.ar    1  UNL1        0.1496
      4 N          -9.7174  -16.9478   24.5813 N.ar    1  UNL1       -0.2351
      5 C          -8.5305  -16.3343   25.2632 C.ar    1  UNL1        0.0882
      6 C          -8.1541  -16.2172   26.7105 C.ar    1  UNL1        0.0227
      7 C          -6.8764  -15.5351   27.1003 C.ar    1  UNL1        0.0382
      8 C          -5.9751  -14.9699   26.0428 C.ar    1  UNL1        0.1343
      9 O          -4.6973  -14.2877   26.4326 O.3     1  UNL1       -0.5055
     10 C          -6.3515  -15.0869   24.5955 C.ar    1  UNL1        0.0446
     11 C          -7.6292  -15.7691   24.2058 C.ar    1  UNL1        0.0516
     12 S          -8.2590  -16.0333   22.8703 S.2     1  UNL1       -0.0633
     13 H          -4.4621  -14.2146   27.3367 H       1  UNL1        0.2922
     14 C          -8.6978  -21.1493   17.8798 C.3     1  UNL1        0.0342
     15 C          -9.1495  -20.1677   18.9203 C.ar    1  UNL1        0.0118
     16 C         -10.5384  -19.6039   18.8666 C.ar    1  UNL1       -0.0012
     17 C         -10.9902  -18.6224   19.9071 C.ar    1  UNL1        0.0031
     18 C         -10.0529  -18.2047   21.0013 C.ar    1  UNL1        0.0440
     19 C          -8.6640  -18.7686   21.0549 C.ar    1  UNL1        0.0395
     20 C          -8.2123  -19.7501   20.0144 C.ar    1  UNL1        0.1297
     21 O          -6.8233  -20.3140   20.0681 O.3     1  UNL1       -0.5058
     22 H          -6.2378  -20.0531   20.7516 H       1  UNL1        0.2922
@<TRIPOS>BOND
     1    14    15    1
     2    15    16   ar
     3    16    17   ar
     4    17    18   ar
     5    18     1    1
     6     1     2    2
     7     1     3    1
     8     3     4   ar
     9     4     5   ar
    10     5     6   ar
    11     6     7   ar
    12     7     8   ar
    13     8     9    1
    14     8    10   ar
    15    10    11   ar
    16    11    12   ar
    17    18    19   ar
    18    19    20   ar
    19    20    21    1
    20    20    15   ar
    21    12     3   ar
    22    11     5   ar
    23     9    13    1
    24    21    22    1
