@<TRIPOS>MOLECULE
*****
 28 30 0 0 0
SMALL
GASTEIGER

@<TRIPOS>ATOM
      1 C          -9.9908  -19.2178   21.3259 C.ar    1  UNL1        0.0303
      2 C          -8.5731  -18.7290   21.3608 C.ar    1  UNL1        0.0147
      3 C          -7.6868  -18.9127   20.1647 C.ar    1  UNL1        0.0505
      4 C          -8.2182  -19.5852   18.9337 C.ar    1  UNL1        0.0170
      5 C          -9.6359  -20.0739   18.8988 C.ar    1  UNL1        0.0307
      6 C         -10.5222  -19.8902   20.0949 C.ar    1  UNL1        0.1383
      7 F         -11.9399  -20.3790   20.0600 F       1  UNL1       -0.2044
      8 C          -9.9325  -20.0705   23.0545 C.3     1  UNL1        0.0336
      9 C         -10.8771  -19.0341   22.5221 C.3     1  UNL1        0.1262
     10 C         -11.5139  -18.0615   21.5742 C.2     1  UNL1        0.0068
     11 C         -12.7089  -17.2651   22.0074 C.2     1  UNL1        0.0357
     12 S         -13.2672  -17.4413   23.3884 S.3     1  UNL1       -0.0536
     13 C         -12.6304  -18.4140   24.3363 C.2     1  UNL1        0.1526
     14 N         -13.1887  -18.5902   25.7174 N.pl3   1  UNL1       -0.3378
     15 N         -11.4354  -19.2103   23.9032 N.2     1  UNL1       -0.2464
     16 H         -13.9730  -18.0675   26.0017 H       1  UNL1        0.1442
     17 H         -12.7707  -19.2286   26.3395 H       1  UNL1        0.1442
     18 N          -6.2690  -18.4240   20.1996 N.am    1  UNL1       -0.2791
     19 C          -5.1365  -19.4076   20.2008 C.2     1  UNL1        0.2672
     20 O          -5.4217  -20.8799   20.1671 O.2     1  UNL1       -0.2682
     21 H          -6.0819  -17.4577   20.2217 H       1  UNL1        0.1552
     22 C          -3.7188  -18.9189   20.2357 C.ar    1  UNL1        0.1348
     23 C          -2.7958  -19.3723   21.3277 C.ar    1  UNL1        0.0246
     24 C          -1.3781  -18.8835   21.3625 C.ar    1  UNL1        0.0147
     25 C          -0.8833  -17.9415   20.3053 C.ar    1  UNL1        0.0768
     26 CL          0.5344  -17.4528   20.3402 Cl      1  UNL1       -0.0806
     27 C          -1.8063  -17.4881   19.2133 C.ar    1  UNL1        0.1103
     28 N          -3.2240  -17.9768   19.1784 N.ar    1  UNL1       -0.2384
@<TRIPOS>BOND
     1     9     8    1
     2     9     1    1
     3     1     2   ar
     4     2     3   ar
     5     3    18    1
     6    18    19   am
     7    19    20    2
     8    19    22    1
     9    22    23   ar
    10    23    24   ar
    11    24    25   ar
    12    25    26    1
    13    25    27   ar
    14    27    28   ar
    15     3     4   ar
    16     4     5   ar
    17     5     6   ar
    18     6     7    1
    19     9    10    1
    20    10    11    2
    21    11    12    1
    22    12    13    1
    23    13    14    1
    24    13    15    2
    25    15     9    1
    26     6     1   ar
    27    28    22   ar
    28    18    21    1
    29    14    16    1
    30    14    17    1
@<TRIPOS>MOLECULE
*****
 28 30 0 0 0
SMALL
GASTEIGER

@<TRIPOS>ATOM
      1 C          -9.3143  -18.8636   21.6687 C.ar    1  UNL1        0.0303
      2 C          -7.9046  -18.6639   21.1967 C.ar    1  UNL1        0.0147
      3 C          -6.8027  -19.5239   21.7407 C.ar    1  UNL1        0.0505
      4 C          -7.1104  -20.5837   22.7567 C.ar    1  UNL1        0.0170
      5 C          -8.5201  -20.7834   23.2287 C.ar    1  UNL1        0.0307
      6 C          -9.6220  -19.9234   22.6847 C.ar    1  UNL1        0.1383
      7 F         -11.0318  -20.1231   23.1567 F       1  UNL1       -0.2044
      8 C         -10.1087  -18.8308   19.9118 C.3     1  UNL1        0.0336
      9 C         -10.4164  -18.0036   21.1247 C.3     1  UNL1        0.1262
     10 C         -10.3414  -17.4751   22.5265 C.2     1  UNL1        0.0068
     11 C         -11.2615  -16.3739   22.9631 C.2     1  UNL1        0.0357
     12 S         -12.2567  -15.8012   21.9978 S.3     1  UNL1       -0.0536
     13 C         -12.3317  -16.3297   20.5961 C.2     1  UNL1        0.1526
     14 N         -13.3269  -15.7569   19.6308 N.pl3   1  UNL1       -0.3378
     15 N         -11.4116  -17.4309   20.1595 N.2     1  UNL1       -0.2464
     16 H         -13.9308  -15.0341   19.9173 H       1  UNL1        0.1442
     17 H         -13.3761  -16.1038   18.7108 H       1  UNL1        0.1442
     18 N          -5.3929  -19.3242   21.2687 N.am    1  UNL1       -0.2791
     19 C          -4.5590  -18.2180   21.8439 C.2     1  UNL1        0.2672
     20 O          -5.1349  -17.3114   22.8911 O.2     1  UNL1       -0.2682
     21 H          -5.0149  -19.9192   20.5814 H       1  UNL1        0.1552
     22 C          -3.1493  -18.0182   21.3719 C.ar    1  UNL1        0.1348
     23 C          -2.3784  -19.1721   20.8026 C.ar    1  UNL1        0.0246
     24 C          -0.9686  -18.9724   20.3307 C.ar    1  UNL1        0.0147
     25 C          -0.3298  -17.6187   20.4280 C.ar    1  UNL1        0.0768
     26 CL          1.0799  -17.4190   19.9561 Cl      1  UNL1       -0.0806
     27 C          -1.1008  -16.4648   20.9973 C.ar    1  UNL1        0.1103
     28 N          -2.5105  -16.6645   21.4693 N.ar    1  UNL1       -0.2384
@<TRIPOS>BOND
     1     9     8    1
     2     9     1    1
     3     1     2   ar
     4     2     3   ar
     5     3    18    1
     6    18    19   am
     7    19    20    2
     8    19    22    1
     9    22    23   ar
    10    23    24   ar
    11    24    25   ar
    12    25    26    1
    13    25    27   ar
    14    27    28   ar
    15     3     4   ar
    16     4     5   ar
    17     5     6   ar
    18     6     7    1
    19     9    10    1
    20    10    11    2
    21    11    12    1
    22    12    13    1
    23    13    14    1
    24    13    15    2
    25    15     9    1
    26     6     1   ar
    27    28    22   ar
    28    18    21    1
    29    14    16    1
    30    14    17    1
@<TRIPOS>MOLECULE
*****
 28 30 0 0 0
SMALL
GASTEIGER

@<TRIPOS>ATOM
      1 C         -11.6708   -4.4498   18.2842 C.ar    1  UNL1        0.0303
      2 C         -12.8546   -5.2969   17.9221 C.ar    1  UNL1        0.0147
      3 C         -12.8029   -6.7825   18.1220 C.ar    1  UNL1        0.0505
      4 C         -11.5675   -7.4212   18.6839 C.ar    1  UNL1        0.0170
      5 C         -10.3837   -6.5741   19.0460 C.ar    1  UNL1        0.0307
      6 C         -10.4354   -5.0884   18.8461 C.ar    1  UNL1        0.1383
      7 F          -9.2516   -4.2413   19.2082 F       1  UNL1       -0.2044
      8 C         -12.5672   -3.0905   19.3174 C.3     1  UNL1        0.0336
      9 C         -11.7225   -2.9640   18.0843 C.3     1  UNL1        0.1262
     10 C         -10.8599   -3.3535   16.9207 C.2     1  UNL1        0.0068
     11 C         -10.3423   -2.3012   15.9854 C.2     1  UNL1        0.0357
     12 S         -10.6873   -0.8594   16.2138 S.3     1  UNL1       -0.0536
     13 C         -11.5499   -0.4699   17.3774 C.2     1  UNL1        0.1526
     14 N         -11.8949    0.9719   17.6059 N.pl3   1  UNL1       -0.3378
     15 N         -12.0675   -1.5222   18.3127 N.2     1  UNL1       -0.2464
     16 H         -11.5552    1.6626   16.9920 H       1  UNL1        0.1442
     17 H         -12.4611    1.2276   18.3696 H       1  UNL1        0.1442
     18 N         -13.9867   -7.6297   17.7599 N.am    1  UNL1       -0.2791
     19 C         -15.2790   -7.4701   18.5046 C.2     1  UNL1        0.2672
     20 O         -15.3874   -6.4635   19.6114 O.2     1  UNL1       -0.2682
     21 H         -13.9155   -8.2904   17.0335 H       1  UNL1        0.1552
     22 C         -16.4628   -8.3172   18.1426 C.ar    1  UNL1        0.1348
     23 C         -16.4912   -9.7680   18.5227 C.ar    1  UNL1        0.0246
     24 C         -17.6751  -10.6151   18.1606 C.ar    1  UNL1        0.0147
     25 C         -18.8304  -10.0114   17.4185 C.ar    1  UNL1        0.0768
     26 CL        -20.0142  -10.8584   17.0565 Cl      1  UNL1       -0.0806
     27 C         -18.8020   -8.5606   17.0385 C.ar    1  UNL1        0.1103
     28 N         -17.6182   -7.7135   17.4005 N.ar    1  UNL1       -0.2384
@<TRIPOS>BOND
     1     9     8    1
     2     9     1    1
     3     1     2   ar
     4     2     3   ar
     5     3    18    1
     6    18    19   am
     7    19    20    2
     8    19    22    1
     9    22    23   ar
    10    23    24   ar
    11    24    25   ar
    12    25    26    1
    13    25    27   ar
    14    27    28   ar
    15     3     4   ar
    16     4     5   ar
    17     5     6   ar
    18     6     7    1
    19     9    10    1
    20    10    11    2
    21    11    12    1
    22    12    13    1
    23    13    14    1
    24    13    15    2
    25    15     9    1
    26     6     1   ar
    27    28    22   ar
    28    18    21    1
    29    14    16    1
    30    14    17    1
@<TRIPOS>MOLECULE
*****
 28 30 0 0 0
SMALL
GASTEIGER

@<TRIPOS>ATOM
      1 C           3.1956    0.6602   18.5326 C.ar    1  UNL1        0.0303
      2 C           1.7439    1.0357   18.5704 C.ar    1  UNL1        0.0147
      3 C           1.3424    2.4809   18.5544 C.ar    1  UNL1        0.0505
      4 C           2.3926    3.5505   18.5006 C.ar    1  UNL1        0.0170
      5 C           3.8443    3.1750   18.4629 C.ar    1  UNL1        0.0307
      6 C           4.2458    1.7299   18.4789 C.ar    1  UNL1        0.1383
      7 F           5.6976    1.3544   18.4412 F       1  UNL1       -0.2044
      8 C           3.5770   -0.5366   17.0695 C.3     1  UNL1        0.0336
      9 C           3.5972   -0.7850   18.5486 C.3     1  UNL1        0.1262
     10 C           3.4780   -0.5314   20.0222 C.2     1  UNL1        0.0068
     11 C           3.7533   -1.6368   20.9981 C.2     1  UNL1        0.0357
     12 S           4.1478   -2.9957   20.5003 S.3     1  UNL1       -0.0536
     13 C           4.2671   -3.2493   19.0268 C.2     1  UNL1        0.1526
     14 N           4.6616   -4.6082   18.5290 N.pl3   1  UNL1       -0.3378
     15 N           3.9918   -2.1439   18.0509 N.2     1  UNL1       -0.2464
     16 H           4.8423   -5.3337   19.1695 H       1  UNL1        0.1442
     17 H           4.7399   -4.7746   17.5619 H       1  UNL1        0.1442
     18 N          -0.1094    2.8564   18.5921 N.am    1  UNL1       -0.2791
     19 C          -0.8362    2.9105   19.9032 C.2     1  UNL1        0.2672
     20 O          -0.1113    2.5890   21.1764 O.2     1  UNL1       -0.2682
     21 H          -0.5852    3.0674   17.7564 H       1  UNL1        0.1552
     22 C          -2.2879    3.2860   19.9409 C.ar    1  UNL1        0.1348
     23 C          -2.9020    4.0241   18.7885 C.ar    1  UNL1        0.0246
     24 C          -4.3538    4.3996   18.8263 C.ar    1  UNL1        0.0147
     25 C          -5.1914    4.0371   20.0166 C.ar    1  UNL1        0.0768
     26 CL         -6.6432    4.4126   20.0544 Cl      1  UNL1       -0.0806
     27 C          -4.5774    3.2990   21.1691 C.ar    1  UNL1        0.1103
     28 N          -3.1257    2.9235   21.1313 N.ar    1  UNL1       -0.2384
@<TRIPOS>BOND
     1     9     8    1
     2     9     1    1
     3     1     2   ar
     4     2     3   ar
     5     3    18    1
     6    18    19   am
     7    19    20    2
     8    19    22    1
     9    22    23   ar
    10    23    24   ar
    11    24    25   ar
    12    25    26    1
    13    25    27   ar
    14    27    28   ar
    15     3     4   ar
    16     4     5   ar
    17     5     6   ar
    18     6     7    1
    19     9    10    1
    20    10    11    2
    21    11    12    1
    22    12    13    1
    23    13    14    1
    24    13    15    2
    25    15     9    1
    26     6     1   ar
    27    28    22   ar
    28    18    21    1
    29    14    16    1
    30    14    17    1
@<TRIPOS>MOLECULE
*****
 28 30 0 0 0
SMALL
GASTEIGER

@<TRIPOS>ATOM
      1 C           3.6740   -1.0155   19.8709 C.ar    1  UNL1        0.0303
      2 C           4.0960   -1.8269   21.0597 C.ar    1  UNL1        0.0147
      3 C           4.7721   -3.1512   20.8621 C.ar    1  UNL1        0.0505
      4 C           5.0261   -3.6642   19.4756 C.ar    1  UNL1        0.0170
      5 C           4.6040   -2.8528   18.2868 C.ar    1  UNL1        0.0307
      6 C           3.9280   -1.5285   18.4844 C.ar    1  UNL1        0.1383
      7 F           3.5059   -0.7170   17.2954 F       1  UNL1       -0.2044
      8 C           4.4206    0.7617   19.9231 C.3     1  UNL1        0.0336
      9 C           2.9979    0.3089   20.0684 C.3     1  UNL1        0.1262
     10 C           1.8101   -0.6039   20.1451 C.2     1  UNL1        0.0068
     11 C           0.4404   -0.0351   20.3689 C.2     1  UNL1        0.0357
     12 S           0.2584    1.4466   20.5160 S.3     1  UNL1       -0.0536
     13 C           1.4462    2.3594   20.4393 C.2     1  UNL1        0.1526
     14 N           1.2642    3.8410   20.5864 N.pl3   1  UNL1       -0.3378
     15 N           2.8160    1.7905   20.2155 N.2     1  UNL1       -0.2464
     16 H           0.3652    4.2144   20.7333 H       1  UNL1        0.1442
     17 H           2.0439    4.4401   20.5360 H       1  UNL1        0.1442
     18 N           5.1941   -3.9627   22.0511 N.am    1  UNL1       -0.2791
     19 C           6.6226   -3.9367   22.5079 C.2     1  UNL1        0.2672
     20 O           7.6291   -3.0993   21.7758 O.2     1  UNL1       -0.2682
     21 H           4.5336   -4.5123   22.5315 H       1  UNL1        0.1552
     22 C           7.0447   -4.7481   23.6968 C.ar    1  UNL1        0.1348
     23 C           6.7087   -4.2802   25.0817 C.ar    1  UNL1        0.0246
     24 C           7.1308   -5.0917   26.2706 C.ar    1  UNL1        0.0147
     25 C           7.8890   -6.3710   26.0745 C.ar    1  UNL1        0.0768
     26 CL          8.3111   -7.1824   27.2634 Cl      1  UNL1       -0.0806
     27 C           8.2250   -6.8389   24.6895 C.ar    1  UNL1        0.1103
     28 N           7.8029   -6.0275   23.5007 N.ar    1  UNL1       -0.2384
@<TRIPOS>BOND
     1     9     8    1
     2     9     1    1
     3     1     2   ar
     4     2     3   ar
     5     3    18    1
     6    18    19   am
     7    19    20    2
     8    19    22    1
     9    22    23   ar
    10    23    24   ar
    11    24    25   ar
    12    25    26    1
    13    25    27   ar
    14    27    28   ar
    15     3     4   ar
    16     4     5   ar
    17     5     6   ar
    18     6     7    1
    19     9    10    1
    20    10    11    2
    21    11    12    1
    22    12    13    1
    23    13    14    1
    24    13    15    2
    25    15     9    1
    26     6     1   ar
    27    28    22   ar
    28    18    21    1
    29    14    16    1
    30    14    17    1
@<TRIPOS>MOLECULE
*****
 28 30 0 0 0
SMALL
GASTEIGER

@<TRIPOS>ATOM
      1 C           3.0002   -0.2388   19.9335 C.ar    1  UNL1        0.0303
      2 C           3.7975   -0.8129   21.0669 C.ar    1  UNL1        0.0147
      3 C           5.0466   -1.5941   20.7851 C.ar    1  UNL1        0.0505
      4 C           5.4983   -1.8013   19.3698 C.ar    1  UNL1        0.0170
      5 C           4.7010   -1.2272   18.2364 C.ar    1  UNL1        0.0307
      6 C           3.4520   -0.4459   18.5182 C.ar    1  UNL1        0.1383
      7 F           2.6546    0.1282   17.3848 F       1  UNL1       -0.2044
      8 C           1.1840   -0.8452   20.1622 C.3     1  UNL1        0.0336
      9 C           1.7511    0.5425   20.2153 C.3     1  UNL1        0.1262
     10 C           2.7519    1.6588   20.1705 C.2     1  UNL1        0.0068
     11 C           2.3068    3.0745   20.3891 C.2     1  UNL1        0.0357
     12 S           0.8607    3.3738   20.6525 S.3     1  UNL1       -0.0536
     13 C          -0.1401    2.2575   20.6973 C.2     1  UNL1        0.1526
     14 N          -1.5862    2.5568   20.9607 N.pl3   1  UNL1       -0.3378
     15 N           0.3050    0.8418   20.4787 N.2     1  UNL1       -0.2464
     16 H          -1.8784    3.4859   21.1042 H       1  UNL1        0.1442
     17 H          -2.2431    1.8241   20.9901 H       1  UNL1        0.1442
     18 N           5.8440   -2.1682   21.9185 N.am    1  UNL1       -0.2791
     19 C           5.6533   -3.6010   22.3195 C.2     1  UNL1        0.2672
     20 O           4.6652   -4.4597   21.5870 O.2     1  UNL1       -0.2682
     21 H           6.4924   -1.6046   22.3993 H       1  UNL1        0.1552
     22 C           6.4506   -4.1751   23.4529 C.ar    1  UNL1        0.1348
     23 C           6.3288   -3.5888   24.8281 C.ar    1  UNL1        0.0246
     24 C           7.1262   -4.1630   25.9616 C.ar    1  UNL1        0.0147
     25 C           8.0453   -5.3235   25.7197 C.ar    1  UNL1        0.0768
     26 CL          8.8426   -5.8976   26.8530 Cl      1  UNL1       -0.0806
     27 C           8.1671   -5.9098   24.3444 C.ar    1  UNL1        0.1103
     28 N           7.3697   -5.3356   23.2110 N.ar    1  UNL1       -0.2384
@<TRIPOS>BOND
     1     9     8    1
     2     9     1    1
     3     1     2   ar
     4     2     3   ar
     5     3    18    1
     6    18    19   am
     7    19    20    2
     8    19    22    1
     9    22    23   ar
    10    23    24   ar
    11    24    25   ar
    12    25    26    1
    13    25    27   ar
    14    27    28   ar
    15     3     4   ar
    16     4     5   ar
    17     5     6   ar
    18     6     7    1
    19     9    10    1
    20    10    11    2
    21    11    12    1
    22    12    13    1
    23    13    14    1
    24    13    15    2
    25    15     9    1
    26     6     1   ar
    27    28    22   ar
    28    18    21    1
    29    14    16    1
    30    14    17    1
@<TRIPOS>MOLECULE
*****
 28 30 0 0 0
SMALL
GASTEIGER

@<TRIPOS>ATOM
      1 C           3.0487   -0.5465   19.7706 C.ar    1  UNL1        0.0303
      2 C           2.1086   -0.1772   20.8794 C.ar    1  UNL1        0.0147
      3 C           0.9770    0.7721   20.6183 C.ar    1  UNL1        0.0505
      4 C           0.7855    1.3521   19.2483 C.ar    1  UNL1        0.0170
      5 C           1.7256    0.9828   18.1394 C.ar    1  UNL1        0.0307
      6 C           2.8573    0.0335   18.4005 C.ar    1  UNL1        0.1383
      7 F           3.7975   -0.3358   17.2916 F       1  UNL1       -0.2044
      8 C           4.7929   -0.2184   20.5249 C.3     1  UNL1        0.0336
      9 C           4.1804   -1.4958   20.0317 C.3     1  UNL1        0.1262
     10 C           3.1750   -2.4434   19.4477 C.2     1  UNL1        0.0068
     11 C           3.5138   -3.8968   19.2962 C.2     1  UNL1        0.0357
     12 S           4.8582   -4.4024   19.7286 S.3     1  UNL1       -0.0536
     13 C           5.8637   -3.4548   20.3125 C.2     1  UNL1        0.1526
     14 N           7.2081   -3.9605   20.7450 N.pl3   1  UNL1       -0.3378
     15 N           5.5248   -2.0015   20.4641 N.2     1  UNL1       -0.2464
     16 H           7.4305   -4.9144   20.6455 H       1  UNL1        0.1442
     17 H           7.8680   -3.3385   21.1282 H       1  UNL1        0.1442
     18 N           0.0367    1.1415   21.7272 N.am    1  UNL1       -0.2791
     19 C           0.1744    2.4662   22.4173 C.2     1  UNL1        0.2672
     20 O           1.2524    3.4216   21.9984 O.2     1  UNL1       -0.2682
     21 H          -0.6707    0.5145   22.0021 H       1  UNL1        0.1552
     22 C          -0.7657    2.8356   23.5261 C.ar    1  UNL1        0.1348
     23 C          -0.4711    2.4073   24.9332 C.ar    1  UNL1        0.0246
     24 C          -1.4113    2.7768   26.0420 C.ar    1  UNL1        0.0147
     25 C          -2.6461    3.5744   25.7439 C.ar    1  UNL1        0.0768
     26 CL         -3.5863    3.9438   26.8527 Cl      1  UNL1       -0.0806
     27 C          -2.9408    4.0027   24.3368 C.ar    1  UNL1        0.1103
     28 N          -2.0006    3.6333   23.2280 N.ar    1  UNL1       -0.2384
@<TRIPOS>BOND
     1     9     8    1
     2     9     1    1
     3     1     2   ar
     4     2     3   ar
     5     3    18    1
     6    18    19   am
     7    19    20    2
     8    19    22    1
     9    22    23   ar
    10    23    24   ar
    11    24    25   ar
    12    25    26    1
    13    25    27   ar
    14    27    28   ar
    15     3     4   ar
    16     4     5   ar
    17     5     6   ar
    18     6     7    1
    19     9    10    1
    20    10    11    2
    21    11    12    1
    22    12    13    1
    23    13    14    1
    24    13    15    2
    25    15     9    1
    26     6     1   ar
    27    28    22   ar
    28    18    21    1
    29    14    16    1
    30    14    17    1
@<TRIPOS>MOLECULE
*****
 28 30 0 0 0
SMALL
GASTEIGER

@<TRIPOS>ATOM
      1 C           2.9179   -0.0172   20.2011 C.ar    1  UNL1        0.0303
      2 C           1.5180    0.2943   20.6408 C.ar    1  UNL1        0.0147
      3 C           0.7478    1.3922   19.9691 C.ar    1  UNL1        0.0505
      4 C           1.3773    2.1786   18.8577 C.ar    1  UNL1        0.0170
      5 C           2.7772    1.8671   18.4180 C.ar    1  UNL1        0.0307
      6 C           3.5475    0.7692   19.0897 C.ar    1  UNL1        0.1383
      7 F           4.9474    0.4577   18.6501 F       1  UNL1       -0.2044
      8 C           3.9378    0.0061   21.8376 C.3     1  UNL1        0.0336
      9 C           3.6882   -1.1152   20.8729 C.3     1  UNL1        0.1262
     10 C           3.1711   -1.8550   19.6750 C.2     1  UNL1        0.0068
     11 C           3.5110   -3.3035   19.4837 C.2     1  UNL1        0.0357
     12 S           4.3680   -4.0120   20.4905 S.3     1  UNL1       -0.0536
     13 C           4.8852   -3.2721   21.6884 C.2     1  UNL1        0.1526
     14 N           5.7422   -3.9806   22.6952 N.pl3   1  UNL1       -0.3378
     15 N           4.5453   -1.8237   21.8797 N.2     1  UNL1       -0.2464
     16 H           5.9653   -4.9312   22.5697 H       1  UNL1        0.1442
     17 H           6.0816   -3.4949   23.4815 H       1  UNL1        0.1442
     18 N          -0.6522    1.7037   20.4088 N.am    1  UNL1       -0.2791
     19 C          -0.9163    2.8931   21.2838 C.2     1  UNL1        0.2672
     20 O           0.2195    3.7709   21.7191 O.2     1  UNL1       -0.2682
     21 H          -1.3976    1.1276   20.1230 H       1  UNL1        0.1552
     22 C          -2.3161    3.2046   21.7234 C.ar    1  UNL1        0.1348
     23 C          -2.5613    3.8058   23.0756 C.ar    1  UNL1        0.0246
     24 C          -3.9612    4.1174   23.5153 C.ar    1  UNL1        0.0147
     25 C          -5.1159    3.8278   22.6027 C.ar    1  UNL1        0.0768
     26 CL         -6.5157    4.1393   23.0424 Cl      1  UNL1       -0.0806
     27 C          -4.8707    3.2266   21.2505 C.ar    1  UNL1        0.1103
     28 N          -3.4709    2.9150   20.8109 N.ar    1  UNL1       -0.2384
@<TRIPOS>BOND
     1     9     8    1
     2     9     1    1
     3     1     2   ar
     4     2     3   ar
     5     3    18    1
     6    18    19   am
     7    19    20    2
     8    19    22    1
     9    22    23   ar
    10    23    24   ar
    11    24    25   ar
    12    25    26    1
    13    25    27   ar
    14    27    28   ar
    15     3     4   ar
    16     4     5   ar
    17     5     6   ar
    18     6     7    1
    19     9    10    1
    20    10    11    2
    21    11    12    1
    22    12    13    1
    23    13    14    1
    24    13    15    2
    25    15     9    1
    26     6     1   ar
    27    28    22   ar
    28    18    21    1
    29    14    16    1
    30    14    17    1
@<TRIPOS>MOLECULE
*****
 28 30 0 0 0
SMALL
GASTEIGER

@<TRIPOS>ATOM
      1 C          -2.6604    4.2356   20.3801 C.ar    1  UNL1        0.0303
      2 C          -1.6126    3.3238   19.8139 C.ar    1  UNL1        0.0147
      3 C          -0.2083    3.3782   20.3384 C.ar    1  UNL1        0.0505
      4 C           0.1481    4.3444   21.4290 C.ar    1  UNL1        0.0170
      5 C          -0.8997    5.2562   21.9952 C.ar    1  UNL1        0.0307
      6 C          -2.3040    5.2018   21.4707 C.ar    1  UNL1        0.1383
      7 F          -3.3519    6.1137   22.0369 F       1  UNL1       -0.2044
      8 C          -4.1704    3.2002   20.9855 C.3     1  UNL1        0.0336
      9 C          -4.0647    4.1813   19.8557 C.3     1  UNL1        0.1262
     10 C          -3.4714    5.1812   18.9081 C.2     1  UNL1        0.0068
     11 C          -4.3190    5.7861   17.8284 C.2     1  UNL1        0.0357
     12 S          -5.7600    5.3910   17.6964 S.3     1  UNL1       -0.0536
     13 C          -6.3534    4.3911   18.6440 C.2     1  UNL1        0.1526
     14 N          -7.7944    3.9960   18.5120 N.pl3   1  UNL1       -0.3378
     15 N          -5.5058    3.7862   19.7237 N.2     1  UNL1       -0.2464
     16 H          -8.3507    4.3929   17.8034 H       1  UNL1        0.1442
     17 H          -8.1838    3.3397   19.1340 H       1  UNL1        0.1442
     18 N           0.8396    2.4664   19.7722 N.am    1  UNL1       -0.2791
     19 C           0.8345    1.0082   20.1240 C.2     1  UNL1        0.2672
     20 O          -0.2186    0.4619   21.0420 O.2     1  UNL1       -0.2682
     21 H           1.5308    2.8250   19.1697 H       1  UNL1        0.1552
     22 C           1.8823    0.0964   19.5579 C.ar    1  UNL1        0.1348
     23 C           2.2981   -1.1298   20.3152 C.ar    1  UNL1        0.0246
     24 C           3.3460   -2.0416   19.7490 C.ar    1  UNL1        0.0147
     25 C           3.9780   -1.7273   18.4255 C.ar    1  UNL1        0.0768
     26 CL          5.0259   -2.6391   17.8594 Cl      1  UNL1       -0.0806
     27 C           3.5623   -0.5011   17.6682 C.ar    1  UNL1        0.1103
     28 N           2.5144    0.4108   18.2343 N.ar    1  UNL1       -0.2384
@<TRIPOS>BOND
     1     9     8    1
     2     9     1    1
     3     1     2   ar
     4     2     3   ar
     5     3    18    1
     6    18    19   am
     7    19    20    2
     8    19    22    1
     9    22    23   ar
    10    23    24   ar
    11    24    25   ar
    12    25    26    1
    13    25    27   ar
    14    27    28   ar
    15     3     4   ar
    16     4     5   ar
    17     5     6   ar
    18     6     7    1
    19     9    10    1
    20    10    11    2
    21    11    12    1
    22    12    13    1
    23    13    14    1
    24    13    15    2
    25    15     9    1
    26     6     1   ar
    27    28    22   ar
    28    18    21    1
    29    14    16    1
    30    14    17    1
