@<TRIPOS>MOLECULE
*****
 19 20 0 0 0
SMALL
GASTEIGER

@<TRIPOS>ATOM
      1 C          -8.8652  -20.6075   18.4339 C.3     1  UNL1        0.0521
      2 C          -9.1903  -19.5879   19.4850 C.ar    1  UNL1        0.0596
      3 C         -10.5807  -19.0349   19.5886 C.ar    1  UNL1        0.0106
      4 C         -10.9059  -18.0153   20.6397 C.ar    1  UNL1       -0.0175
      5 C         -12.2964  -17.4622   20.7434 C.3     1  UNL1        0.0312
      6 C          -9.8406  -17.5488   21.5871 C.ar    1  UNL1        0.0334
      7 C          -9.8639  -16.5619   22.7164 C.ar    1  UNL1        0.0537
      8 N         -11.0542  -15.7708   23.1716 N.pl3   1  UNL1       -0.3564
      9 C          -8.4878  -16.5050   23.3108 C.ar    1  UNL1        0.0968
     10 S          -7.6141  -17.4568   22.5487 S.2     1  UNL1       -0.0622
     11 C          -8.4502  -18.1019   21.4834 C.ar    1  UNL1        0.1113
     12 N          -8.1251  -19.1215   20.4323 N.ar    1  UNL1       -0.2431
     13 H         -11.9201  -15.8778   22.7154 H       1  UNL1        0.1424
     14 H         -10.9696  -15.1445   23.9265 H       1  UNL1        0.1424
     15 C          -8.0605  -15.6470   24.4646 C.2     1  UNL1        0.2500
     16 N          -7.6098  -14.2367   24.2240 N.am    1  UNL1       -0.3249
     17 O          -8.0839  -16.1993   25.8590 O.2     1  UNL1       -0.2698
     18 H          -7.5944  -13.8742   23.3087 H       1  UNL1        0.1453
     19 H          -7.3293  -13.6736   24.9812 H       1  UNL1        0.1453
@<TRIPOS>BOND
     1     1     2    1
     2     2     3   ar
     3     3     4   ar
     4     4     5    1
     5     4     6   ar
     6     6     7   ar
     7     7     8    1
     8     7     9   ar
     9     9    15    1
    10    15    16   am
    11    15    17    2
    12     9    10   ar
    13    10    11   ar
    14    11    12   ar
    15    12     2   ar
    16    11     6   ar
    17     8    13    1
    18     8    14    1
    19    16    18    1
    20    16    19    1
@<TRIPOS>MOLECULE
*****
 19 20 0 0 0
SMALL
GASTEIGER

@<TRIPOS>ATOM
      1 C         -13.5955  -18.0316   23.4288 C.3     1  UNL1        0.0521
      2 C         -12.1647  -17.9938   22.9802 C.ar    1  UNL1        0.0596
      3 C         -11.7730  -18.6096   21.6697 C.ar    1  UNL1        0.0106
      4 C         -10.3421  -18.5718   21.2211 C.ar    1  UNL1       -0.0175
      5 C          -9.9505  -19.1876   19.9106 C.3     1  UNL1        0.0312
      6 C          -9.3029  -17.9183   22.0831 C.ar    1  UNL1        0.0334
      7 C          -7.8256  -17.7290   21.9051 C.ar    1  UNL1        0.0537
      8 N          -7.0125  -18.1913   20.7325 N.pl3   1  UNL1       -0.3564
      9 C          -7.3042  -16.9963   23.1057 C.ar    1  UNL1        0.0968
     10 S          -8.4593  -16.7327   24.0256 S.2     1  UNL1       -0.0622
     11 C          -9.6946  -17.3026   23.3936 C.ar    1  UNL1        0.1113
     12 N         -11.1254  -17.3404   23.8421 N.ar    1  UNL1       -0.2431
     13 H          -7.4477  -18.6669   19.9885 H       1  UNL1        0.1424
     14 H          -6.0435  -18.0191   20.7069 H       1  UNL1        0.1424
     15 C          -5.8780  -16.5972   23.3443 C.2     1  UNL1        0.2500
     16 N          -5.5642  -15.4345   24.2385 N.am    1  UNL1       -0.3249
     17 O          -4.7658  -17.3608   22.6888 O.2     1  UNL1       -0.2698
     18 H          -6.2942  -14.9333   24.6688 H       1  UNL1        0.1453
     19 H          -4.6282  -15.1726   24.3952 H       1  UNL1        0.1453
@<TRIPOS>BOND
     1     1     2    1
     2     2     3   ar
     3     3     4   ar
     4     4     5    1
     5     4     6   ar
     6     6     7   ar
     7     7     8    1
     8     7     9   ar
     9     9    15    1
    10    15    16   am
    11    15    17    2
    12     9    10   ar
    13    10    11   ar
    14    11    12   ar
    15    12     2   ar
    16    11     6   ar
    17     8    13    1
    18     8    14    1
    19    16    18    1
    20    16    19    1
@<TRIPOS>MOLECULE
*****
 19 20 0 0 0
SMALL
GASTEIGER

@<TRIPOS>ATOM
      1 C          -3.2077  -18.9372   22.0711 C.3     1  UNL1        0.0521
      2 C          -4.4342  -18.2102   22.5371 C.ar    1  UNL1        0.0596
      3 C          -4.3070  -17.0596   23.4910 C.ar    1  UNL1        0.0106
      4 C          -5.5335  -16.3326   23.9570 C.ar    1  UNL1       -0.0175
      5 C          -5.4062  -15.1820   24.9110 C.3     1  UNL1        0.0312
      6 C          -6.8872  -16.7561   23.4692 C.ar    1  UNL1        0.0334
      7 C          -8.2646  -16.2340   23.7519 C.ar    1  UNL1        0.0537
      8 N          -8.6039  -15.0855   24.6552 N.pl3   1  UNL1       -0.3564
      9 C          -9.2432  -17.0618   22.9728 C.ar    1  UNL1        0.0968
     10 S          -8.4705  -18.0957   22.2085 S.2     1  UNL1       -0.0622
     11 C          -7.0144  -17.9067   22.5153 C.ar    1  UNL1        0.1113
     12 N          -5.7879  -18.6337   22.0493 N.ar    1  UNL1       -0.2431
     13 H          -7.8876  -14.6013   25.1260 H       1  UNL1        0.1424
     14 H          -9.5429  -14.8160   24.7773 H       1  UNL1        0.1424
     15 C         -10.7329  -16.8866   22.9601 C.2     1  UNL1        0.2500
     16 N         -11.3395  -15.6689   22.3282 N.am    1  UNL1       -0.3249
     17 O         -11.6160  -17.9290   23.5794 O.2     1  UNL1       -0.2698
     18 H         -10.7599  -14.9847   21.9218 H       1  UNL1        0.1453
     19 H         -12.3172  -15.5539   22.3199 H       1  UNL1        0.1453
@<TRIPOS>BOND
     1     1     2    1
     2     2     3   ar
     3     3     4   ar
     4     4     5    1
     5     4     6   ar
     6     6     7   ar
     7     7     8    1
     8     7     9   ar
     9     9    15    1
    10    15    16   am
    11    15    17    2
    12     9    10   ar
    13    10    11   ar
    14    11    12   ar
    15    12     2   ar
    16    11     6   ar
    17     8    13    1
    18     8    14    1
    19    16    18    1
    20    16    19    1
@<TRIPOS>MOLECULE
*****
 19 20 0 0 0
SMALL
GASTEIGER

@<TRIPOS>ATOM
      1 C         -11.3759  -17.1173   19.6803 C.3     1  UNL1        0.0521
      2 C         -10.8133  -17.1155   21.0708 C.ar    1  UNL1        0.0596
      3 C         -11.4705  -17.9280   22.1468 C.ar    1  UNL1        0.0106
      4 C         -10.9078  -17.9261   23.5373 C.ar    1  UNL1       -0.0175
      5 C         -11.5651  -18.7386   24.6134 C.3     1  UNL1        0.0312
      6 C          -9.6880  -17.1118   23.8517 C.ar    1  UNL1        0.0334
      7 C          -8.9123  -16.9148   25.1204 C.ar    1  UNL1        0.0537
      8 N          -9.2193  -17.5419   26.4479 N.pl3   1  UNL1       -0.3564
      9 C          -7.7757  -15.9805   24.8284 C.ar    1  UNL1        0.0968
     10 S          -7.8489  -15.6001   23.3792 S.2     1  UNL1       -0.0622
     11 C          -9.0308  -16.2994   22.7757 C.ar    1  UNL1        0.1113
     12 N          -9.5934  -16.3012   21.3852 N.ar    1  UNL1       -0.2431
     13 H          -9.9919  -18.1451   26.5405 H       1  UNL1        0.1424
     14 H          -8.6483  -17.3502   27.2267 H       1  UNL1        0.1424
     15 C          -6.7465  -15.5093   25.8127 C.2     1  UNL1        0.2500
     16 N          -5.3477  -15.2202   25.3548 N.am    1  UNL1       -0.3249
     17 O          -7.1162  -15.3271   27.2550 O.2     1  UNL1       -0.2698
     18 H          -5.1051  -15.3398   24.4082 H       1  UNL1        0.1453
     19 H          -4.6722  -14.9110   26.0008 H       1  UNL1        0.1453
@<TRIPOS>BOND
     1     1     2    1
     2     2     3   ar
     3     3     4   ar
     4     4     5    1
     5     4     6   ar
     6     6     7   ar
     7     7     8    1
     8     7     9   ar
     9     9    15    1
    10    15    16   am
    11    15    17    2
    12     9    10   ar
    13    10    11   ar
    14    11    12   ar
    15    12     2   ar
    16    11     6   ar
    17     8    13    1
    18     8    14    1
    19    16    18    1
    20    16    19    1
@<TRIPOS>MOLECULE
*****
 19 20 0 0 0
SMALL
GASTEIGER

@<TRIPOS>ATOM
      1 C          -3.1259  -17.9141   23.3430 C.3     1  UNL1        0.0521
      2 C          -4.4922  -18.1453   22.7687 C.ar    1  UNL1        0.0596
      3 C          -4.7325  -19.3050   21.8482 C.ar    1  UNL1        0.0106
      4 C          -6.0988  -19.5362   21.2740 C.ar    1  UNL1       -0.0175
      5 C          -6.3391  -20.6959   20.3534 C.3     1  UNL1        0.0312
      6 C          -7.2249  -18.6077   21.6203 C.ar    1  UNL1        0.0334
      7 C          -8.6676  -18.5832   21.2107 C.ar    1  UNL1        0.0537
      8 N          -9.3408  -19.5617   20.2946 N.pl3   1  UNL1       -0.3564
      9 C          -9.3191  -17.4083   21.8781 C.ar    1  UNL1        0.0968
     10 S          -8.2789  -16.7068   22.7002 S.2     1  UNL1       -0.0622
     11 C          -6.9846  -17.4481   22.5408 C.ar    1  UNL1        0.1113
     12 N          -5.6183  -17.2169   23.1150 N.ar    1  UNL1       -0.2431
     13 H          -8.8260  -20.3042   19.9034 H       1  UNL1        0.1424
     14 H         -10.2974  -19.4615   20.0845 H       1  UNL1        0.1424
     15 C         -10.7581  -17.0058   21.7465 C.2     1  UNL1        0.2500
     16 N         -11.2729  -15.8086   22.4893 N.am    1  UNL1       -0.3249
     17 O         -11.6822  -17.8004   20.8722 O.2     1  UNL1       -0.2698
     18 H         -10.6663  -15.2870   23.0631 H       1  UNL1        0.1453
     19 H         -12.2173  -15.5443   22.4029 H       1  UNL1        0.1453
@<TRIPOS>BOND
     1     1     2    1
     2     2     3   ar
     3     3     4   ar
     4     4     5    1
     5     4     6   ar
     6     6     7   ar
     7     7     8    1
     8     7     9   ar
     9     9    15    1
    10    15    16   am
    11    15    17    2
    12     9    10   ar
    13    10    11   ar
    14    11    12   ar
    15    12     2   ar
    16    11     6   ar
    17     8    13    1
    18     8    14    1
    19    16    18    1
    20    16    19    1
@<TRIPOS>MOLECULE
*****
 19 20 0 0 0
SMALL
GASTEIGER

@<TRIPOS>ATOM
      1 C         -18.1065   -3.3657   19.9260 C.3     1  UNL1        0.0521
      2 C         -16.8329   -4.1343   19.7328 C.ar    1  UNL1        0.0596
      3 C         -16.8748   -5.6235   19.5586 C.ar    1  UNL1        0.0106
      4 C         -15.6012   -6.3921   19.3654 C.ar    1  UNL1       -0.0175
      5 C         -15.6431   -7.8814   19.1912 C.3     1  UNL1        0.0312
      6 C         -14.2858   -5.6715   19.3463 C.ar    1  UNL1        0.0334
      7 C         -12.8772   -6.1580   19.1760 C.ar    1  UNL1        0.0537
      8 N         -12.4551   -7.5829   18.9724 N.pl3   1  UNL1       -0.3564
      9 C         -11.9648   -4.9694   19.2448 C.ar    1  UNL1        0.0968
     10 S         -12.8095   -3.7483   19.4577 S.2     1  UNL1       -0.0622
     11 C         -14.2440   -4.1822   19.5205 C.ar    1  UNL1        0.1113
     12 N         -15.5176   -3.4136   19.7137 N.ar    1  UNL1       -0.2431
     13 H         -13.1320   -8.2971   18.9413 H       1  UNL1        0.1424
     14 H         -11.5012   -7.8039   18.8700 H       1  UNL1        0.1424
     15 C         -10.4700   -4.9971   19.1222 C.2     1  UNL1        0.2500
     16 N          -9.6968   -3.7123   19.0831 N.am    1  UNL1       -0.3249
     17 O          -9.7485   -6.3095   19.0388 O.2     1  UNL1       -0.2698
     18 H         -10.1703   -2.8509   19.1378 H       1  UNL1        0.1453
     19 H          -8.7157   -3.7305   19.0026 H       1  UNL1        0.1453
@<TRIPOS>BOND
     1     1     2    1
     2     2     3   ar
     3     3     4   ar
     4     4     5    1
     5     4     6   ar
     6     6     7   ar
     7     7     8    1
     8     7     9   ar
     9     9    15    1
    10    15    16   am
    11    15    17    2
    12     9    10   ar
    13    10    11   ar
    14    11    12   ar
    15    12     2   ar
    16    11     6   ar
    17     8    13    1
    18     8    14    1
    19    16    18    1
    20    16    19    1
@<TRIPOS>MOLECULE
*****
 19 20 0 0 0
SMALL
GASTEIGER

@<TRIPOS>ATOM
      1 C          -8.1177  -15.5867   27.0008 C.3     1  UNL1        0.0521
      2 C          -8.7655  -16.3510   25.8845 C.ar    1  UNL1        0.0596
      3 C          -9.1182  -17.7969   26.0714 C.ar    1  UNL1        0.0106
      4 C          -9.7659  -18.5613   24.9551 C.ar    1  UNL1       -0.0175
      5 C         -10.1187  -20.0072   25.1421 C.3     1  UNL1        0.0312
      6 C         -10.0609  -17.8798   23.6518 C.ar    1  UNL1        0.0334
      7 C         -10.6876  -18.3720   22.3810 C.ar    1  UNL1        0.0537
      8 N         -11.1912  -19.7619   22.1272 N.pl3   1  UNL1       -0.3564
      9 C         -10.7221  -17.2304   21.4087 C.ar    1  UNL1        0.0968
     10 S         -10.1168  -16.0325   22.0785 S.2     1  UNL1       -0.0622
     11 C          -9.7082  -16.4339   23.4649 C.ar    1  UNL1        0.1113
     12 N          -9.0605  -15.6695   24.5812 N.ar    1  UNL1       -0.2431
     13 H         -11.1243  -20.4462   22.8319 H       1  UNL1        0.1424
     14 H         -11.5888  -19.9900   21.2558 H       1  UNL1        0.1424
     15 C         -11.2664  -17.2782   20.0117 C.2     1  UNL1        0.2500
     16 N         -11.8868  -16.0541   19.4061 N.am    1  UNL1       -0.3249
     17 O         -11.1904  -18.5502   19.2203 O.2     1  UNL1       -0.2698
     18 H         -11.9367  -15.2193   19.9256 H       1  UNL1        0.1453
     19 H         -12.2440  -16.0855   18.4893 H       1  UNL1        0.1453
@<TRIPOS>BOND
     1     1     2    1
     2     2     3   ar
     3     3     4   ar
     4     4     5    1
     5     4     6   ar
     6     6     7   ar
     7     7     8    1
     8     7     9   ar
     9     9    15    1
    10    15    16   am
    11    15    17    2
    12     9    10   ar
    13    10    11   ar
    14    11    12   ar
    15    12     2   ar
    16    11     6   ar
    17     8    13    1
    18     8    14    1
    19    16    18    1
    20    16    19    1
@<TRIPOS>MOLECULE
*****
 19 20 0 0 0
SMALL
GASTEIGER

@<TRIPOS>ATOM
      1 C          -8.7244  -15.6016   24.7329 C.3     1  UNL1        0.0521
      2 C          -7.8379  -16.5122   23.9360 C.ar    1  UNL1        0.0596
      3 C          -8.4425  -17.5570   23.0456 C.ar    1  UNL1        0.0106
      4 C          -7.5560  -18.4675   22.2487 C.ar    1  UNL1       -0.0175
      5 C          -8.1606  -19.5124   21.3583 C.3     1  UNL1        0.0312
      6 C          -6.0650  -18.3333   22.3422 C.ar    1  UNL1        0.0334
      7 C          -4.9463  -19.0824   21.6809 C.ar    1  UNL1        0.0537
      8 N          -5.0971  -20.2146   20.7085 N.pl3   1  UNL1       -0.3564
      9 C          -3.6503  -18.5006   22.1625 C.ar    1  UNL1        0.0968
     10 S          -3.9681  -17.3919   23.1216 S.2     1  UNL1       -0.0622
     11 C          -5.4604  -17.2885   23.2326 C.ar    1  UNL1        0.1113
     12 N          -6.3469  -16.3780   24.0295 N.ar    1  UNL1       -0.2431
     13 H          -5.9949  -20.5273   20.4526 H       1  UNL1        0.1424
     14 H          -4.2984  -20.6449   20.3263 H       1  UNL1        0.1424
     15 C          -2.2777  -18.9489   21.7564 C.2     1  UNL1        0.2500
     16 N          -1.1624  -17.9509   21.6543 N.am    1  UNL1       -0.3249
     17 O          -2.0202  -20.3950   21.4524 O.2     1  UNL1       -0.2698
     18 H          -1.3314  -17.0018   21.8538 H       1  UNL1        0.1453
     19 H          -0.2615  -18.2451   21.3877 H       1  UNL1        0.1453
@<TRIPOS>BOND
     1     1     2    1
     2     2     3   ar
     3     3     4   ar
     4     4     5    1
     5     4     6   ar
     6     6     7   ar
     7     7     8    1
     8     7     9   ar
     9     9    15    1
    10    15    16   am
    11    15    17    2
    12     9    10   ar
    13    10    11   ar
    14    11    12   ar
    15    12     2   ar
    16    11     6   ar
    17     8    13    1
    18     8    14    1
    19    16    18    1
    20    16    19    1
@<TRIPOS>MOLECULE
*****
 19 20 0 0 0
SMALL
GASTEIGER

@<TRIPOS>ATOM
      1 C          -5.3130  -20.8269   20.1904 C.3     1  UNL1        0.0521
      2 C          -6.3803  -19.8878   20.6690 C.ar    1  UNL1        0.0596
      3 C          -6.0723  -18.8870   21.7430 C.ar    1  UNL1        0.0106
      4 C          -7.1396  -17.9480   22.2216 C.ar    1  UNL1       -0.0175
      5 C          -6.8316  -16.9472   23.2956 C.3     1  UNL1        0.0312
      6 C          -8.5150  -18.0098   21.6261 C.ar    1  UNL1        0.0334
      7 C          -9.7610  -17.2188   21.8938 C.ar    1  UNL1        0.0537
      8 N          -9.9039  -16.1105   22.8944 N.pl3   1  UNL1       -0.3564
      9 C         -10.8392  -17.7308   20.9852 C.ar    1  UNL1        0.0968
     10 S         -10.2595  -18.8382   20.1560 S.2     1  UNL1       -0.0622
     11 C          -8.8230  -19.0106   20.5521 C.ar    1  UNL1        0.1113
     12 N          -7.7556  -19.9496   20.0736 N.ar    1  UNL1       -0.2431
     13 H          -9.1343  -15.8448   23.4479 H       1  UNL1        0.1424
     14 H         -10.7672  -15.6488   22.9977 H       1  UNL1        0.1424
     15 C         -12.2495  -17.2243   20.9178 C.2     1  UNL1        0.2500
     16 N         -12.6060  -16.1227   19.9641 N.am    1  UNL1       -0.3249
     17 O         -13.3034  -17.8194   21.8039 O.2     1  UNL1       -0.2698
     18 H         -11.9143  -15.7321   19.3825 H       1  UNL1        0.1453
     19 H         -13.5316  -15.7902   19.9198 H       1  UNL1        0.1453
@<TRIPOS>BOND
     1     1     2    1
     2     2     3   ar
     3     3     4   ar
     4     4     5    1
     5     4     6   ar
     6     6     7   ar
     7     7     8    1
     8     7     9   ar
     9     9    15    1
    10    15    16   am
    11    15    17    2
    12     9    10   ar
    13    10    11   ar
    14    11    12   ar
    15    12     2   ar
    16    11     6   ar
    17     8    13    1
    18     8    14    1
    19    16    18    1
    20    16    19    1
