@<TRIPOS>MOLECULE
*****
 37 42 0 0 0
SMALL
GASTEIGER

@<TRIPOS>ATOM
      1 C           0.1052    3.6856   22.1080 C.3     1  UNL1        0.0468
      2 C          -0.6747    3.4079   23.3589 C.ar    1  UNL1        0.0146
      3 C          -2.0829    3.9073   23.4911 C.ar    1  UNL1       -0.0011
      4 C          -2.8627    3.6296   24.7420 C.ar    1  UNL1        0.0014
      5 C          -2.2344    2.8525   25.8606 C.ar    1  UNL1        0.0206
      6 C          -0.8262    2.3531   25.7283 C.ar    1  UNL1        0.0989
      7 C          -0.0464    2.6308   24.4774 C.ar    1  UNL1        0.1511
      8 O           1.3619    2.1314   24.3451 O.3     1  UNL1       -0.4678
      9 C           1.9903    1.3542   25.4637 C.3     1  UNL1        0.2510
     10 C           1.2103    1.0765   26.7146 C.ar    1  UNL1        0.1087
     11 C           1.5624    0.3430   27.9747 C.ar    1  UNL1        0.1518
     12 N           0.3717    0.3890   28.8859 N.ar    1  UNL1       -0.2192
     13 C          -0.7162    1.1510   28.1888 C.ar    1  UNL1        0.1828
     14 N          -0.1978    1.5759   26.8469 N.ar    1  UNL1       -0.2851
     15 C           2.8746   -0.3202   28.2716 C.2     1  UNL1        0.2682
     16 O           3.2243   -1.6206   27.6110 O.2     1  UNL1       -0.2682
     17 N           3.8373    0.3172   29.2293 N.am    1  UNL1       -0.2713
     18 C           5.1496   -0.3460   29.5262 C.3     1  UNL1        0.1153
     19 C           3.4877    1.6177   29.8900 C.3     1  UNL1        0.1153
     20 C          -0.0494    2.7913   20.9137 C.3     1  UNL1        0.0770
     21 N           2.7640   -0.6695   20.3151 N.pl3   1  UNL1       -0.3046
     22 C           3.3089    0.7103   20.5368 C.3     1  UNL1        0.1081
     23 C           2.3711    1.8640   20.7363 C.3     1  UNL1        0.0938
     24 N           0.8884    1.6377   20.7142 N.3     1  UNL1       -0.2695
     25 C           0.3435    0.2578   20.4925 C.3     1  UNL1        0.0938
     26 C           1.2813   -0.8957   20.2930 C.3     1  UNL1        0.1081
     27 C           6.5018   -4.2628   24.8281 C.3     1  UNL1        0.0521
     28 C           5.8018   -3.6528   23.6500 C.ar    1  UNL1        0.0593
     29 C           4.8640   -2.4993   23.8495 C.ar    1  UNL1        0.0148
     30 C           4.1640   -1.8893   22.6714 C.ar    1  UNL1        0.0039
     31 C           4.4018   -2.4330   21.2937 C.ar    1  UNL1        0.0310
     32 C           3.7017   -1.8230   20.1156 C.ar    1  UNL1        0.0493
     33 C           3.9396   -2.3667   18.7379 C.ar    1  UNL1        0.0146
     34 C           4.8773   -3.5202   18.5384 C.ar    1  UNL1        0.0028
     35 C           5.5773   -4.1302   19.7165 C.ar    1  UNL1        0.0192
     36 C           5.3396   -3.5866   21.0942 C.ar    1  UNL1        0.0821
     37 N           6.0396   -4.1965   22.2723 N.ar    1  UNL1       -0.2496
@<TRIPOS>BOND
     1    27    28    1
     2    28    29   ar
     3    29    30   ar
     4    30    31   ar
     5    31    32   ar
     6    32    21    1
     7    21    22    1
     8    22    23    1
     9    23    24    1
    10    24    20    1
    11    20     1    1
    12     1     2    1
    13     2     3   ar
    14     3     4   ar
    15     4     5   ar
    16     5     6   ar
    17     6     7   ar
    18     7     8    1
    19     8     9    1
    20     9    10    1
    21    10    11   ar
    22    11    15    1
    23    15    16    2
    24    15    17   am
    25    17    18    1
    26    17    19    1
    27    11    12   ar
    28    12    13   ar
    29    13    14   ar
    30    24    25    1
    31    25    26    1
    32    32    33   ar
    33    33    34   ar
    34    34    35   ar
    35    35    36   ar
    36    36    37   ar
    37    37    28   ar
    38    36    31   ar
    39    26    21    1
    40     7     2   ar
    41    14    10   ar
    42    14     6    1
@<TRIPOS>MOLECULE
*****
 37 42 0 0 0
SMALL
GASTEIGER

@<TRIPOS>ATOM
      1 C          -0.5416    3.9986   18.8538 C.3     1  UNL1        0.0468
      2 C          -2.0327    4.0288   18.6931 C.ar    1  UNL1        0.0146
      3 C          -2.6410    3.9617   17.3237 C.ar    1  UNL1       -0.0011
      4 C          -4.1320    3.9919   17.1631 C.ar    1  UNL1        0.0014
      5 C          -5.0148    4.0893   18.3719 C.ar    1  UNL1        0.0206
      6 C          -4.4065    4.1564   19.7414 C.ar    1  UNL1        0.0989
      7 C          -2.9154    4.1262   19.9020 C.ar    1  UNL1        0.1511
      8 O          -2.3071    4.1934   21.2715 O.3     1  UNL1       -0.4678
      9 C          -3.1898    4.2907   22.4803 C.3     1  UNL1        0.2510
     10 C          -4.6809    4.3210   22.3196 C.ar    1  UNL1        0.1087
     11 C          -5.7963    4.4118   23.3184 C.ar    1  UNL1        0.1518
     12 N          -7.0941    4.4007   22.5662 N.ar    1  UNL1       -0.2192
     13 C          -6.7806    4.3031   21.1026 C.ar    1  UNL1        0.1828
     14 N          -5.2892    4.2538   20.9502 N.ar    1  UNL1       -0.2851
     15 C          -5.6413    4.4984   24.8078 C.2     1  UNL1        0.2682
     16 O          -5.0895    3.3326   25.5736 O.2     1  UNL1       -0.2682
     17 N          -6.0381    5.7509   25.5316 N.am    1  UNL1       -0.2713
     18 C          -5.8831    5.8376   27.0210 C.3     1  UNL1        0.1153
     19 C          -6.5899    6.9168   24.7659 C.3     1  UNL1        0.1153
     20 C           0.2852    3.0751   18.0091 C.3     1  UNL1        0.0770
     21 N           2.4673   -0.3686   19.9142 N.pl3   1  UNL1       -0.3046
     22 C           0.9877   -0.2181   20.1093 C.3     1  UNL1        0.1081
     23 C           0.2603    0.9298   19.4743 C.3     1  UNL1        0.0938
     24 N           1.0125    1.9272   18.6441 N.3     1  UNL1       -0.2695
     25 C           2.4922    1.7767   18.4489 C.3     1  UNL1        0.0938
     26 C           3.2195    0.6289   19.0840 C.3     1  UNL1        0.1081
     27 C           4.6511   -1.2962   26.3655 C.3     1  UNL1        0.0521
     28 C           4.2870   -1.3513   24.9115 C.ar    1  UNL1        0.0593
     29 C           3.5596   -0.2034   24.2764 C.ar    1  UNL1        0.0148
     30 C           3.1955   -0.2584   22.8223 C.ar    1  UNL1        0.0039
     31 C           3.5587   -1.4614   22.0033 C.ar    1  UNL1        0.0310
     32 C           3.1946   -1.5165   20.5492 C.ar    1  UNL1        0.0493
     33 C           3.5579   -2.7195   19.7301 C.ar    1  UNL1        0.0146
     34 C           4.2852   -3.8674   20.3651 C.ar    1  UNL1        0.0028
     35 C           4.6493   -3.8123   21.8192 C.ar    1  UNL1        0.0192
     36 C           4.2861   -2.6094   22.6383 C.ar    1  UNL1        0.0821
     37 N           4.6502   -2.5543   24.0924 N.ar    1  UNL1       -0.2496
@<TRIPOS>BOND
     1    27    28    1
     2    28    29   ar
     3    29    30   ar
     4    30    31   ar
     5    31    32   ar
     6    32    21    1
     7    21    22    1
     8    22    23    1
     9    23    24    1
    10    24    20    1
    11    20     1    1
    12     1     2    1
    13     2     3   ar
    14     3     4   ar
    15     4     5   ar
    16     5     6   ar
    17     6     7   ar
    18     7     8    1
    19     8     9    1
    20     9    10    1
    21    10    11   ar
    22    11    15    1
    23    15    16    2
    24    15    17   am
    25    17    18    1
    26    17    19    1
    27    11    12   ar
    28    12    13   ar
    29    13    14   ar
    30    24    25    1
    31    25    26    1
    32    32    33   ar
    33    33    34   ar
    34    34    35   ar
    35    35    36   ar
    36    36    37   ar
    37    37    28   ar
    38    36    31   ar
    39    26    21    1
    40     7     2   ar
    41    14    10   ar
    42    14     6    1
@<TRIPOS>MOLECULE
*****
 37 42 0 0 0
SMALL
GASTEIGER

@<TRIPOS>ATOM
      1 C           5.5704   -2.6920   32.6675 C.3     1  UNL1        0.0468
      2 C           4.9670   -1.4223   33.1910 C.ar    1  UNL1        0.0146
      3 C           5.4227   -0.8617   34.5055 C.ar    1  UNL1       -0.0011
      4 C           4.8194    0.4080   35.0289 C.ar    1  UNL1        0.0014
      5 C           3.7604    1.1169   34.2378 C.ar    1  UNL1        0.0206
      6 C           3.3047    0.5563   32.9233 C.ar    1  UNL1        0.0989
      7 C           3.9080   -0.7133   32.3999 C.ar    1  UNL1        0.1511
      8 O           3.4523   -1.2741   31.0853 O.3     1  UNL1       -0.4678
      9 C           2.3933   -0.5651   30.2942 C.3     1  UNL1        0.2510
     10 C           1.7900    0.7046   30.8177 C.ar    1  UNL1        0.1087
     11 C           0.7364    1.6177   30.2644 C.ar    1  UNL1        0.1518
     12 N           0.5409    2.7428   31.2371 N.ar    1  UNL1       -0.2192
     13 C           1.4737    2.5250   32.3914 C.ar    1  UNL1        0.1828
     14 N           2.2457    1.2653   32.1322 N.ar    1  UNL1       -0.2851
     15 C           0.0064    1.4375   28.9665 C.2     1  UNL1        0.2682
     16 O          -1.2417    0.6071   28.9170 O.2     1  UNL1       -0.2682
     17 N           0.5247    2.0877   27.7180 N.am    1  UNL1       -0.2713
     18 C          -0.2052    1.9074   26.4201 C.3     1  UNL1        0.1153
     19 C           1.7729    2.9181   27.7674 C.3     1  UNL1        0.1153
     20 C           6.9512   -2.6804   32.0818 C.3     1  UNL1        0.0770
     21 N           7.8266   -5.0170   28.3369 N.pl3   1  UNL1       -0.3046
     22 C           6.9011   -5.5812   29.3738 C.3     1  UNL1        0.1081
     23 C           6.6093   -4.8023   30.6221 C.3     1  UNL1        0.0938
     24 N           7.2430   -3.4593   30.8335 N.3     1  UNL1       -0.2695
     25 C           8.1685   -2.8951   29.7965 C.3     1  UNL1        0.0938
     26 C           8.4603   -3.6740   28.5483 C.3     1  UNL1        0.1081
     27 C           6.2458   -3.7487   21.7686 C.3     1  UNL1        0.0521
     28 C           6.7139   -4.2605   23.0986 C.ar    1  UNL1        0.0593
     29 C           6.4221   -3.4817   24.3469 C.ar    1  UNL1        0.0148
     30 C           6.8903   -3.9935   25.6769 C.ar    1  UNL1        0.0039
     31 C           7.6502   -5.2841   25.7586 C.ar    1  UNL1        0.0310
     32 C           8.1184   -5.7959   27.0886 C.ar    1  UNL1        0.0493
     33 C           8.8783   -7.0866   27.1703 C.ar    1  UNL1        0.0146
     34 C           9.1701   -7.8654   25.9221 C.ar    1  UNL1        0.0028
     35 C           8.7019   -7.3537   24.5921 C.ar    1  UNL1        0.0192
     36 C           7.9420   -6.0630   24.5103 C.ar    1  UNL1        0.0821
     37 N           7.4739   -5.5512   23.1803 N.ar    1  UNL1       -0.2496
@<TRIPOS>BOND
     1    27    28    1
     2    28    29   ar
     3    29    30   ar
     4    30    31   ar
     5    31    32   ar
     6    32    21    1
     7    21    22    1
     8    22    23    1
     9    23    24    1
    10    24    20    1
    11    20     1    1
    12     1     2    1
    13     2     3   ar
    14     3     4   ar
    15     4     5   ar
    16     5     6   ar
    17     6     7   ar
    18     7     8    1
    19     8     9    1
    20     9    10    1
    21    10    11   ar
    22    11    15    1
    23    15    16    2
    24    15    17   am
    25    17    18    1
    26    17    19    1
    27    11    12   ar
    28    12    13   ar
    29    13    14   ar
    30    24    25    1
    31    25    26    1
    32    32    33   ar
    33    33    34   ar
    34    34    35   ar
    35    35    36   ar
    36    36    37   ar
    37    37    28   ar
    38    36    31   ar
    39    26    21    1
    40     7     2   ar
    41    14    10   ar
    42    14     6    1
@<TRIPOS>MOLECULE
*****
 37 42 0 0 0
SMALL
GASTEIGER

@<TRIPOS>ATOM
      1 C          -0.5498    3.9060   22.9434 C.3     1  UNL1        0.0468
      2 C          -1.1657    3.5484   24.2637 C.ar    1  UNL1        0.0146
      3 C          -2.5382    4.0446   24.6100 C.ar    1  UNL1       -0.0011
      4 C          -3.1540    3.6870   25.9301 C.ar    1  UNL1        0.0014
      5 C          -2.3972    2.8332   26.9040 C.ar    1  UNL1        0.0206
      6 C          -1.0247    2.3370   26.5577 C.ar    1  UNL1        0.0989
      7 C          -0.4089    2.6946   25.2375 C.ar    1  UNL1        0.1511
      8 O           0.9636    2.1984   24.8911 O.3     1  UNL1       -0.4678
      9 C           1.7204    1.3446   25.8650 C.3     1  UNL1        0.2510
     10 C           1.1045    0.9870   27.1853 C.ar    1  UNL1        0.1087
     11 C           1.6061    0.1685   28.3378 C.ar    1  UNL1        0.1518
     12 N           0.5435    0.1589   29.3965 N.ar    1  UNL1       -0.2192
     13 C          -0.6147    0.9714   28.8982 C.ar    1  UNL1        0.1828
     14 N          -0.2680    1.4832   27.5316 N.ar    1  UNL1       -0.2851
     15 C           2.9365   -0.5195   28.4177 C.2     1  UNL1        0.2682
     16 O           3.2205   -1.7069   27.5463 O.2     1  UNL1       -0.2682
     17 N           3.9832   -0.0201   29.3692 N.am    1  UNL1       -0.2713
     18 C           5.3137   -0.7081   29.4491 C.3     1  UNL1        0.1153
     19 C           3.6993    1.1673   30.2407 C.3     1  UNL1        0.1153
     20 C          -0.7893    3.0372   21.7443 C.3     1  UNL1        0.0770
     21 N           2.6982    1.3189   19.4782 N.pl3   1  UNL1       -0.3046
     22 C           2.9150    1.9536   20.8199 C.3     1  UNL1        0.1081
     23 C           1.7525    2.5264   21.5753 C.3     1  UNL1        0.0938
     24 N           0.3732    2.4644   20.9890 N.3     1  UNL1       -0.2695
     25 C           0.1564    1.8297   19.6472 C.3     1  UNL1        0.0938
     26 C           1.3189    1.2569   18.8919 C.3     1  UNL1        0.1081
     27 C           4.8127   -5.1779   18.7224 C.3     1  UNL1        0.0521
     28 C           4.5747   -3.6969   18.7226 C.ar    1  UNL1        0.0593
     29 C           3.4122   -3.1241   19.4779 C.ar    1  UNL1        0.0148
     30 C           3.1742   -1.6431   19.4780 C.ar    1  UNL1        0.0039
     31 C           4.0987   -0.7349   18.7228 C.ar    1  UNL1        0.0310
     32 C           3.8606    0.7461   18.7229 C.ar    1  UNL1        0.0493
     33 C           4.7852    1.6544   17.9676 C.ar    1  UNL1        0.0146
     34 C           5.9476    1.0816   17.2123 C.ar    1  UNL1        0.0028
     35 C           6.1857   -0.3994   17.2121 C.ar    1  UNL1        0.0192
     36 C           5.2612   -1.3076   17.9674 C.ar    1  UNL1        0.0821
     37 N           5.4992   -2.7886   17.9673 N.ar    1  UNL1       -0.2496
@<TRIPOS>BOND
     1    27    28    1
     2    28    29   ar
     3    29    30   ar
     4    30    31   ar
     5    31    32   ar
     6    32    21    1
     7    21    22    1
     8    22    23    1
     9    23    24    1
    10    24    20    1
    11    20     1    1
    12     1     2    1
    13     2     3   ar
    14     3     4   ar
    15     4     5   ar
    16     5     6   ar
    17     6     7   ar
    18     7     8    1
    19     8     9    1
    20     9    10    1
    21    10    11   ar
    22    11    15    1
    23    15    16    2
    24    15    17   am
    25    17    18    1
    26    17    19    1
    27    11    12   ar
    28    12    13   ar
    29    13    14   ar
    30    24    25    1
    31    25    26    1
    32    32    33   ar
    33    33    34   ar
    34    34    35   ar
    35    35    36   ar
    36    36    37   ar
    37    37    28   ar
    38    36    31   ar
    39    26    21    1
    40     7     2   ar
    41    14    10   ar
    42    14     6    1
@<TRIPOS>MOLECULE
*****
 37 42 0 0 0
SMALL
GASTEIGER

@<TRIPOS>ATOM
      1 C          -0.5820    2.6878   24.2620 C.3     1  UNL1        0.0468
      2 C          -1.9323    3.1785   24.6934 C.ar    1  UNL1        0.0146
      3 C          -2.2242    3.3877   26.1497 C.ar    1  UNL1       -0.0011
      4 C          -3.5744    3.8783   26.5810 C.ar    1  UNL1        0.0014
      5 C          -4.6327    4.1599   25.5560 C.ar    1  UNL1        0.0206
      6 C          -4.3408    3.9507   24.0996 C.ar    1  UNL1        0.0989
      7 C          -2.9906    3.4600   23.6683 C.ar    1  UNL1        0.1511
      8 O          -2.6987    3.2508   22.2119 O.3     1  UNL1       -0.4678
      9 C          -3.7570    3.5323   21.1869 C.3     1  UNL1        0.2510
     10 C          -5.1073    4.0230   21.6182 C.ar    1  UNL1        0.1087
     11 C          -6.3395    4.3824   20.8422 C.ar    1  UNL1        0.1518
     12 N          -7.3931    4.8137   21.8189 N.ar    1  UNL1       -0.2192
     13 C          -6.8119    4.7209   23.1986 C.ar    1  UNL1        0.1828
     14 N          -5.3992    4.2322   23.0746 N.ar    1  UNL1       -0.2851
     15 C          -6.4916    4.3212   19.3512 C.2     1  UNL1        0.2682
     16 O          -6.9442    3.0507   18.6949 O.2     1  UNL1       -0.2682
     17 N          -6.1910    5.5308   18.5164 N.am    1  UNL1       -0.2713
     18 C          -6.3431    5.4696   17.0254 C.3     1  UNL1        0.1153
     19 C          -5.7384    6.8014   19.1726 C.3     1  UNL1        0.1153
     20 C           0.3307    3.5897   23.4851 C.3     1  UNL1        0.0770
     21 N           3.0322    1.8733   20.3219 N.pl3   1  UNL1       -0.3046
     22 C           3.5811    2.2041   21.6781 C.3     1  UNL1        0.1081
     23 C           2.6806    2.7763   22.7325 C.3     1  UNL1        0.0938
     24 N           1.2312    3.0176   22.4307 N.3     1  UNL1       -0.2695
     25 C           0.6823    2.6867   21.0745 C.3     1  UNL1        0.0938
     26 C           1.5828    2.1146   20.0201 C.3     1  UNL1        0.1081
     27 C           4.4805   -4.6462   18.6946 C.3     1  UNL1        0.0521
     28 C           4.3436   -3.1594   18.8379 C.ar    1  UNL1        0.0593
     29 C           3.4431   -2.5872   19.8922 C.ar    1  UNL1        0.0148
     30 C           3.3061   -1.1004   20.0355 C.ar    1  UNL1        0.0039
     31 C           4.0697   -0.1857   19.1243 C.ar    1  UNL1        0.0310
     32 C           3.9327    1.3012   19.2675 C.ar    1  UNL1        0.0493
     33 C           4.6963    2.2159   18.3563 C.ar    1  UNL1        0.0146
     34 C           5.5968    1.6438   17.3019 C.ar    1  UNL1        0.0028
     35 C           5.7337    0.1570   17.1587 C.ar    1  UNL1        0.0192
     36 C           4.9702   -0.7578   18.0699 C.ar    1  UNL1        0.0821
     37 N           5.1072   -2.2446   17.9266 N.ar    1  UNL1       -0.2496
@<TRIPOS>BOND
     1    27    28    1
     2    28    29   ar
     3    29    30   ar
     4    30    31   ar
     5    31    32   ar
     6    32    21    1
     7    21    22    1
     8    22    23    1
     9    23    24    1
    10    24    20    1
    11    20     1    1
    12     1     2    1
    13     2     3   ar
    14     3     4   ar
    15     4     5   ar
    16     5     6   ar
    17     6     7   ar
    18     7     8    1
    19     8     9    1
    20     9    10    1
    21    10    11   ar
    22    11    15    1
    23    15    16    2
    24    15    17   am
    25    17    18    1
    26    17    19    1
    27    11    12   ar
    28    12    13   ar
    29    13    14   ar
    30    24    25    1
    31    25    26    1
    32    32    33   ar
    33    33    34   ar
    34    34    35   ar
    35    35    36   ar
    36    36    37   ar
    37    37    28   ar
    38    36    31   ar
    39    26    21    1
    40     7     2   ar
    41    14    10   ar
    42    14     6    1
@<TRIPOS>MOLECULE
*****
 37 42 0 0 0
SMALL
GASTEIGER

@<TRIPOS>ATOM
      1 C           0.7564    2.4330   24.9850 C.3     1  UNL1        0.0468
      2 C           0.5052    1.7781   26.3109 C.ar    1  UNL1        0.0146
      3 C          -0.8951    1.6587   26.8351 C.ar    1  UNL1       -0.0011
      4 C          -1.1463    1.0038   28.1610 C.ar    1  UNL1        0.0014
      5 C           0.0029    0.4684   28.9627 C.ar    1  UNL1        0.0206
      6 C           1.4032    0.5878   28.4385 C.ar    1  UNL1        0.0989
      7 C           1.6544    1.2427   27.1127 C.ar    1  UNL1        0.1511
      8 O           3.0548    1.3621   26.5884 O.3     1  UNL1       -0.4678
      9 C           4.2039    0.8267   27.3901 C.3     1  UNL1        0.2510
     10 C           3.9527    0.1718   28.7161 C.ar    1  UNL1        0.1087
     11 C           4.8785   -0.4448   29.7223 C.ar    1  UNL1        0.1518
     12 N           4.0503   -0.9454   30.8685 N.ar    1  UNL1       -0.2192
     13 C           2.6127   -0.6381   30.5705 C.ar    1  UNL1        0.1828
     14 N           2.5524    0.0524   29.2403 N.ar    1  UNL1       -0.2851
     15 C           6.3705   -0.5436   29.6034 C.2     1  UNL1        0.2682
     16 O           7.2402    0.5524   30.1441 O.2     1  UNL1       -0.2682
     17 N           6.9928   -1.7384   28.9436 N.am    1  UNL1       -0.2713
     18 C           8.4848   -1.8372   28.8247 C.3     1  UNL1        0.1153
     19 C           6.1231   -2.8344   28.4029 C.3     1  UNL1        0.1153
     20 C           0.1742    1.8430   23.7348 C.3     1  UNL1        0.0770
     21 N           2.7735   -0.5656   20.9613 N.pl3   1  UNL1       -0.3046
     22 C           1.4595   -0.0267   20.4787 C.3     1  UNL1        0.1081
     23 C           0.5930    0.7762   21.4032 C.3     1  UNL1        0.0938
     24 N           1.0406    1.0401   22.8103 N.3     1  UNL1       -0.2695
     25 C           2.3547    0.5012   23.2929 C.3     1  UNL1        0.0938
     26 C           3.2211   -0.3017   22.3684 C.3     1  UNL1        0.1081
     27 C           7.0843    1.4095   15.9848 C.3     1  UNL1        0.0521
     28 C           6.2232    0.7150   16.9978 C.ar    1  UNL1        0.0593
     29 C           5.3568    1.5179   17.9223 C.ar    1  UNL1        0.0148
     30 C           4.4957    0.8234   18.9353 C.ar    1  UNL1        0.0039
     31 C           4.5010   -0.6740   19.0238 C.ar    1  UNL1        0.0310
     32 C           3.6399   -1.3685   20.0368 C.ar    1  UNL1        0.0493
     33 C           3.6452   -2.8659   20.1253 C.ar    1  UNL1        0.0146
     34 C           4.5116   -3.6688   19.2008 C.ar    1  UNL1        0.0028
     35 C           5.3727   -2.9743   18.1878 C.ar    1  UNL1        0.0192
     36 C           5.3674   -1.4769   18.0993 C.ar    1  UNL1        0.0821
     37 N           6.2285   -0.7824   17.0863 N.ar    1  UNL1       -0.2496
@<TRIPOS>BOND
     1    27    28    1
     2    28    29   ar
     3    29    30   ar
     4    30    31   ar
     5    31    32   ar
     6    32    21    1
     7    21    22    1
     8    22    23    1
     9    23    24    1
    10    24    20    1
    11    20     1    1
    12     1     2    1
    13     2     3   ar
    14     3     4   ar
    15     4     5   ar
    16     5     6   ar
    17     6     7   ar
    18     7     8    1
    19     8     9    1
    20     9    10    1
    21    10    11   ar
    22    11    15    1
    23    15    16    2
    24    15    17   am
    25    17    18    1
    26    17    19    1
    27    11    12   ar
    28    12    13   ar
    29    13    14   ar
    30    24    25    1
    31    25    26    1
    32    32    33   ar
    33    33    34   ar
    34    34    35   ar
    35    35    36   ar
    36    36    37   ar
    37    37    28   ar
    38    36    31   ar
    39    26    21    1
    40     7     2   ar
    41    14    10   ar
    42    14     6    1
@<TRIPOS>MOLECULE
*****
 37 42 0 0 0
SMALL
GASTEIGER

@<TRIPOS>ATOM
      1 C           7.9150   -3.3685   27.7320 C.3     1  UNL1        0.0468
      2 C           7.4914   -2.8331   29.0677 C.ar    1  UNL1        0.0146
      3 C           8.3918   -2.9873   30.2574 C.ar    1  UNL1       -0.0011
      4 C           7.9681   -2.4519   31.5930 C.ar    1  UNL1        0.0014
      5 C           6.6441   -1.7622   31.7388 C.ar    1  UNL1        0.0206
      6 C           5.7437   -1.6079   30.5491 C.ar    1  UNL1        0.0989
      7 C           6.1674   -2.1434   29.2135 C.ar    1  UNL1        0.1511
      8 O           5.2670   -1.9891   28.0237 O.3     1  UNL1       -0.4678
      9 C           3.9430   -1.2994   28.1696 C.3     1  UNL1        0.2510
     10 C           3.5193   -0.7639   29.5052 C.ar    1  UNL1        0.1087
     11 C           2.2815   -0.0436   29.9510 C.ar    1  UNL1        0.1518
     12 N           2.4168    0.2474   31.4163 N.ar    1  UNL1       -0.2192
     13 C           3.7383   -0.2932   31.8761 C.ar    1  UNL1        0.1828
     14 N           4.4197   -0.9182   30.6950 N.ar    1  UNL1       -0.2851
     15 C           1.1134    0.3217   29.0838 C.2     1  UNL1        0.2682
     16 O          -0.1424   -0.4972   29.1329 O.2     1  UNL1       -0.2682
     17 N           1.2011    1.5060   28.1673 N.am    1  UNL1       -0.2713
     18 C           0.0330    1.8713   27.3001 C.3     1  UNL1        0.1153
     19 C           2.4568    2.3249   28.1181 C.3     1  UNL1        0.1153
     20 C           8.2548   -2.4228   26.6184 C.3     1  UNL1        0.0770
     21 N           6.0671   -2.6880   22.6950 N.pl3   1  UNL1       -0.3046
     22 C           7.0888   -1.6116   22.9126 C.3     1  UNL1        0.1081
     23 C           7.8181   -1.5232   24.2205 C.3     1  UNL1        0.0938
     24 N           7.5256   -2.5111   25.3106 N.3     1  UNL1       -0.2695
     25 C           6.5038   -3.5876   25.0928 C.3     1  UNL1        0.0938
     26 C           5.7746   -3.6760   23.7851 C.3     1  UNL1        0.1081
     27 C           0.3482    0.4385   20.5112 C.3     1  UNL1        0.0521
     28 C           1.5956   -0.3652   20.7302 C.ar    1  UNL1        0.0593
     29 C           2.3248   -0.2768   22.0380 C.ar    1  UNL1        0.0148
     30 C           3.5722   -1.0805   22.2570 C.ar    1  UNL1        0.0039
     31 C           4.0904   -1.9727   21.1682 C.ar    1  UNL1        0.0310
     32 C           5.3378   -2.7764   21.3872 C.ar    1  UNL1        0.0493
     33 C           5.8560   -3.6685   20.2983 C.ar    1  UNL1        0.0146
     34 C           5.1268   -3.7569   18.9905 C.ar    1  UNL1        0.0028
     35 C           3.8794   -2.9532   18.7715 C.ar    1  UNL1        0.0192
     36 C           3.3612   -2.0611   19.8603 C.ar    1  UNL1        0.0821
     37 N           2.1138   -1.2574   19.6413 N.ar    1  UNL1       -0.2496
@<TRIPOS>BOND
     1    27    28    1
     2    28    29   ar
     3    29    30   ar
     4    30    31   ar
     5    31    32   ar
     6    32    21    1
     7    21    22    1
     8    22    23    1
     9    23    24    1
    10    24    20    1
    11    20     1    1
    12     1     2    1
    13     2     3   ar
    14     3     4   ar
    15     4     5   ar
    16     5     6   ar
    17     6     7   ar
    18     7     8    1
    19     8     9    1
    20     9    10    1
    21    10    11   ar
    22    11    15    1
    23    15    16    2
    24    15    17   am
    25    17    18    1
    26    17    19    1
    27    11    12   ar
    28    12    13   ar
    29    13    14   ar
    30    24    25    1
    31    25    26    1
    32    32    33   ar
    33    33    34   ar
    34    34    35   ar
    35    35    36   ar
    36    36    37   ar
    37    37    28   ar
    38    36    31   ar
    39    26    21    1
    40     7     2   ar
    41    14    10   ar
    42    14     6    1
@<TRIPOS>MOLECULE
*****
 37 42 0 0 0
SMALL
GASTEIGER

@<TRIPOS>ATOM
      1 C           8.2452   -3.0646   27.5272 C.3     1  UNL1        0.0468
      2 C           7.8223   -3.5154   28.8940 C.ar    1  UNL1        0.0146
      3 C           8.4178   -4.7553   29.4923 C.ar    1  UNL1       -0.0011
      4 C           7.9949   -5.2062   30.8590 C.ar    1  UNL1        0.0014
      5 C           6.9766   -4.4171   31.6274 C.ar    1  UNL1        0.0206
      6 C           6.3812   -3.1772   31.0291 C.ar    1  UNL1        0.0989
      7 C           6.8040   -2.7264   29.6624 C.ar    1  UNL1        0.1511
      8 O           6.2086   -1.4864   29.0640 O.3     1  UNL1       -0.4678
      9 C           5.1903   -0.6973   29.8324 C.3     1  UNL1        0.2510
     10 C           4.7674   -1.1482   31.1992 C.ar    1  UNL1        0.1087
     11 C           3.7921   -0.5793   32.1866 C.ar    1  UNL1        0.1518
     12 N           3.7848   -1.4676   33.3952 N.ar    1  UNL1       -0.2192
     13 C           4.7556   -2.5855   33.1547 C.ar    1  UNL1        0.1828
     14 N           5.3629   -2.3881   31.7975 N.ar    1  UNL1       -0.2851
     15 C           2.9687    0.6603   31.9984 C.2     1  UNL1        0.2682
     16 O           1.7147    0.6103   31.1768 O.2     1  UNL1       -0.2682
     17 N           3.3993    1.9500   32.6319 N.am    1  UNL1       -0.2713
     18 C           2.5759    3.1896   32.4438 C.3     1  UNL1        0.1153
     19 C           4.6532    2.0001   33.4536 C.3     1  UNL1        0.1153
     20 C           8.3185   -4.0525   26.4009 C.3     1  UNL1        0.0770
     21 N           6.9710   -2.8649   22.2749 N.pl3   1  UNL1       -0.3046
     22 C           6.8022   -4.2807   22.7405 C.3     1  UNL1        0.1081
     23 C           7.2514   -4.6767   24.1158 C.3     1  UNL1        0.0938
     24 N           7.8693   -3.6567   25.0256 N.3     1  UNL1       -0.2695
     25 C           8.0382   -2.2407   24.5600 C.3     1  UNL1        0.0938
     26 C           7.5890   -1.8449   23.1847 C.3     1  UNL1        0.1081
     27 C           0.9929   -0.2955   20.0589 C.3     1  UNL1        0.0521
     28 C           2.3751   -0.8389   20.2691 C.ar    1  UNL1        0.0593
     29 C           2.8243   -1.2348   21.6444 C.ar    1  UNL1        0.0148
     30 C           4.2065   -1.7781   21.8546 C.ar    1  UNL1        0.0039
     31 C           5.1396   -1.9256   20.6895 C.ar    1  UNL1        0.0310
     32 C           6.5218   -2.4690   20.8996 C.ar    1  UNL1        0.0493
     33 C           7.4549   -2.6165   19.7344 C.ar    1  UNL1        0.0146
     34 C           7.0058   -2.2206   18.3591 C.ar    1  UNL1        0.0028
     35 C           5.6235   -1.6773   18.1490 C.ar    1  UNL1        0.0192
     36 C           4.6905   -1.5298   19.3141 C.ar    1  UNL1        0.0821
     37 N           3.3082   -0.9864   19.1039 N.ar    1  UNL1       -0.2496
@<TRIPOS>BOND
     1    27    28    1
     2    28    29   ar
     3    29    30   ar
     4    30    31   ar
     5    31    32   ar
     6    32    21    1
     7    21    22    1
     8    22    23    1
     9    23    24    1
    10    24    20    1
    11    20     1    1
    12     1     2    1
    13     2     3   ar
    14     3     4   ar
    15     4     5   ar
    16     5     6   ar
    17     6     7   ar
    18     7     8    1
    19     8     9    1
    20     9    10    1
    21    10    11   ar
    22    11    15    1
    23    15    16    2
    24    15    17   am
    25    17    18    1
    26    17    19    1
    27    11    12   ar
    28    12    13   ar
    29    13    14   ar
    30    24    25    1
    31    25    26    1
    32    32    33   ar
    33    33    34   ar
    34    34    35   ar
    35    35    36   ar
    36    36    37   ar
    37    37    28   ar
    38    36    31   ar
    39    26    21    1
    40     7     2   ar
    41    14    10   ar
    42    14     6    1
@<TRIPOS>MOLECULE
*****
 37 42 0 0 0
SMALL
GASTEIGER

@<TRIPOS>ATOM
      1 C           8.3393   -3.6142   27.3430 C.3     1  UNL1        0.0468
      2 C           7.9432   -3.9707   28.7452 C.ar    1  UNL1        0.0146
      3 C           8.5723   -5.1503   29.4253 C.ar    1  UNL1       -0.0011
      4 C           8.1761   -5.5068   30.8275 C.ar    1  UNL1        0.0014
      5 C           7.1508   -4.6836   31.5494 C.ar    1  UNL1        0.0206
      6 C           6.5216   -3.5041   30.8692 C.ar    1  UNL1        0.0989
      7 C           6.9178   -3.1476   29.4671 C.ar    1  UNL1        0.1511
      8 O           6.2887   -1.9680   28.7868 O.3     1  UNL1       -0.4678
      9 C           5.2633   -1.1448   29.5087 C.3     1  UNL1        0.2510
     10 C           4.8672   -1.5013   30.9109 C.ar    1  UNL1        0.1087
     11 C           3.8922   -0.8805   31.8669 C.ar    1  UNL1        0.1518
     12 N           3.9188   -1.6765   33.1381 N.ar    1  UNL1       -0.2192
     13 C           4.9102   -2.7892   32.9676 C.ar    1  UNL1        0.1828
     14 N           5.4963   -2.6809   31.5911 N.ar    1  UNL1       -0.2851
     15 C           3.0403    0.3246   31.5989 C.2     1  UNL1        0.2682
     16 O           1.7703    0.1856   30.8130 O.2     1  UNL1       -0.2682
     17 N           3.4584    1.6688   32.1170 N.am    1  UNL1       -0.2713
     18 C           2.6064    2.8739   31.8490 C.3     1  UNL1        0.1153
     19 C           4.7284    1.8079   32.9029 C.3     1  UNL1        0.1153
     20 C           8.2470   -4.6411   26.2535 C.3     1  UNL1        0.0770
     21 N           6.0790   -3.6762   22.4300 N.pl3   1  UNL1       -0.3046
     22 C           7.3577   -4.4593   22.3900 C.3     1  UNL1        0.1081
     23 C           8.0804   -4.7810   23.6645 C.3     1  UNL1        0.0938
     24 N           7.5243   -4.3195   24.9790 N.3     1  UNL1       -0.2695
     25 C           6.2456   -3.5364   25.0190 C.3     1  UNL1        0.0938
     26 C           5.5229   -3.2147   23.7445 C.3     1  UNL1        0.1081
     27 C           6.6707    1.6672   18.1467 C.3     1  UNL1        0.0521
     28 C           6.3421    0.4118   18.8989 C.ar    1  UNL1        0.0593
     29 C           7.0648    0.0902   20.1734 C.ar    1  UNL1        0.0148
     30 C           6.7362   -1.1653   20.9256 C.ar    1  UNL1        0.0039
     31 C           5.6849   -2.0992   20.4034 C.ar    1  UNL1        0.0310
     32 C           5.3563   -3.3546   21.1556 C.ar    1  UNL1        0.0493
     33 C           4.3050   -4.2885   20.6333 C.ar    1  UNL1        0.0146
     34 C           3.5824   -3.9669   19.3588 C.ar    1  UNL1        0.0028
     35 C           3.9110   -2.7114   18.6066 C.ar    1  UNL1        0.0192
     36 C           4.9622   -1.7776   19.1288 C.ar    1  UNL1        0.0821
     37 N           5.2908   -0.5221   18.3766 N.ar    1  UNL1       -0.2496
@<TRIPOS>BOND
     1    27    28    1
     2    28    29   ar
     3    29    30   ar
     4    30    31   ar
     5    31    32   ar
     6    32    21    1
     7    21    22    1
     8    22    23    1
     9    23    24    1
    10    24    20    1
    11    20     1    1
    12     1     2    1
    13     2     3   ar
    14     3     4   ar
    15     4     5   ar
    16     5     6   ar
    17     6     7   ar
    18     7     8    1
    19     8     9    1
    20     9    10    1
    21    10    11   ar
    22    11    15    1
    23    15    16    2
    24    15    17   am
    25    17    18    1
    26    17    19    1
    27    11    12   ar
    28    12    13   ar
    29    13    14   ar
    30    24    25    1
    31    25    26    1
    32    32    33   ar
    33    33    34   ar
    34    34    35   ar
    35    35    36   ar
    36    36    37   ar
    37    37    28   ar
    38    36    31   ar
    39    26    21    1
    40     7     2   ar
    41    14    10   ar
    42    14     6    1
