@<TRIPOS>MOLECULE
*****
 20 21 0 0 0
SMALL
GASTEIGER

@<TRIPOS>ATOM
      1 O          -6.9539  -18.0366   21.8996 O.2     1  UNL1       -0.2730
      2 C          -8.3219  -17.4237   21.8445 C.2     1  UNL1        0.2460
      3 N          -8.5527  -16.0526   22.4076 N.am    1  UNL1       -0.2988
      4 H          -9.4505  -15.6503   22.3715 H       1  UNL1        0.1498
      5 C          -9.4590  -18.1817   21.2263 C.3     1  UNL1        0.1983
      6 N         -10.8691  -17.8963   21.6505 N.ar    1  UNL1       -0.2422
      7 C         -11.6491  -18.6530   22.6845 C.ar    1  UNL1        0.1039
      8 C         -13.0089  -18.0285   22.7883 C.ar    1  UNL1        0.1255
      9 N         -13.0694  -16.8858   21.8184 N.ar    1  UNL1       -0.1607
     10 C         -11.7469  -16.8041   21.1153 C.ar    1  UNL1        0.4525
     11 N         -11.3687  -15.8056   20.0618 N.pl3   1  UNL1        0.1196
     12 O         -10.0569  -15.0834   20.1494 O.2     1  UNL1        0.0446
     13 O         -12.3023  -15.5290   18.9207 O.co2   1  UNL1       -0.5735
     14 C          -7.4155  -15.2946   23.0258 C.3     1  UNL1        0.1164
     15 C          -7.2011  -15.3422   24.5097 C.ar    1  UNL1       -0.0026
     16 C          -8.3788  -15.4171   25.4356 C.ar    1  UNL1       -0.0026
     17 C          -8.1644  -15.4647   26.9194 C.ar    1  UNL1       -0.0003
     18 C          -6.7723  -15.4374   27.4773 C.ar    1  UNL1       -0.0000
     19 C          -5.5946  -15.3625   26.5514 C.ar    1  UNL1       -0.0003
     20 C          -5.8090  -15.3149   25.0676 C.ar    1  UNL1       -0.0026
@<TRIPOS>UNITY_ATOM_ATTR
11 1
charge 1
13 1
charge -1
@<TRIPOS>BOND
     1     1     2    2
     2     2     5    1
     3     5     6    1
     4     6     7   ar
     5     7     8   ar
     6     8     9   ar
     7     9    10   ar
     8    10    11    1
     9    11    12    2
    10    11    13    1
    11     2     3   am
    12     3    14    1
    13    14    15    1
    14    15    16   ar
    15    16    17   ar
    16    17    18   ar
    17    18    19   ar
    18    19    20   ar
    19    10     6   ar
    20    20    15   ar
    21     3     4    1
@<TRIPOS>MOLECULE
*****
 20 21 0 0 0
SMALL
GASTEIGER

@<TRIPOS>ATOM
      1 O          -7.9603  -20.0118   22.7302 O.2     1  UNL1       -0.2730
      2 C          -8.1098  -18.6111   22.2148 C.2     1  UNL1        0.2460
      3 N          -7.3808  -18.1865   20.9744 N.am    1  UNL1       -0.2988
      4 H          -7.4789  -17.2672   20.6361 H       1  UNL1        0.1498
      5 C          -8.9882  -17.6349   22.9397 C.3     1  UNL1        0.1983
      6 N         -10.4803  -17.7522   22.8414 N.ar    1  UNL1       -0.2422
      7 C         -11.4149  -18.0821   23.9674 C.ar    1  UNL1        0.1039
      8 C         -12.8121  -18.0940   23.4218 C.ar    1  UNL1        0.1255
      9 N         -12.7410  -17.7716   21.9585 N.ar    1  UNL1       -0.1607
     10 C         -11.2999  -17.5603   21.5998 C.ar    1  UNL1        0.4525
     11 N         -10.7713  -17.2174   20.2386 N.pl3   1  UNL1        0.1196
     12 O         -10.0649  -18.2601   19.4239 O.2     1  UNL1        0.0446
     13 O         -10.9490  -15.8319   19.6921 O.co2   1  UNL1       -0.5735
     14 C          -6.5024  -19.1627   20.2496 C.3     1  UNL1        0.1164
     15 C          -5.0195  -19.1487   20.4757 C.ar    1  UNL1       -0.0026
     16 C          -4.4622  -19.5147   21.8193 C.ar    1  UNL1       -0.0026
     17 C          -2.9795  -19.5007   22.0453 C.ar    1  UNL1       -0.0003
     18 C          -2.0540  -19.1208   20.9277 C.ar    1  UNL1       -0.0000
     19 C          -2.6113  -18.7548   19.5840 C.ar    1  UNL1       -0.0003
     20 C          -4.0941  -18.7688   19.3580 C.ar    1  UNL1       -0.0026
@<TRIPOS>UNITY_ATOM_ATTR
11 1
charge 1
13 1
charge -1
@<TRIPOS>BOND
     1     1     2    2
     2     2     5    1
     3     5     6    1
     4     6     7   ar
     5     7     8   ar
     6     8     9   ar
     7     9    10   ar
     8    10    11    1
     9    11    12    2
    10    11    13    1
    11     2     3   am
    12     3    14    1
    13    14    15    1
    14    15    16   ar
    15    16    17   ar
    16    17    18   ar
    17    18    19   ar
    18    19    20   ar
    19    10     6   ar
    20    20    15   ar
    21     3     4    1
@<TRIPOS>MOLECULE
*****
 20 21 0 0 0
SMALL
GASTEIGER

@<TRIPOS>ATOM
      1 O          -7.8705  -17.7055   21.2370 O.2     1  UNL1       -0.2730
      2 C          -9.1726  -17.1500   21.7329 C.2     1  UNL1        0.2460
      3 N          -9.1839  -15.9280   22.6029 N.am    1  UNL1       -0.2988
      4 H         -10.0385  -15.5634   22.9284 H       1  UNL1        0.1498
      5 C         -10.4633  -17.8163   21.3589 C.3     1  UNL1        0.1983
      6 N         -11.5559  -17.9594   22.3767 N.ar    1  UNL1       -0.2422
      7 C         -12.9636  -17.4613   22.2350 C.ar    1  UNL1        0.1039
      8 C         -13.7103  -17.8198   23.4855 C.ar    1  UNL1        0.1255
      9 N         -12.7640  -18.5396   24.4001 N.ar    1  UNL1       -0.1607
     10 C         -11.4325  -18.6259   23.7148 C.ar    1  UNL1        0.4525
     11 N         -10.1949  -19.2662   24.2701 N.pl3   1  UNL1        0.1196
     12 O          -9.5575  -20.4166   23.5489 O.2     1  UNL1        0.0446
     13 O          -9.5947  -18.7561   25.5467 O.co2   1  UNL1       -0.5735
     14 C          -7.8932  -15.2616   22.9769 C.3     1  UNL1        0.1164
     15 C          -7.4084  -15.3087   24.3957 C.ar    1  UNL1       -0.0026
     16 C          -5.9455  -15.1640   24.6936 C.ar    1  UNL1       -0.0026
     17 C          -5.4608  -15.2110   26.1123 C.ar    1  UNL1       -0.0003
     18 C          -6.4390  -15.4027   27.2331 C.ar    1  UNL1       -0.0000
     19 C          -7.9020  -15.5473   26.9353 C.ar    1  UNL1       -0.0003
     20 C          -8.3867  -15.5003   25.5165 C.ar    1  UNL1       -0.0026
@<TRIPOS>UNITY_ATOM_ATTR
11 1
charge 1
13 1
charge -1
@<TRIPOS>BOND
     1     1     2    2
     2     2     5    1
     3     5     6    1
     4     6     7   ar
     5     7     8   ar
     6     8     9   ar
     7     9    10   ar
     8    10    11    1
     9    11    12    2
    10    11    13    1
    11     2     3   am
    12     3    14    1
    13    14    15    1
    14    15    16   ar
    15    16    17   ar
    16    17    18   ar
    17    18    19   ar
    18    19    20   ar
    19    10     6   ar
    20    20    15   ar
    21     3     4    1
@<TRIPOS>MOLECULE
*****
 20 21 0 0 0
SMALL
GASTEIGER

@<TRIPOS>ATOM
      1 O          -5.6172  -21.4467   20.0996 O.2     1  UNL1       -0.2730
      2 C          -5.0853  -20.0951   20.4740 C.2     1  UNL1        0.2460
      3 N          -5.9832  -18.8947   20.4207 N.am    1  UNL1       -0.2988
      4 H          -5.6341  -18.0075   20.6664 H       1  UNL1        0.1498
      5 C          -3.6556  -19.9439   20.9016 C.3     1  UNL1        0.1983
      6 N          -3.1496  -18.6114   21.3691 N.ar    1  UNL1       -0.2422
      7 C          -3.6963  -17.8134   22.5155 C.ar    1  UNL1        0.1039
      8 C          -2.8926  -16.5519   22.6272 C.ar    1  UNL1        0.1255
      9 N          -1.8491  -16.5702   21.5497 N.ar    1  UNL1       -0.1607
     10 C          -2.0079  -17.8431   20.7722 C.ar    1  UNL1        0.4525
     11 N          -1.1719  -18.2722   19.6031 N.pl3   1  UNL1        0.1196
     12 O           0.2025  -18.8292   19.8282 O.2     1  UNL1        0.0446
     13 O          -1.7102  -18.1444   18.2089 O.co2   1  UNL1       -0.5735
     14 C          -7.4130  -19.0459   19.9930 C.3     1  UNL1        0.1164
     15 C          -8.4663  -19.3878   21.0048 C.ar    1  UNL1       -0.0026
     16 C          -8.0783  -19.6657   22.4268 C.ar    1  UNL1       -0.0026
     17 C          -9.1316  -20.0076   23.4385 C.ar    1  UNL1       -0.0003
     18 C         -10.5730  -20.0715   23.0282 C.ar    1  UNL1       -0.0000
     19 C         -10.9610  -19.7936   21.6062 C.ar    1  UNL1       -0.0003
     20 C          -9.9077  -19.4517   20.5945 C.ar    1  UNL1       -0.0026
@<TRIPOS>UNITY_ATOM_ATTR
11 1
charge 1
13 1
charge -1
@<TRIPOS>BOND
     1     1     2    2
     2     2     5    1
     3     5     6    1
     4     6     7   ar
     5     7     8   ar
     6     8     9   ar
     7     9    10   ar
     8    10    11    1
     9    11    12    2
    10    11    13    1
    11     2     3   am
    12     3    14    1
    13    14    15    1
    14    15    16   ar
    15    16    17   ar
    16    17    18   ar
    17    18    19   ar
    18    19    20   ar
    19    10     6   ar
    20    20    15   ar
    21     3     4    1
@<TRIPOS>MOLECULE
*****
 20 21 0 0 0
SMALL
GASTEIGER

@<TRIPOS>ATOM
      1 O          -6.9565  -18.2152   20.3609 O.2     1  UNL1       -0.2730
      2 C          -7.1503  -19.2638   21.4159 C.2     1  UNL1        0.2460
      3 N          -6.2589  -20.4698   21.4473 N.am    1  UNL1       -0.2988
      4 H          -6.3861  -21.1580   22.1397 H       1  UNL1        0.1498
      5 C          -8.2354  -19.1063   22.4394 C.3     1  UNL1        0.1983
      6 N          -9.4725  -18.3260   22.1068 N.ar    1  UNL1       -0.2422
      7 C         -10.8085  -18.9037   21.7442 C.ar    1  UNL1        0.1039
      8 C         -11.7525  -17.7657   21.4917 C.ar    1  UNL1        0.1255
      9 N         -11.0000  -16.4846   21.6983 N.ar    1  UNL1       -0.1607
     10 C          -9.5909  -16.8309   22.0784 C.ar    1  UNL1        0.4525
     11 N          -8.4929  -15.8537   22.3776 N.pl3   1  UNL1        0.1196
     12 O          -7.9853  -14.9427   21.2995 O.2     1  UNL1        0.0446
     13 O          -7.9025  -15.7874   23.7550 O.co2   1  UNL1       -0.5735
     14 C          -5.1737  -20.6273   20.4238 C.3     1  UNL1        0.1164
     15 C          -3.9273  -19.7981   20.5185 C.ar    1  UNL1       -0.0026
     16 C          -3.2708  -19.5803   21.8495 C.ar    1  UNL1       -0.0026
     17 C          -2.0244  -18.7511   21.9441 C.ar    1  UNL1       -0.0003
     18 C          -1.4345  -18.1398   20.7078 C.ar    1  UNL1       -0.0000
     19 C          -2.0911  -18.3576   19.3769 C.ar    1  UNL1       -0.0003
     20 C          -3.3375  -19.1868   19.2822 C.ar    1  UNL1       -0.0026
@<TRIPOS>UNITY_ATOM_ATTR
11 1
charge 1
13 1
charge -1
@<TRIPOS>BOND
     1     1     2    2
     2     2     5    1
     3     5     6    1
     4     6     7   ar
     5     7     8   ar
     6     8     9   ar
     7     9    10   ar
     8    10    11    1
     9    11    12    2
    10    11    13    1
    11     2     3   am
    12     3    14    1
    13    14    15    1
    14    15    16   ar
    15    16    17   ar
    16    17    18   ar
    17    18    19   ar
    18    19    20   ar
    19    10     6   ar
    20    20    15   ar
    21     3     4    1
@<TRIPOS>MOLECULE
*****
 20 21 0 0 0
SMALL
GASTEIGER

@<TRIPOS>ATOM
      1 O          -3.6828  -17.9922   25.1065 O.2     1  UNL1       -0.2730
      2 C          -4.1193  -17.9442   23.6723 C.2     1  UNL1        0.2460
      3 N          -4.7591  -16.7031   23.1242 N.am    1  UNL1       -0.2988
      4 H          -5.0456  -16.6716   22.1828 H       1  UNL1        0.1498
      5 C          -3.9161  -19.1373   22.7861 C.3     1  UNL1        0.1983
      6 N          -3.5398  -18.9468   21.3466 N.ar    1  UNL1       -0.2422
      7 C          -2.1660  -18.6421   20.8273 C.ar    1  UNL1        0.1039
      8 C          -2.2484  -18.5346   19.3334 C.ar    1  UNL1        0.1255
      9 N          -3.6733  -18.7730   18.9295 N.ar    1  UNL1       -0.1607
     10 C          -4.4714  -19.0277   20.1737 C.ar    1  UNL1        0.4525
     11 N          -5.9427  -19.3132   20.2344 N.pl3   1  UNL1        0.1196
     12 O          -6.4427  -20.7154   20.0505 O.2     1  UNL1        0.0446
     13 O          -6.9140  -18.1966   20.4789 O.co2   1  UNL1       -0.5735
     14 C          -4.9623  -15.5101   24.0103 C.3     1  UNL1        0.1164
     15 C          -6.1002  -15.4867   24.9875 C.ar    1  UNL1       -0.0026
     16 C          -5.8228  -15.4367   26.4607 C.ar    1  UNL1       -0.0026
     17 C          -6.9606  -15.4133   27.4378 C.ar    1  UNL1       -0.0003
     18 C          -8.3760  -15.4400   26.9416 C.ar    1  UNL1       -0.0000
     19 C          -8.6534  -15.4901   25.4684 C.ar    1  UNL1       -0.0003
     20 C          -7.5155  -15.5134   24.4913 C.ar    1  UNL1       -0.0026
@<TRIPOS>UNITY_ATOM_ATTR
11 1
charge 1
13 1
charge -1
@<TRIPOS>BOND
     1     1     2    2
     2     2     5    1
     3     5     6    1
     4     6     7   ar
     5     7     8   ar
     6     8     9   ar
     7     9    10   ar
     8    10    11    1
     9    11    12    2
    10    11    13    1
    11     2     3   am
    12     3    14    1
    13    14    15    1
    14    15    16   ar
    15    16    17   ar
    16    17    18   ar
    17    18    19   ar
    18    19    20   ar
    19    10     6   ar
    20    20    15   ar
    21     3     4    1
@<TRIPOS>MOLECULE
*****
 20 21 0 0 0
SMALL
GASTEIGER

@<TRIPOS>ATOM
      1 O          -6.4918  -17.2049   22.7322 O.2     1  UNL1       -0.2730
      2 C          -6.6670  -18.5282   22.0480 C.2     1  UNL1        0.2460
      3 N          -5.5365  -19.5138   22.0204 N.am    1  UNL1       -0.2988
      4 H          -5.6515  -20.3824   21.5714 H       1  UNL1        0.1498
      5 C          -7.9727  -18.8660   21.3914 C.3     1  UNL1        0.1983
      6 N          -9.2113  -19.0242   22.2225 N.ar    1  UNL1       -0.2422
      7 C          -9.3782  -19.9535   23.3881 C.ar    1  UNL1        0.1039
      8 C         -10.7705  -19.7845   23.9200 C.ar    1  UNL1        0.1255
      9 N         -11.4641  -18.7507   23.0830 N.ar    1  UNL1       -0.1607
     10 C         -10.5004  -18.2809   22.0340 C.ar    1  UNL1        0.4525
     11 N         -10.7773  -17.2489   20.9812 N.pl3   1  UNL1        0.1196
     12 O          -9.9958  -15.9687   20.9621 O.2     1  UNL1        0.0446
     13 O         -11.8356  -17.4970   19.9476 O.co2   1  UNL1       -0.5735
     14 C          -4.2309  -19.1761   22.6770 C.3     1  UNL1        0.1164
     15 C          -3.1552  -18.4825   21.8947 C.ar    1  UNL1       -0.0026
     16 C          -2.7796  -17.0687   22.2264 C.ar    1  UNL1       -0.0026
     17 C          -1.7040  -16.3752   21.4441 C.ar    1  UNL1       -0.0003
     18 C          -1.0040  -17.0954   20.3300 C.ar    1  UNL1       -0.0000
     19 C          -1.3796  -18.5092   19.9982 C.ar    1  UNL1       -0.0003
     20 C          -2.4552  -19.2027   20.7805 C.ar    1  UNL1       -0.0026
@<TRIPOS>UNITY_ATOM_ATTR
11 1
charge 1
13 1
charge -1
@<TRIPOS>BOND
     1     1     2    2
     2     2     5    1
     3     5     6    1
     4     6     7   ar
     5     7     8   ar
     6     8     9   ar
     7     9    10   ar
     8    10    11    1
     9    11    12    2
    10    11    13    1
    11     2     3   am
    12     3    14    1
    13    14    15    1
    14    15    16   ar
    15    16    17   ar
    16    17    18   ar
    17    18    19   ar
    18    19    20   ar
    19    10     6   ar
    20    20    15   ar
    21     3     4    1
@<TRIPOS>MOLECULE
*****
 20 21 0 0 0
SMALL
GASTEIGER

@<TRIPOS>ATOM
      1 O          -8.2131  -16.4805   21.4811 O.2     1  UNL1       -0.2730
      2 C          -8.4712  -17.9430   21.6924 C.2     1  UNL1        0.2460
      3 N          -7.4067  -18.8134   22.2920 N.am    1  UNL1       -0.2988
      4 H          -7.5761  -19.7733   22.4307 H       1  UNL1        0.1498
      5 C          -9.7936  -18.5350   21.3042 C.3     1  UNL1        0.1983
      6 N         -10.9871  -18.3526   22.1942 N.ar    1  UNL1       -0.2422
      7 C         -12.2991  -17.7441   21.7960 C.ar    1  UNL1        0.1039
      8 C         -13.2012  -17.7621   22.9943 C.ar    1  UNL1        0.1255
      9 N         -12.4466  -18.3816   24.1331 N.ar    1  UNL1       -0.1607
     10 C         -11.0783  -18.7465   23.6386 C.ar    1  UNL1        0.4525
     11 N          -9.9920  -19.3921   24.4467 N.pl3   1  UNL1        0.1196
     12 O          -9.5729  -18.7911   25.7556 O.2     1  UNL1        0.0446
     13 O          -9.3246  -20.6387   23.9460 O.co2   1  UNL1       -0.5735
     14 C          -6.0843  -18.2214   22.6802 C.3     1  UNL1        0.1164
     15 C          -4.8191  -18.7469   22.0694 C.ar    1  UNL1       -0.0026
     16 C          -3.4891  -18.3267   22.6212 C.ar    1  UNL1       -0.0026
     17 C          -2.2239  -18.8522   22.0104 C.ar    1  UNL1       -0.0003
     18 C          -2.2887  -19.7979   20.8479 C.ar    1  UNL1       -0.0000
     19 C          -3.6187  -20.2180   20.2961 C.ar    1  UNL1       -0.0003
     20 C          -4.8839  -19.6926   20.9068 C.ar    1  UNL1       -0.0026
@<TRIPOS>UNITY_ATOM_ATTR
11 1
charge 1
13 1
charge -1
@<TRIPOS>BOND
     1     1     2    2
     2     2     5    1
     3     5     6    1
     4     6     7   ar
     5     7     8   ar
     6     8     9   ar
     7     9    10   ar
     8    10    11    1
     9    11    12    2
    10    11    13    1
    11     2     3   am
    12     3    14    1
    13    14    15    1
    14    15    16   ar
    15    16    17   ar
    16    17    18   ar
    17    18    19   ar
    18    19    20   ar
    19    10     6   ar
    20    20    15   ar
    21     3     4    1
@<TRIPOS>MOLECULE
*****
 20 21 0 0 0
SMALL
GASTEIGER

@<TRIPOS>ATOM
      1 O          -7.3334  -17.4416   21.1995 O.2     1  UNL1       -0.2730
      2 C          -7.1059  -18.9175   21.0581 C.2     1  UNL1        0.2460
      3 N          -8.1295  -19.7717   20.3705 N.am    1  UNL1       -0.2988
      4 H          -7.9802  -20.7403   20.2776 H       1  UNL1        0.1498
      5 C          -5.8549  -19.5392   21.6042 C.3     1  UNL1        0.1983
      6 N          -4.5141  -19.0915   21.1024 N.ar    1  UNL1       -0.2422
      7 C          -3.8575  -19.5323   19.8278 C.ar    1  UNL1        0.1039
      8 C          -2.5321  -18.8376   19.7247 C.ar    1  UNL1        0.1255
      9 N          -2.3696  -17.9674   20.9356 N.ar    1  UNL1       -0.1607
     10 C          -3.5945  -18.1243   21.7870 C.ar    1  UNL1        0.4525
     11 N          -3.8542  -17.4350   23.0937 N.pl3   1  UNL1        0.1196
     12 O          -4.3722  -16.0274   23.1092 O.2     1  UNL1        0.0446
     13 O          -3.5958  -18.1533   24.3850 O.co2   1  UNL1       -0.5735
     14 C          -9.3805  -19.1499   19.8243 C.3     1  UNL1        0.1164
     15 C         -10.4693  -18.7109   20.7582 C.ar    1  UNL1       -0.0026
     16 C         -11.4516  -17.6633   20.3251 C.ar    1  UNL1       -0.0026
     17 C         -12.5402  -17.2243   21.2589 C.ar    1  UNL1       -0.0003
     18 C         -12.6466  -17.8328   22.6258 C.ar    1  UNL1       -0.0000
     19 C         -11.6643  -18.8804   23.0589 C.ar    1  UNL1       -0.0003
     20 C         -10.5756  -19.3194   22.1250 C.ar    1  UNL1       -0.0026
@<TRIPOS>UNITY_ATOM_ATTR
11 1
charge 1
13 1
charge -1
@<TRIPOS>BOND
     1     1     2    2
     2     2     5    1
     3     5     6    1
     4     6     7   ar
     5     7     8   ar
     6     8     9   ar
     7     9    10   ar
     8    10    11    1
     9    11    12    2
    10    11    13    1
    11     2     3   am
    12     3    14    1
    13    14    15    1
    14    15    16   ar
    15    16    17   ar
    16    17    18   ar
    17    18    19   ar
    18    19    20   ar
    19    10     6   ar
    20    20    15   ar
    21     3     4    1
