@<TRIPOS>MOLECULE
*****
 45 46 0 0 0
SMALL
GASTEIGER

@<TRIPOS>ATOM
      1 C          -9.7646  -19.6898   21.8013 C.3     1  UNL1        0.1540
      2 C          -8.9152  -19.9945   22.9996 C.3     1  UNL1        0.0646
      3 C          -9.5483  -20.5216   24.2531 C.3     1  UNL1        0.1448
      4 O          -9.9244  -19.5785   25.3572 O.3     1  UNL1       -0.3537
      5 C         -10.8974  -18.4674   25.0957 C.3     1  UNL1        0.1422
      6 C         -12.2068  -18.7594   24.4248 C.3     1  UNL1        0.0321
      7 C         -12.8153  -17.7505   23.4962 C.3     1  UNL1        0.0026
      8 C         -12.7170  -17.9423   22.0118 C.3     1  UNL1        0.0001
      9 C         -12.8389  -16.7626   21.0934 C.3     1  UNL1        0.0000
     10 C         -11.7902  -16.5123   20.0506 C.3     1  UNL1        0.0000
     11 C         -10.4579  -15.9487   20.4469 C.3     1  UNL1        0.0000
     12 C         -10.1653  -15.6587   21.8892 C.3     1  UNL1        0.0000
     13 C          -8.9947  -16.3112   22.5630 C.3     1  UNL1        0.0000
     14 C          -8.5327  -15.8221   23.9037 C.3     1  UNL1        0.0000
     15 C          -7.3588  -14.8932   23.9994 C.3     1  UNL1        0.0000
     16 C          -5.9681  -15.4193   23.8018 C.3     1  UNL1        0.0000
     17 C          -5.1313  -15.7919   24.9896 C.3     1  UNL1        0.0003
     18 C          -5.5020  -15.2925   26.3546 C.3     1  UNL1        0.0088
     19 C          -6.5351  -16.0190   27.1641 C.3     1  UNL1        0.1033
     20 C          -7.7904  -15.3140   27.5846 C.3     1  UNL1        0.3978
     21 F          -9.0458  -14.6089   28.0052 F       1  UNL1       -0.1700
     22 F          -6.9808  -14.1236   28.0058 F       1  UNL1       -0.1700
     23 F          -8.6001  -16.5044   27.1634 F       1  UNL1       -0.1700
     24 O          -9.1473  -19.0715   20.5821 O.3     1  UNL1       -0.2925
     25 P          -9.2585  -19.7598   19.2540 P.3     1  UNL1        0.3697
     26 O         -10.7231  -19.9804   19.4909 O.2     1  UNL1       -0.2553
     27 O          -9.3697  -20.4482   17.9259 O.3     1  UNL1       -0.3218
     28 H         -10.2866  -20.7310   17.7840 H       1  UNL1        0.2198
     29 C          -7.7938  -19.5393   19.0170 C.3     1  UNL1        0.2579
     30 O          -6.9776  -18.7802   20.0208 O.3     1  UNL1       -0.3426
     31 C          -5.8407  -20.9872   20.7867 C.3     1  UNL1        0.0342
     32 C          -6.0806  -19.5179   20.9701 C.3     1  UNL1        0.1387
     33 C          -5.4234  -18.7862   22.1027 C.3     1  UNL1        0.1384
     34 N          -3.9592  -18.4663   22.0398 N.ar    1  UNL1       -0.2918
     35 C          -3.0564  -18.2333   23.2148 C.ar    1  UNL1        0.1798
     36 N          -1.6801  -17.9462   22.6919 N.ar    1  UNL1       -0.2195
     37 C          -1.7323  -18.0018   21.1939 C.ar    1  UNL1        0.1481
     38 C          -0.6792  -17.8012   20.1447 C.ar    1  UNL1        0.1480
     39 N           0.7294  -17.4798   20.5477 N.pl3   1  UNL1       -0.3413
     40 N          -1.0348  -17.9221   18.6925 N.ar    1  UNL1       -0.2078
     41 C          -2.4434  -18.2435   18.2895 C.ar    1  UNL1        0.2015
     42 N          -3.4965  -18.4441   19.3386 N.ar    1  UNL1       -0.2048
     43 C          -3.1409  -18.3232   20.7908 C.ar    1  UNL1        0.1674
     44 H           0.9628  -17.4005   21.5009 H       1  UNL1        0.1438
     45 H           1.4206  -17.3482   19.8591 H       1  UNL1        0.1438
@<TRIPOS>BOND
     1    32    31    1
     2    32    33    1
     3    33    34    1
     4    34    35   ar
     5    35    36   ar
     6    36    37   ar
     7    37    38   ar
     8    38    39    1
     9    38    40   ar
    10    40    41   ar
    11    41    42   ar
    12    42    43   ar
    13    32    30    1
    14    30    29    1
    15    29    25    1
    16    25    26    2
    17    25    27    1
    18    25    24    1
    19    24     1    1
    20     1     2    1
    21     2     3    1
    22     3     4    1
    23     4     5    1
    24     5     6    1
    25     6     7    1
    26     7     8    1
    27     8     9    1
    28     9    10    1
    29    10    11    1
    30    11    12    1
    31    12    13    1
    32    13    14    1
    33    14    15    1
    34    15    16    1
    35    16    17    1
    36    17    18    1
    37    18    19    1
    38    19    20    1
    39    20    21    1
    40    20    22    1
    41    20    23    1
    42    43    34   ar
    43    43    37   ar
    44    39    44    1
    45    39    45    1
    46    27    28    1
@<TRIPOS>MOLECULE
*****
 45 46 0 0 0
SMALL
GASTEIGER

@<TRIPOS>ATOM
      1 C          -8.1293  -15.5824   27.0059 C.3     1  UNL1        0.1540
      2 C          -6.7172  -15.3863   27.4720 C.3     1  UNL1        0.0646
      3 C          -5.6040  -15.2878   26.4714 C.3     1  UNL1        0.1448
      4 O          -5.8285  -14.5826   25.1667 O.3     1  UNL1       -0.3537
      5 C          -5.2067  -15.1147   23.9097 C.3     1  UNL1        0.1422
      6 C          -5.3870  -16.5561   23.5357 C.3     1  UNL1        0.0321
      7 C          -4.4463  -17.5937   24.0729 C.3     1  UNL1        0.0026
      8 C          -3.5508  -18.3505   23.1373 C.3     1  UNL1        0.0001
      9 C          -2.2098  -17.7908   22.7656 C.3     1  UNL1        0.0000
     10 C          -2.1145  -16.4464   22.1071 C.3     1  UNL1        0.0000
     11 C          -1.3729  -16.2966   20.8119 C.3     1  UNL1        0.0000
     12 C          -0.5885  -17.4495   20.2591 C.3     1  UNL1        0.0000
     13 C          -1.0527  -18.1438   19.0132 C.3     1  UNL1        0.0000
     14 C          -2.4910  -18.0555   18.5969 C.3     1  UNL1        0.0000
     15 C          -3.5654  -18.5998   19.4910 C.3     1  UNL1        0.0000
     16 C          -3.3870  -19.9352   20.1505 C.3     1  UNL1        0.0000
     17 C          -4.2362  -21.0983   19.7310 C.3     1  UNL1        0.0003
     18 C          -5.7088  -21.0934   20.0164 C.3     1  UNL1        0.0088
     19 C          -6.2207  -20.5265   21.3075 C.3     1  UNL1        0.1033
     20 C          -6.8918  -19.1851   21.3239 C.3     1  UNL1        0.3978
     21 F          -7.5629  -17.8437   21.3402 F       1  UNL1       -0.1700
     22 F          -7.0333  -19.2742   22.8145 F       1  UNL1       -0.1700
     23 F          -6.7503  -19.0962   19.8331 F       1  UNL1       -0.1700
     24 O          -8.4364  -16.6056   25.9529 O.3     1  UNL1       -0.2925
     25 P          -9.0269  -16.1786   24.6418 P.3     1  UNL1        0.3697
     26 O          -8.9603  -14.7452   25.0786 O.2     1  UNL1       -0.2553
     27 O          -9.6173  -15.7517   23.3307 O.3     1  UNL1       -0.3218
     28 H          -9.7040  -14.7857   23.3144 H       1  UNL1        0.2198
     29 C          -9.0934  -17.6121   24.2050 C.3     1  UNL1        0.2579
     30 O          -9.4428  -18.6826   25.1958 O.3     1  UNL1       -0.3426
     31 C          -9.6132  -21.2387   24.7627 C.3     1  UNL1        0.0342
     32 C         -10.2404  -19.8761   24.7606 C.3     1  UNL1        0.1387
     33 C         -11.6653  -19.7070   24.3231 C.3     1  UNL1        0.1384
     34 N         -12.0235  -18.6416   23.3298 N.ar    1  UNL1       -0.2918
     35 C         -12.9899  -17.5165   23.5536 C.ar    1  UNL1        0.1798
     36 N         -13.0418  -16.6939   22.3004 N.ar    1  UNL1       -0.2195
     37 C         -12.1074  -17.3106   21.3020 C.ar    1  UNL1        0.1481
     38 C         -11.7484  -16.9315   19.8959 C.ar    1  UNL1        0.1480
     39 N         -12.3778  -15.7277   19.2597 N.pl3   1  UNL1       -0.3413
     40 N         -10.7600  -17.7562   19.1259 N.ar    1  UNL1       -0.2078
     41 C         -10.1306  -18.9600   19.7621 C.ar    1  UNL1        0.2015
     42 N         -10.4897  -19.3391   21.1683 N.ar    1  UNL1       -0.2048
     43 C         -11.4781  -18.5144   21.9383 C.ar    1  UNL1        0.1674
     44 H         -13.0265  -15.1864   19.7650 H       1  UNL1        0.1438
     45 H         -12.1421  -15.4789   18.3367 H       1  UNL1        0.1438
@<TRIPOS>BOND
     1    32    31    1
     2    32    33    1
     3    33    34    1
     4    34    35   ar
     5    35    36   ar
     6    36    37   ar
     7    37    38   ar
     8    38    39    1
     9    38    40   ar
    10    40    41   ar
    11    41    42   ar
    12    42    43   ar
    13    32    30    1
    14    30    29    1
    15    29    25    1
    16    25    26    2
    17    25    27    1
    18    25    24    1
    19    24     1    1
    20     1     2    1
    21     2     3    1
    22     3     4    1
    23     4     5    1
    24     5     6    1
    25     6     7    1
    26     7     8    1
    27     8     9    1
    28     9    10    1
    29    10    11    1
    30    11    12    1
    31    12    13    1
    32    13    14    1
    33    14    15    1
    34    15    16    1
    35    16    17    1
    36    17    18    1
    37    18    19    1
    38    19    20    1
    39    20    21    1
    40    20    22    1
    41    20    23    1
    42    43    34   ar
    43    43    37   ar
    44    39    44    1
    45    39    45    1
    46    27    28    1
@<TRIPOS>MOLECULE
*****
 45 46 0 0 0
SMALL
GASTEIGER

@<TRIPOS>ATOM
      1 C          -8.2011  -17.6496   21.1058 C.3     1  UNL1        0.1540
      2 C          -8.2196  -16.8166   22.3532 C.3     1  UNL1        0.0646
      3 C          -7.6633  -15.4238   22.3332 C.3     1  UNL1        0.1448
      4 O          -6.4167  -15.1029   23.1031 O.3     1  UNL1       -0.3537
      5 C          -5.7806  -16.1486   23.9702 C.3     1  UNL1        0.1422
      6 C          -5.1033  -15.7525   25.2486 C.3     1  UNL1        0.0321
      7 C          -5.8497  -14.9556   26.2772 C.3     1  UNL1        0.0026
      8 C          -6.6586  -15.6572   27.3276 C.3     1  UNL1        0.0001
      9 C          -8.1514  -15.7304   27.2001 C.3     1  UNL1        0.0000
     10 C          -8.7997  -15.5457   25.8602 C.3     1  UNL1        0.0000
     11 C          -9.5563  -16.6777   25.2307 C.3     1  UNL1        0.0000
     12 C          -9.3196  -18.0856   25.6909 C.3     1  UNL1        0.0000
     13 C         -10.1953  -19.1956   25.1900 C.3     1  UNL1        0.0000
     14 C         -10.3118  -19.4524   23.7168 C.3     1  UNL1        0.0000
     15 C         -11.6010  -19.1664   23.0052 C.3     1  UNL1        0.0000
     16 C         -12.6094  -18.2432   23.6223 C.3     1  UNL1        0.0000
     17 C         -12.6943  -16.8155   23.1706 C.3     1  UNL1        0.0003
     18 C         -11.7853  -16.3163   22.0868 C.3     1  UNL1        0.0088
     19 C         -12.2547  -16.3008   20.6621 C.3     1  UNL1        0.1033
     20 C         -11.4605  -15.5724   19.6187 C.3     1  UNL1        0.3978
     21 F         -10.6663  -14.8441   18.5753 F       1  UNL1       -0.1700
     22 F         -12.4833  -15.9389   18.5845 F       1  UNL1       -0.1700
     23 F         -10.4378  -15.2060   20.6531 F       1  UNL1       -0.1700
     24 O          -9.4737  -18.2491   20.5853 O.3     1  UNL1       -0.2925
     25 P          -9.4234  -19.3345   19.5512 P.3     1  UNL1        0.3697
     26 O         -10.9223  -19.3516   19.4963 O.2     1  UNL1       -0.2553
     27 O          -9.3732  -20.4198   18.5170 O.3     1  UNL1       -0.3218
     28 H         -10.2762  -20.6642   18.2606 H       1  UNL1        0.2198
     29 C          -7.9245  -19.3174   19.6060 C.3     1  UNL1        0.2579
     30 O          -7.1655  -20.5999   19.7766 O.3     1  UNL1       -0.3426
     31 C          -6.5460  -20.4645   22.2961 C.3     1  UNL1        0.0342
     32 C          -6.1511  -20.7309   20.8737 C.3     1  UNL1        0.1387
     33 C          -4.7417  -21.1284   20.5485 C.3     1  UNL1        0.1384
     34 N          -3.7391  -20.0836   20.1570 N.ar    1  UNL1       -0.2918
     35 C          -3.1146  -19.9246   18.8025 C.ar    1  UNL1        0.1798
     36 N          -2.1746  -18.7571   18.8597 N.ar    1  UNL1       -0.2195
     37 C          -2.2182  -18.1945   20.2495 C.ar    1  UNL1        0.1481
     38 C          -1.5024  -17.0416   20.8886 C.ar    1  UNL1        0.1480
     39 N          -0.5354  -16.2217   20.0868 N.pl3   1  UNL1       -0.3413
     40 N          -1.7535  -16.7086   22.3294 N.ar    1  UNL1       -0.2078
     41 C          -2.7204  -17.5284   23.1312 C.ar    1  UNL1        0.2015
     42 N          -3.4363  -18.6813   22.4921 N.ar    1  UNL1       -0.2048
     43 C          -3.1852  -19.0143   21.0513 C.ar    1  UNL1        0.1674
     44 H          -0.3706  -16.4403   19.1411 H       1  UNL1        0.1438
     45 H          -0.0656  -15.4651   20.5062 H       1  UNL1        0.1438
@<TRIPOS>BOND
     1    32    31    1
     2    32    33    1
     3    33    34    1
     4    34    35   ar
     5    35    36   ar
     6    36    37   ar
     7    37    38   ar
     8    38    39    1
     9    38    40   ar
    10    40    41   ar
    11    41    42   ar
    12    42    43   ar
    13    32    30    1
    14    30    29    1
    15    29    25    1
    16    25    26    2
    17    25    27    1
    18    25    24    1
    19    24     1    1
    20     1     2    1
    21     2     3    1
    22     3     4    1
    23     4     5    1
    24     5     6    1
    25     6     7    1
    26     7     8    1
    27     8     9    1
    28     9    10    1
    29    10    11    1
    30    11    12    1
    31    12    13    1
    32    13    14    1
    33    14    15    1
    34    15    16    1
    35    16    17    1
    36    17    18    1
    37    18    19    1
    38    19    20    1
    39    20    21    1
    40    20    22    1
    41    20    23    1
    42    43    34   ar
    43    43    37   ar
    44    39    44    1
    45    39    45    1
    46    27    28    1
@<TRIPOS>MOLECULE
*****
 45 46 0 0 0
SMALL
GASTEIGER

@<TRIPOS>ATOM
      1 C          -8.6201  -15.6738   24.4986 C.3     1  UNL1        0.1540
      2 C          -8.9135  -16.5350   25.6913 C.3     1  UNL1        0.0646
      3 C          -8.5022  -16.0838   27.0614 C.3     1  UNL1        0.1448
      4 O          -7.2384  -16.6085   27.6758 O.3     1  UNL1       -0.3537
      5 C          -5.9150  -16.0175   27.2895 C.3     1  UNL1        0.1422
      6 C          -5.8115  -15.1357   26.0805 C.3     1  UNL1        0.0321
      7 C          -4.8302  -15.4640   24.9944 C.3     1  UNL1        0.0026
      8 C          -5.1076  -16.5958   24.0500 C.3     1  UNL1        0.0001
      9 C          -4.0968  -17.6898   23.8729 C.3     1  UNL1        0.0000
     10 C          -3.2330  -17.7216   22.6470 C.3     1  UNL1        0.0000
     11 C          -2.0946  -16.7550   22.5065 C.3     1  UNL1        0.0000
     12 C          -1.6567  -16.3050   21.1443 C.3     1  UNL1        0.0000
     13 C          -0.7216  -17.1564   20.3376 C.3     1  UNL1        0.0000
     14 C          -1.2104  -17.8349   19.0924 C.3     1  UNL1        0.0000
     15 C          -2.6242  -17.6326   18.6337 C.3     1  UNL1        0.0000
     16 C          -3.7002  -18.5771   19.0809 C.3     1  UNL1        0.0000
     17 C          -3.3407  -19.8131   19.8511 C.3     1  UNL1        0.0003
     18 C          -4.4033  -20.8096   20.2086 C.3     1  UNL1        0.0088
     19 C          -5.8390  -20.3811   20.2830 C.3     1  UNL1        0.1033
     20 C          -6.3364  -19.6307   21.4828 C.3     1  UNL1        0.3978
     21 F          -6.8338  -18.8803   22.6825 F       1  UNL1       -0.1700
     22 F          -6.3560  -18.3627   20.6816 F       1  UNL1       -0.1700
     23 F          -6.3167  -20.8987   22.2840 F       1  UNL1       -0.1700
     24 O          -8.8132  -16.2186   23.1145 O.3     1  UNL1       -0.2925
     25 P          -8.5858  -15.3365   21.9228 P.3     1  UNL1        0.3697
     26 O          -7.1499  -15.1672   22.3221 O.2     1  UNL1       -0.2553
     27 O          -8.3583  -14.4544   20.7310 O.3     1  UNL1       -0.3218
     28 H          -7.4338  -14.1610   20.7177 H       1  UNL1        0.2198
     29 C         -10.0217  -15.5058   21.5234 C.3     1  UNL1        0.2579
     30 O         -10.4205  -15.3719   20.0836 O.3     1  UNL1       -0.3426
     31 C         -12.7680  -15.5815   18.9903 C.3     1  UNL1        0.0342
     32 C         -11.5237  -16.2234   19.5286 C.3     1  UNL1        0.1387
     33 C         -11.3826  -17.7167   19.5119 C.3     1  UNL1        0.1384
     34 N         -10.9220  -18.4403   20.7425 N.ar    1  UNL1       -0.2918
     35 C          -9.7009  -19.3045   20.8519 C.ar    1  UNL1        0.1798
     36 N          -9.6259  -19.8251   22.2567 N.ar    1  UNL1       -0.2195
     37 C         -10.8007  -19.2826   23.0154 C.ar    1  UNL1        0.1481
     38 C         -11.2444  -19.4574   24.4375 C.ar    1  UNL1        0.1480
     39 N         -10.4434  -20.3132   25.3734 N.pl3   1  UNL1       -0.3413
     40 N         -12.4893  -18.7763   24.9238 N.ar    1  UNL1       -0.2078
     41 C         -13.2903  -17.9205   23.9879 C.ar    1  UNL1        0.2015
     42 N         -12.8466  -17.7457   22.5658 N.ar    1  UNL1       -0.2048
     43 C         -11.6017  -18.4268   22.0795 C.ar    1  UNL1        0.1674
     44 H          -9.6263  -20.7602   25.0542 H       1  UNL1        0.1438
     45 H         -10.7346  -20.4279   26.3068 H       1  UNL1        0.1438
@<TRIPOS>BOND
     1    32    31    1
     2    32    33    1
     3    33    34    1
     4    34    35   ar
     5    35    36   ar
     6    36    37   ar
     7    37    38   ar
     8    38    39    1
     9    38    40   ar
    10    40    41   ar
    11    41    42   ar
    12    42    43   ar
    13    32    30    1
    14    30    29    1
    15    29    25    1
    16    25    26    2
    17    25    27    1
    18    25    24    1
    19    24     1    1
    20     1     2    1
    21     2     3    1
    22     3     4    1
    23     4     5    1
    24     5     6    1
    25     6     7    1
    26     7     8    1
    27     8     9    1
    28     9    10    1
    29    10    11    1
    30    11    12    1
    31    12    13    1
    32    13    14    1
    33    14    15    1
    34    15    16    1
    35    16    17    1
    36    17    18    1
    37    18    19    1
    38    19    20    1
    39    20    21    1
    40    20    22    1
    41    20    23    1
    42    43    34   ar
    43    43    37   ar
    44    39    44    1
    45    39    45    1
    46    27    28    1
@<TRIPOS>MOLECULE
*****
 45 46 0 0 0
SMALL
GASTEIGER

@<TRIPOS>ATOM
      1 C          -9.0746  -16.0023   24.4929 C.3     1  UNL1        0.1540
      2 C          -8.8879  -16.9214   25.6635 C.3     1  UNL1        0.0646
      3 C          -8.4705  -16.3669   26.9933 C.3     1  UNL1        0.1448
      4 O          -7.0159  -16.2930   27.3519 O.3     1  UNL1       -0.3537
      5 C          -6.2063  -15.0932   26.9581 C.3     1  UNL1        0.1422
      6 C          -5.4059  -15.1118   25.6897 C.3     1  UNL1        0.0321
      7 C          -5.0509  -16.4195   25.0460 C.3     1  UNL1        0.0026
      8 C          -4.3682  -16.4371   23.7104 C.3     1  UNL1        0.0001
      9 C          -3.5061  -17.6021   23.3241 C.3     1  UNL1        0.0000
     10 C          -4.1360  -18.9170   22.9717 C.3     1  UNL1        0.0000
     11 C          -5.5083  -18.9532   22.3671 C.3     1  UNL1        0.0000
     12 C          -6.0835  -20.2537   21.8898 C.3     1  UNL1        0.0000
     13 C          -5.8737  -20.6907   20.4704 C.3     1  UNL1        0.0000
     14 C          -4.5017  -21.0700   19.9973 C.3     1  UNL1        0.0000
     15 C          -3.5137  -20.0032   19.6291 C.3     1  UNL1        0.0000
     16 C          -3.9884  -18.6115   19.3325 C.3     1  UNL1        0.0000
     17 C          -3.1852  -17.7211   18.4315 C.3     1  UNL1        0.0003
     18 C          -2.2284  -16.7263   19.0189 C.3     1  UNL1        0.0088
     19 C          -1.5916  -16.9940   20.3504 C.3     1  UNL1        0.1033
     20 C          -0.2660  -17.6924   20.4209 C.3     1  UNL1        0.3978
     21 F           1.0596  -18.3908   20.4914 F       1  UNL1       -0.1700
     22 F          -0.9175  -18.8606   21.0996 F       1  UNL1       -0.1700
     23 F           0.3856  -16.5241   19.7422 F       1  UNL1       -0.1700
     24 O          -8.5732  -16.4031   23.1372 O.3     1  UNL1       -0.2925
     25 P          -8.3728  -15.3639   22.0742 P.3     1  UNL1        0.3697
     26 O          -6.9429  -15.2055   22.4987 O.2     1  UNL1       -0.2553
     27 O          -8.1724  -14.3247   21.0113 O.3     1  UNL1       -0.3218
     28 H          -7.2574  -14.0042   21.0409 H       1  UNL1        0.2198
     29 C          -9.8028  -15.5223   21.6498 C.3     1  UNL1        0.2579
     30 O         -10.1803  -15.3534   20.2080 O.3     1  UNL1       -0.3426
     31 C         -12.5026  -15.5455   19.0591 C.3     1  UNL1        0.0342
     32 C         -11.2702  -16.1958   19.6144 C.3     1  UNL1        0.1387
     33 C         -11.1278  -17.6886   19.5761 C.3     1  UNL1        0.1384
     34 N         -10.6925  -18.4323   20.8039 N.ar    1  UNL1       -0.2918
     35 C          -9.4600  -19.2776   20.9321 C.ar    1  UNL1        0.1798
     36 N          -9.4191  -19.8288   22.3265 N.ar    1  UNL1       -0.2195
     37 C         -10.6263  -19.3242   23.0601 C.ar    1  UNL1        0.1481
     38 C         -11.1105  -19.5392   24.4634 C.ar    1  UNL1        0.1480
     39 N         -10.3235  -20.4023   25.4044 N.pl3   1  UNL1       -0.3413
     40 N         -12.3818  -18.8910   24.9256 N.ar    1  UNL1       -0.2078
     41 C         -13.1688  -18.0279   23.9846 C.ar    1  UNL1        0.2015
     42 N         -12.6846  -17.8129   22.5813 N.ar    1  UNL1       -0.2048
     43 C         -11.4133  -18.4611   22.1190 C.ar    1  UNL1        0.1674
     44 H          -9.4891  -20.8278   25.1010 H       1  UNL1        0.1438
     45 H         -10.6414  -20.5434   26.3255 H       1  UNL1        0.1438
@<TRIPOS>BOND
     1    32    31    1
     2    32    33    1
     3    33    34    1
     4    34    35   ar
     5    35    36   ar
     6    36    37   ar
     7    37    38   ar
     8    38    39    1
     9    38    40   ar
    10    40    41   ar
    11    41    42   ar
    12    42    43   ar
    13    32    30    1
    14    30    29    1
    15    29    25    1
    16    25    26    2
    17    25    27    1
    18    25    24    1
    19    24     1    1
    20     1     2    1
    21     2     3    1
    22     3     4    1
    23     4     5    1
    24     5     6    1
    25     6     7    1
    26     7     8    1
    27     8     9    1
    28     9    10    1
    29    10    11    1
    30    11    12    1
    31    12    13    1
    32    13    14    1
    33    14    15    1
    34    15    16    1
    35    16    17    1
    36    17    18    1
    37    18    19    1
    38    19    20    1
    39    20    21    1
    40    20    22    1
    41    20    23    1
    42    43    34   ar
    43    43    37   ar
    44    39    44    1
    45    39    45    1
    46    27    28    1
@<TRIPOS>MOLECULE
*****
 45 46 0 0 0
SMALL
GASTEIGER

@<TRIPOS>ATOM
      1 C          -7.6973  -15.5819   27.1809 C.3     1  UNL1        0.1540
      2 C          -6.2431  -15.9489   27.2042 C.3     1  UNL1        0.0646
      3 C          -5.2716  -15.2207   26.3235 C.3     1  UNL1        0.1448
      4 O          -5.7470  -14.5749   25.0558 O.3     1  UNL1       -0.3537
      5 C          -5.6791  -15.3269   23.7597 C.3     1  UNL1        0.1422
      6 C          -4.8022  -16.5379   23.6403 C.3     1  UNL1        0.0321
      7 C          -5.3528  -17.8087   23.0639 C.3     1  UNL1        0.0026
      8 C          -6.6155  -17.7800   22.2548 C.3     1  UNL1        0.0001
      9 C          -7.4830  -19.0010   22.1748 C.3     1  UNL1        0.0000
     10 C          -6.8828  -20.3245   21.8029 C.3     1  UNL1        0.0000
     11 C          -6.5042  -20.6025   20.3784 C.3     1  UNL1        0.0000
     12 C          -5.3004  -21.4435   20.0728 C.3     1  UNL1        0.0000
     13 C          -3.9448  -20.8078   19.9818 C.3     1  UNL1        0.0000
     14 C          -3.7818  -19.3446   20.2686 C.3     1  UNL1        0.0000
     15 C          -4.1119  -18.3320   19.2124 C.3     1  UNL1        0.0000
     16 C          -3.0396  -17.4298   18.6772 C.3     1  UNL1        0.0000
     17 C          -1.6736  -17.9778   18.3881 C.3     1  UNL1        0.0003
     18 C          -0.5592  -17.7714   19.3706 C.3     1  UNL1        0.0088
     19 C          -0.7212  -16.7894   20.4930 C.3     1  UNL1        0.1033
     20 C          -1.4637  -17.1854   21.7347 C.3     1  UNL1        0.3978
     21 F          -2.2063  -17.5815   22.9764 F       1  UNL1       -0.1700
     22 F          -1.9871  -15.7860   21.8681 F       1  UNL1       -0.1700
     23 F          -0.9403  -18.5849   21.6013 F       1  UNL1       -0.1700
     24 O          -8.6823  -16.4643   26.4730 O.3     1  UNL1       -0.2925
     25 P          -9.0622  -16.1746   25.0511 P.3     1  UNL1        0.3697
     26 O          -9.2292  -14.7233   25.3915 O.2     1  UNL1       -0.2553
     27 O          -9.4420  -15.8849   23.6293 O.3     1  UNL1       -0.3218
     28 H          -9.6258  -14.9377   23.5303 H       1  UNL1        0.2198
     29 C          -8.8951  -17.6259   24.7108 C.3     1  UNL1        0.2579
     30 O          -9.6060  -18.6721   25.5172 O.3     1  UNL1       -0.3426
     31 C          -9.7145  -21.1044   24.6105 C.3     1  UNL1        0.0342
     32 C         -10.3610  -19.7680   24.8252 C.3     1  UNL1        0.1387
     33 C         -11.7626  -19.5275   24.3478 C.3     1  UNL1        0.1384
     34 N         -12.0367  -18.4537   23.3369 N.ar    1  UNL1       -0.2918
     35 C         -12.8822  -17.2338   23.5537 C.ar    1  UNL1        0.1798
     36 N         -12.8814  -16.4375   22.2825 N.ar    1  UNL1       -0.2195
     37 C         -12.0355  -17.1652   21.2801 C.ar    1  UNL1        0.1481
     38 C         -11.6731  -16.8542   19.8582 C.ar    1  UNL1        0.1480
     39 N         -12.1952  -15.6081   19.2065 N.pl3   1  UNL1       -0.3413
     40 N         -10.7887  -17.7892   19.0879 N.ar    1  UNL1       -0.2078
     41 C         -10.2666  -19.0354   19.7396 C.ar    1  UNL1        0.2015
     42 N         -10.6290  -19.3464   21.1615 N.ar    1  UNL1       -0.2048
     43 C         -11.5134  -18.4113   21.9318 C.ar    1  UNL1        0.1674
     44 H         -12.7757  -14.9943   19.7121 H       1  UNL1        0.1438
     45 H         -11.9574  -15.4039   18.2732 H       1  UNL1        0.1438
@<TRIPOS>BOND
     1    32    31    1
     2    32    33    1
     3    33    34    1
     4    34    35   ar
     5    35    36   ar
     6    36    37   ar
     7    37    38   ar
     8    38    39    1
     9    38    40   ar
    10    40    41   ar
    11    41    42   ar
    12    42    43   ar
    13    32    30    1
    14    30    29    1
    15    29    25    1
    16    25    26    2
    17    25    27    1
    18    25    24    1
    19    24     1    1
    20     1     2    1
    21     2     3    1
    22     3     4    1
    23     4     5    1
    24     5     6    1
    25     6     7    1
    26     7     8    1
    27     8     9    1
    28     9    10    1
    29    10    11    1
    30    11    12    1
    31    12    13    1
    32    13    14    1
    33    14    15    1
    34    15    16    1
    35    16    17    1
    36    17    18    1
    37    18    19    1
    38    19    20    1
    39    20    21    1
    40    20    22    1
    41    20    23    1
    42    43    34   ar
    43    43    37   ar
    44    39    44    1
    45    39    45    1
    46    27    28    1
@<TRIPOS>MOLECULE
*****
 45 46 0 0 0
SMALL
GASTEIGER

@<TRIPOS>ATOM
      1 C          -8.4452  -17.2781   21.7192 C.3     1  UNL1        0.1540
      2 C          -8.0908  -15.8225   21.7941 C.3     1  UNL1        0.0646
      3 C          -7.4592  -15.2673   23.0362 C.3     1  UNL1        0.1448
      4 O          -5.9656  -15.1784   23.1427 O.3     1  UNL1       -0.3537
      5 C          -5.2036  -16.2282   23.8958 C.3     1  UNL1        0.1422
      6 C          -4.9143  -16.0425   25.3559 C.3     1  UNL1        0.0321
      7 C          -5.8114  -15.1812   26.1946 C.3     1  UNL1        0.0026
      8 C          -6.5938  -15.7874   27.3217 C.3     1  UNL1        0.0001
      9 C          -8.0748  -15.5670   27.4104 C.3     1  UNL1        0.0000
     10 C          -8.8567  -15.2207   26.1780 C.3     1  UNL1        0.0000
     11 C          -9.2987  -16.3052   25.2408 C.3     1  UNL1        0.0000
     12 C          -8.9892  -17.7391   25.5539 C.3     1  UNL1        0.0000
     13 C         -10.0726  -18.7739   25.4793 C.3     1  UNL1        0.0000
     14 C          -9.8304  -20.0622   24.7501 C.3     1  UNL1        0.0000
     15 C         -10.5513  -20.3437   23.4652 C.3     1  UNL1        0.0000
     16 C         -11.4972  -19.3272   22.8977 C.3     1  UNL1        0.0000
     17 C         -12.4488  -18.6012   23.8016 C.3     1  UNL1        0.0003
     18 C         -13.0500  -17.2977   23.3663 C.3     1  UNL1        0.0088
     19 C         -12.1989  -16.2717   22.6786 C.3     1  UNL1        0.1033
     20 C         -12.2278  -16.1533   21.1836 C.3     1  UNL1        0.3978
     21 F         -12.2566  -16.0350   19.6885 F       1  UNL1       -0.1700
     22 F         -11.1016  -15.1641   21.2401 F       1  UNL1       -0.1700
     23 F         -13.3539  -17.1426   21.1271 F       1  UNL1       -0.1700
     24 O          -9.5981  -17.7266   20.8710 O.3     1  UNL1       -0.2925
     25 P          -9.4620  -18.9417   20.0021 P.3     1  UNL1        0.3697
     26 O         -10.7578  -18.6037   19.3264 O.2     1  UNL1       -0.2553
     27 O          -9.3259  -20.1568   19.1332 O.3     1  UNL1       -0.3218
     28 H         -10.0866  -20.2127   18.5340 H       1  UNL1        0.2198
     29 C          -8.1662  -19.2797   20.6778 C.3     1  UNL1        0.2579
     30 O          -7.0158  -19.8072   19.8728 O.3     1  UNL1       -0.3426
     31 C          -4.8748  -21.2498   20.1652 C.3     1  UNL1        0.0342
     32 C          -5.6870  -20.0419   20.5279 C.3     1  UNL1        0.1387
     33 C          -5.1703  -19.0687   21.5458 C.3     1  UNL1        0.1384
     34 N          -3.7036  -18.7616   21.6130 N.ar    1  UNL1       -0.2918
     35 C          -2.8587  -18.7614   22.8524 C.ar    1  UNL1        0.1798
     36 N          -1.4572  -18.4004   22.4578 N.ar    1  UNL1       -0.2195
     37 C          -1.4360  -18.1777   20.9746 C.ar    1  UNL1        0.1481
     38 C          -0.3318  -17.8004   20.0320 C.ar    1  UNL1        0.1480
     39 N           1.0565  -17.5771   20.5542 N.pl3   1  UNL1       -0.3413
     40 N          -0.6161  -17.6463   18.5673 N.ar    1  UNL1       -0.2078
     41 C          -2.0044  -17.8695   18.0452 C.ar    1  UNL1        0.2015
     42 N          -3.1086  -18.2468   18.9877 N.ar    1  UNL1       -0.2048
     43 C          -2.8243  -18.4009   20.4524 C.ar    1  UNL1        0.1674
     44 H           1.2430  -17.6783   21.5156 H       1  UNL1        0.1438
     45 H           1.7812  -17.3295   19.9355 H       1  UNL1        0.1438
@<TRIPOS>BOND
     1    32    31    1
     2    32    33    1
     3    33    34    1
     4    34    35   ar
     5    35    36   ar
     6    36    37   ar
     7    37    38   ar
     8    38    39    1
     9    38    40   ar
    10    40    41   ar
    11    41    42   ar
    12    42    43   ar
    13    32    30    1
    14    30    29    1
    15    29    25    1
    16    25    26    2
    17    25    27    1
    18    25    24    1
    19    24     1    1
    20     1     2    1
    21     2     3    1
    22     3     4    1
    23     4     5    1
    24     5     6    1
    25     6     7    1
    26     7     8    1
    27     8     9    1
    28     9    10    1
    29    10    11    1
    30    11    12    1
    31    12    13    1
    32    13    14    1
    33    14    15    1
    34    15    16    1
    35    16    17    1
    36    17    18    1
    37    18    19    1
    38    19    20    1
    39    20    21    1
    40    20    22    1
    41    20    23    1
    42    43    34   ar
    43    43    37   ar
    44    39    44    1
    45    39    45    1
    46    27    28    1
@<TRIPOS>MOLECULE
*****
 45 46 0 0 0
SMALL
GASTEIGER

@<TRIPOS>ATOM
      1 C           2.9461    0.7446   28.4809 C.3     1  UNL1        0.1540
      2 C           3.5934    0.3595   27.1837 C.3     1  UNL1        0.0646
      3 C           3.6345   -1.0801   26.7643 C.3     1  UNL1        0.1448
      4 O           4.2809   -1.4650   25.4667 O.3     1  UNL1       -0.3537
      5 C           3.5514   -1.2529   24.1733 C.3     1  UNL1        0.1422
      6 C           4.2026   -1.6266   22.8748 C.3     1  UNL1        0.0321
      7 C           4.7579   -3.0071   22.6842 C.3     1  UNL1        0.0026
      8 C           5.0588   -3.5104   21.3036 C.3     1  UNL1        0.0001
      9 C           4.0004   -4.2282   20.5197 C.3     1  UNL1        0.0000
     10 C           3.4957   -3.6459   19.2327 C.3     1  UNL1        0.0000
     11 C           4.4389   -2.9279   18.3136 C.3     1  UNL1        0.0000
     12 C           4.1569   -1.5121   17.9062 C.3     1  UNL1        0.0000
     13 C           5.1213   -0.4215   18.2674 C.3     1  UNL1        0.0000
     14 C           5.1996    0.0726   19.6815 C.3     1  UNL1        0.0000
     15 C           4.8304    1.4907   20.0020 C.3     1  UNL1        0.0000
     16 C           4.0506    2.3046   19.0123 C.3     1  UNL1        0.0000
     17 C           2.5621    2.4283   19.1500 C.3     1  UNL1        0.0003
     18 C           1.6586    1.5247   18.3644 C.3     1  UNL1        0.0088
     19 C           1.1080    0.2807   18.9965 C.3     1  UNL1        0.1033
     20 C           0.8831    0.2289   20.4786 C.3     1  UNL1        0.3978
     21 F           0.6581    0.1771   21.9607 F       1  UNL1       -0.1700
     22 F          -0.3042    1.1335   20.3300 F       1  UNL1       -0.1700
     23 F           2.0704   -0.6758   20.6271 F       1  UNL1       -0.1700
     24 O           1.5224    1.2163   28.4977 O.3     1  UNL1       -0.2925
     25 P           0.4358    0.3045   28.9855 P.3     1  UNL1        0.3697
     26 O           1.1465    0.1601   30.2985 O.2     1  UNL1       -0.2553
     27 O          -0.6508   -0.6073   29.4733 O.3     1  UNL1       -0.3218
     28 H          -0.4517   -0.8919   30.3790 H       1  UNL1        0.2198
     29 C          -0.2749    0.4490   27.6725 C.3     1  UNL1        0.2579
     30 O          -1.0630    1.6909   27.3789 O.3     1  UNL1       -0.3426
     31 C          -0.1522    1.7056   24.9457 C.3     1  UNL1        0.0342
     32 C          -0.9340    2.3631   26.0441 C.3     1  UNL1        0.1387
     33 C          -1.5869    3.6928   25.8077 C.3     1  UNL1        0.1384
     34 N          -3.0390    3.7601   25.4377 N.ar    1  UNL1       -0.2918
     35 C          -4.1874    3.8907   26.3938 C.ar    1  UNL1        0.1798
     36 N          -5.4557    3.9199   25.5936 N.ar    1  UNL1       -0.2195
     37 C          -5.0913    3.8075   24.1429 C.ar    1  UNL1        0.1481
     38 C          -5.9265    3.7822   22.8972 C.ar    1  UNL1        0.1480
     39 N          -7.4201    3.8810   22.9935 N.pl3   1  UNL1       -0.3413
     40 N          -5.2681    3.6582   21.5552 N.ar    1  UNL1       -0.2078
     41 C          -3.7744    3.5595   21.4588 C.ar    1  UNL1        0.2015
     42 N          -2.9392    3.5847   22.7045 N.ar    1  UNL1       -0.2048
     43 C          -3.5976    3.7087   24.0465 C.ar    1  UNL1        0.1674
     44 H          -7.8523    3.9624   23.8744 H       1  UNL1        0.1438
     45 H          -7.9683    3.8645   22.1759 H       1  UNL1        0.1438
@<TRIPOS>BOND
     1    32    31    1
     2    32    33    1
     3    33    34    1
     4    34    35   ar
     5    35    36   ar
     6    36    37   ar
     7    37    38   ar
     8    38    39    1
     9    38    40   ar
    10    40    41   ar
    11    41    42   ar
    12    42    43   ar
    13    32    30    1
    14    30    29    1
    15    29    25    1
    16    25    26    2
    17    25    27    1
    18    25    24    1
    19    24     1    1
    20     1     2    1
    21     2     3    1
    22     3     4    1
    23     4     5    1
    24     5     6    1
    25     6     7    1
    26     7     8    1
    27     8     9    1
    28     9    10    1
    29    10    11    1
    30    11    12    1
    31    12    13    1
    32    13    14    1
    33    14    15    1
    34    15    16    1
    35    16    17    1
    36    17    18    1
    37    18    19    1
    38    19    20    1
    39    20    21    1
    40    20    22    1
    41    20    23    1
    42    43    34   ar
    43    43    37   ar
    44    39    44    1
    45    39    45    1
    46    27    28    1
@<TRIPOS>MOLECULE
*****
 45 46 0 0 0
SMALL
GASTEIGER

@<TRIPOS>ATOM
      1 C           6.5062   -4.8431   28.5753 C.3     1  UNL1        0.1540
      2 C           7.0194   -4.5914   27.1885 C.3     1  UNL1        0.0646
      3 C           6.9490   -5.6758   26.1545 C.3     1  UNL1        0.1448
      4 O           7.6174   -5.4887   24.8248 O.3     1  UNL1       -0.3537
      5 C           7.2790   -4.2993   23.9759 C.3     1  UNL1        0.1422
      6 C           5.8551   -4.0397   23.5819 C.3     1  UNL1        0.0321
      7 C           5.5505   -3.3173   22.3030 C.3     1  UNL1        0.0026
      8 C           6.5669   -3.2834   21.2003 C.3     1  UNL1        0.0001
      9 C           7.1382   -1.9727   20.7468 C.3     1  UNL1        0.0000
     10 C           7.0498   -0.7681   21.6363 C.3     1  UNL1        0.0000
     11 C           5.8047    0.0683   21.6446 C.3     1  UNL1        0.0000
     12 C           5.0013    0.2048   22.9039 C.3     1  UNL1        0.0000
     13 C           3.5147    0.0076   22.8702 C.3     1  UNL1        0.0000
     14 C           2.6833    0.7425   21.8610 C.3     1  UNL1        0.0000
     15 C           1.5969    0.0233   21.1177 C.3     1  UNL1        0.0000
     16 C           1.9475   -1.0496   20.1298 C.3     1  UNL1        0.0000
     17 C           3.2355   -0.9730   19.3649 C.3     1  UNL1        0.0003
     18 C           3.8712   -2.2257   18.8391 C.3     1  UNL1        0.0088
     19 C           3.3751   -3.5664   19.2937 C.3     1  UNL1        0.1033
     20 C           4.1533   -4.8055   18.9635 C.3     1  UNL1        0.3978
     21 F           4.9315   -6.0446   18.6334 F       1  UNL1       -0.1700
     22 F           5.1259   -3.9835   18.1708 F       1  UNL1       -0.1700
     23 F           3.1807   -5.6275   19.7563 F       1  UNL1       -0.1700
     24 O           7.4559   -4.8524   29.7363 O.3     1  UNL1       -0.2925
     25 P           6.9274   -4.9477   31.1368 P.3     1  UNL1        0.3697
     26 O           7.3589   -6.3828   31.2020 O.2     1  UNL1       -0.2553
     27 O           6.3989   -5.0431   32.5374 O.3     1  UNL1       -0.3218
     28 H           6.5481   -5.9386   32.8790 H       1  UNL1        0.2198
     29 C           6.4958   -3.5126   31.0717 C.3     1  UNL1        0.2579
     30 O           7.5191   -2.4284   30.9068 O.3     1  UNL1       -0.3426
     31 C           8.2066   -1.3295   28.6551 C.3     1  UNL1        0.0342
     32 C           7.3239   -1.3646   29.8674 C.3     1  UNL1        0.1387
     33 C           6.2460   -0.3358   30.0404 C.3     1  UNL1        0.1384
     34 N           4.8952   -0.5542   29.4259 N.ar    1  UNL1       -0.2918
     35 C           4.5956   -1.4249   28.2418 C.ar    1  UNL1        0.1798
     36 N           3.1221   -1.3491   27.9718 N.ar    1  UNL1       -0.2195
     37 C           2.5110   -0.4316   28.9890 C.ar    1  UNL1        0.1481
     38 C           1.0982    0.0201   29.2130 C.ar    1  UNL1        0.1480
     39 N           0.0024   -0.4712   28.3143 N.pl3   1  UNL1       -0.3413
     40 N           0.7814    0.9629   30.3358 N.ar    1  UNL1       -0.2078
     41 C           1.8773    1.4542   31.2345 C.ar    1  UNL1        0.2015
     42 N           3.2900    1.0026   31.0105 N.ar    1  UNL1       -0.2048
     43 C           3.6068    0.0597   29.8878 C.ar    1  UNL1        0.1674
     44 H           0.2103   -1.0900   27.5774 H       1  UNL1        0.1438
     45 H          -0.9249   -0.1748   28.4613 H       1  UNL1        0.1438
@<TRIPOS>BOND
     1    32    31    1
     2    32    33    1
     3    33    34    1
     4    34    35   ar
     5    35    36   ar
     6    36    37   ar
     7    37    38   ar
     8    38    39    1
     9    38    40   ar
    10    40    41   ar
    11    41    42   ar
    12    42    43   ar
    13    32    30    1
    14    30    29    1
    15    29    25    1
    16    25    26    2
    17    25    27    1
    18    25    24    1
    19    24     1    1
    20     1     2    1
    21     2     3    1
    22     3     4    1
    23     4     5    1
    24     5     6    1
    25     6     7    1
    26     7     8    1
    27     8     9    1
    28     9    10    1
    29    10    11    1
    30    11    12    1
    31    12    13    1
    32    13    14    1
    33    14    15    1
    34    15    16    1
    35    16    17    1
    36    17    18    1
    37    18    19    1
    38    19    20    1
    39    20    21    1
    40    20    22    1
    41    20    23    1
    42    43    34   ar
    43    43    37   ar
    44    39    44    1
    45    39    45    1
    46    27    28    1
