@<TRIPOS>MOLECULE
*****
 21 22 0 0 0
SMALL
GASTEIGER

@<TRIPOS>ATOM
      1 C         -12.2413  -17.2558   22.1775 C.2     1  UNL1        0.2256
      2 O         -12.2590  -15.9292   21.4778 O.2     1  UNL1       -0.2749
      3 N         -10.9647  -18.0379   22.2702 N.am    1  UNL1       -0.2789
      4 C         -10.9471  -19.3646   22.9699 C.3     1  UNL1        0.0978
      5 C          -9.6705  -20.1467   23.0626 C.3     1  UNL1        0.0442
      6 C          -8.4116  -19.6022   22.4555 C.2     1  UNL1       -0.0326
      7 C          -7.1350  -20.3843   22.5482 C.2     1  UNL1        0.0412
      8 C          -8.4292  -18.2756   21.7558 C.3     1  UNL1        0.0442
      9 C          -9.7058  -17.4934   21.6631 C.3     1  UNL1        0.0978
     10 C          -5.8761  -19.8398   21.9412 C.1     1  UNL1       -0.0583
     11 C          -4.6170  -19.2953   21.3341 C.1     1  UNL1       -0.0405
     12 C          -3.3581  -18.7508   20.7271 C.ar    1  UNL1        0.1224
     13 C          -2.1057  -18.6646   21.5483 C.ar    1  UNL1        0.0276
     14 C          -0.8468  -18.1201   20.9412 C.ar    1  UNL1        0.0034
     15 C          -0.8401  -17.6618   19.5130 C.ar    1  UNL1        0.0148
     16 C          -2.0924  -17.7480   18.6918 C.ar    1  UNL1        0.0600
     17 C          -2.0857  -17.2896   17.2635 C.3     1  UNL1        0.0521
     18 N          -3.3514  -18.2925   19.2988 N.ar    1  UNL1       -0.2414
     19 C         -13.5003  -17.8003   22.7846 C.3     1  UNL1        0.0853
     20 C         -14.8432  -18.4940   24.8977 C.3     1  UNL1        0.0005
     21 C         -13.6937  -17.7614   24.2715 C.3     1  UNL1        0.0096
@<TRIPOS>BOND
     1    20    21    1
     2    21    19    1
     3    19     1    1
     4     1     2    2
     5     1     3   am
     6     3     4    1
     7     4     5    1
     8     5     6    1
     9     6     7    2
    10     7    10    1
    11    10    11    3
    12    11    12    1
    13    12    13   ar
    14    13    14   ar
    15    14    15   ar
    16    15    16   ar
    17    16    17    1
    18    16    18   ar
    19     6     8    1
    20     8     9    1
    21     9     3    1
    22    18    12   ar
@<TRIPOS>MOLECULE
*****
 21 22 0 0 0
SMALL
GASTEIGER

@<TRIPOS>ATOM
      1 C           4.1119   -1.3451   17.8469 C.2     1  UNL1        0.2256
      2 O           3.9898   -1.1749   16.3616 O.2     1  UNL1       -0.2749
      3 N           3.1528   -0.6450   18.7633 N.am    1  UNL1       -0.2789
      4 C           3.2749   -0.8151   20.2486 C.3     1  UNL1        0.0978
      5 C           2.3158   -0.1150   21.1651 C.3     1  UNL1        0.0442
      6 C           1.2345    0.7552   20.5963 C.2     1  UNL1       -0.0326
      7 C           0.2754    1.4553   21.5128 C.2     1  UNL1        0.0412
      8 C           1.1124    0.9254   19.1110 C.3     1  UNL1        0.0442
      9 C           2.0716    0.2253   18.1945 C.3     1  UNL1        0.0978
     10 C          -0.8058    2.3255   20.9440 C.1     1  UNL1       -0.0583
     11 C          -1.8871    3.1958   20.3751 C.1     1  UNL1       -0.0405
     12 C          -2.9683    4.0661   19.8063 C.ar    1  UNL1        0.1224
     13 C          -2.6825    5.5027   19.4830 C.ar    1  UNL1        0.0276
     14 C          -3.7637    6.3729   18.9142 C.ar    1  UNL1        0.0034
     15 C          -5.1308    5.8066   18.6687 C.ar    1  UNL1        0.0148
     16 C          -5.4167    4.3701   18.9920 C.ar    1  UNL1        0.0600
     17 C          -6.7838    3.8038   18.7465 C.3     1  UNL1        0.0521
     18 N          -4.3355    3.4998   19.5608 N.ar    1  UNL1       -0.2414
     19 C           5.1931   -2.2153   18.4157 C.3     1  UNL1        0.0853
     20 C           3.6536   -4.2089   19.0525 C.3     1  UNL1        0.0005
     21 C           4.9713   -3.6922   18.5556 C.3     1  UNL1        0.0096
@<TRIPOS>BOND
     1    20    21    1
     2    21    19    1
     3    19     1    1
     4     1     2    2
     5     1     3   am
     6     3     4    1
     7     4     5    1
     8     5     6    1
     9     6     7    2
    10     7    10    1
    11    10    11    3
    12    11    12    1
    13    12    13   ar
    14    13    14   ar
    15    14    15   ar
    16    15    16   ar
    17    16    17    1
    18    16    18   ar
    19     6     8    1
    20     8     9    1
    21     9     3    1
    22    18    12   ar
@<TRIPOS>MOLECULE
*****
 21 22 0 0 0
SMALL
GASTEIGER

@<TRIPOS>ATOM
      1 C           5.0124   -3.2614   20.0494 C.2     1  UNL1        0.2256
      2 O           5.7292   -4.1631   21.0102 O.2     1  UNL1       -0.2749
      3 N           4.0802   -2.2054   20.5650 N.am    1  UNL1       -0.2789
      4 C           3.3634   -1.3038   19.6042 C.3     1  UNL1        0.0978
      5 C           2.4312   -0.2478   20.1197 C.3     1  UNL1        0.0442
      6 C           2.2157   -0.0935   21.5961 C.2     1  UNL1       -0.0326
      7 C           1.2834    0.9625   22.1116 C.2     1  UNL1        0.0412
      8 C           2.9324   -0.9952   22.5569 C.3     1  UNL1        0.0442
      9 C           3.8647   -2.0511   22.0413 C.3     1  UNL1        0.0978
     10 C           1.0679    1.1168   23.5880 C.1     1  UNL1       -0.0583
     11 C           0.8524    1.2711   25.0645 C.1     1  UNL1       -0.0405
     12 C           0.6369    1.4254   26.5408 C.ar    1  UNL1        0.1224
     13 C           1.5224    2.3379   27.3367 C.ar    1  UNL1        0.0276
     14 C           1.3069    2.4922   28.8131 C.ar    1  UNL1        0.0034
     15 C           0.2059    1.7340   29.4936 C.ar    1  UNL1        0.0148
     16 C          -0.6795    0.8216   28.6978 C.ar    1  UNL1        0.0600
     17 C          -1.7804    0.0634   29.3784 C.3     1  UNL1        0.0521
     18 N          -0.4640    0.6672   27.2214 N.ar    1  UNL1       -0.2414
     19 C           5.2279   -3.4157   18.5730 C.3     1  UNL1        0.0853
     20 C           7.4805   -2.1211   18.5833 C.3     1  UNL1        0.0005
     21 C           6.2359   -2.5569   17.8684 C.3     1  UNL1        0.0096
@<TRIPOS>BOND
     1    20    21    1
     2    21    19    1
     3    19     1    1
     4     1     2    2
     5     1     3   am
     6     3     4    1
     7     4     5    1
     8     5     6    1
     9     6     7    2
    10     7    10    1
    11    10    11    3
    12    11    12    1
    13    12    13   ar
    14    13    14   ar
    15    14    15   ar
    16    15    16   ar
    17    16    17    1
    18    16    18   ar
    19     6     8    1
    20     8     9    1
    21     9     3    1
    22    18    12   ar
@<TRIPOS>MOLECULE
*****
 21 22 0 0 0
SMALL
GASTEIGER

@<TRIPOS>ATOM
      1 C           5.3866   -0.8163   31.0542 C.2     1  UNL1        0.2256
      2 O           4.3075    0.2202   30.9490 O.2     1  UNL1       -0.2749
      3 N           5.7795   -1.6151   29.8468 N.am    1  UNL1       -0.2789
      4 C           6.8586   -2.6516   29.9520 C.3     1  UNL1        0.0978
      5 C           7.2516   -3.4503   28.7446 C.3     1  UNL1        0.0442
      6 C           6.5654   -3.2125   27.4322 C.2     1  UNL1       -0.0326
      7 C           6.9583   -4.0113   26.2249 C.2     1  UNL1        0.0412
      8 C           5.4863   -2.1760   27.3271 C.3     1  UNL1        0.0442
      9 C           5.0933   -1.3773   28.5344 C.3     1  UNL1        0.0978
     10 C           6.2721   -3.7735   24.9124 C.1     1  UNL1       -0.0583
     11 C           5.5859   -3.5357   23.5999 C.1     1  UNL1       -0.0405
     12 C           4.8997   -3.2979   22.2875 C.ar    1  UNL1        0.1224
     13 C           4.0800   -2.0583   22.0834 C.ar    1  UNL1        0.0276
     14 C           3.3938   -1.8205   20.7710 C.ar    1  UNL1        0.0034
     15 C           3.5273   -2.8223   19.6625 C.ar    1  UNL1        0.0148
     16 C           4.3469   -4.0619   19.8665 C.ar    1  UNL1        0.0600
     17 C           4.4803   -5.0637   18.7581 C.3     1  UNL1        0.0521
     18 N           5.0331   -4.2997   21.1791 N.ar    1  UNL1       -0.2414
     19 C           6.0728   -1.0541   32.3666 C.3     1  UNL1        0.0853
     20 C           4.3546   -2.7829   33.2662 C.3     1  UNL1        0.0005
     21 C           5.3134   -1.6557   33.5118 C.3     1  UNL1        0.0096
@<TRIPOS>BOND
     1    20    21    1
     2    21    19    1
     3    19     1    1
     4     1     2    2
     5     1     3   am
     6     3     4    1
     7     4     5    1
     8     5     6    1
     9     6     7    2
    10     7    10    1
    11    10    11    3
    12    11    12    1
    13    12    13   ar
    14    13    14   ar
    15    14    15   ar
    16    15    16   ar
    17    16    17    1
    18    16    18   ar
    19     6     8    1
    20     8     9    1
    21     9     3    1
    22    18    12   ar
@<TRIPOS>MOLECULE
*****
 21 22 0 0 0
SMALL
GASTEIGER

@<TRIPOS>ATOM
      1 C           4.0295   -2.4248   18.9860 C.2     1  UNL1        0.2256
      2 O           3.3451   -3.6005   19.6178 O.2     1  UNL1       -0.2749
      3 N           3.3395   -1.0939   18.9346 N.am    1  UNL1       -0.2789
      4 C           4.0240    0.0818   18.3028 C.3     1  UNL1        0.0978
      5 C           3.3340    1.4127   18.2514 C.3     1  UNL1        0.0442
      6 C           1.9596    1.5679   18.8317 C.2     1  UNL1       -0.0326
      7 C           1.2696    2.8987   18.7803 C.2     1  UNL1        0.0412
      8 C           1.2751    0.3921   19.4635 C.3     1  UNL1        0.0442
      9 C           1.9651   -0.9388   19.5149 C.3     1  UNL1        0.0978
     10 C          -0.1048    3.0539   19.3606 C.1     1  UNL1       -0.0583
     11 C          -1.4794    3.2091   19.9409 C.1     1  UNL1       -0.0405
     12 C          -2.8538    3.3643   20.5212 C.ar    1  UNL1        0.1224
     13 C          -4.0199    3.6496   19.6218 C.ar    1  UNL1        0.0276
     14 C          -5.3943    3.8048   20.2021 C.ar    1  UNL1        0.0034
     15 C          -5.6027    3.6747   21.6819 C.ar    1  UNL1        0.0148
     16 C          -4.4367    3.3894   22.5813 C.ar    1  UNL1        0.0600
     17 C          -4.6451    3.2593   24.0610 C.3     1  UNL1        0.0521
     18 N          -3.0622    3.2342   22.0010 N.ar    1  UNL1       -0.2414
     19 C           5.4039   -2.5800   18.4057 C.3     1  UNL1        0.0853
     20 C           6.5666   -1.6694   20.5433 C.3     1  UNL1        0.0005
     21 C           6.6076   -2.5040   19.2976 C.3     1  UNL1        0.0096
@<TRIPOS>BOND
     1    20    21    1
     2    21    19    1
     3    19     1    1
     4     1     2    2
     5     1     3   am
     6     3     4    1
     7     4     5    1
     8     5     6    1
     9     6     7    2
    10     7    10    1
    11    10    11    3
    12    11    12    1
    13    12    13   ar
    14    13    14   ar
    15    14    15   ar
    16    15    16   ar
    17    16    17    1
    18    16    18   ar
    19     6     8    1
    20     8     9    1
    21     9     3    1
    22    18    12   ar
@<TRIPOS>MOLECULE
*****
 21 22 0 0 0
SMALL
GASTEIGER

@<TRIPOS>ATOM
      1 C           7.5728   -5.8539   26.1156 C.2     1  UNL1        0.2256
      2 O           6.9879   -4.9504   25.0708 O.2     1  UNL1       -0.2749
      3 N           7.4021   -5.5280   27.5698 N.am    1  UNL1       -0.2789
      4 C           7.9870   -6.4315   28.6145 C.3     1  UNL1        0.0978
      5 C           7.8163   -6.1056   30.0687 C.3     1  UNL1        0.0442
      6 C           7.0607   -4.8763   30.4781 C.2     1  UNL1       -0.0326
      7 C           6.8899   -4.5504   31.9323 C.2     1  UNL1        0.0412
      8 C           6.4757   -3.9728   29.4334 C.3     1  UNL1        0.0442
      9 C           6.6464   -4.2987   27.9792 C.3     1  UNL1        0.0978
     10 C           6.1343   -3.3210   32.3418 C.1     1  UNL1       -0.0583
     11 C           5.3786   -2.0916   32.7512 C.1     1  UNL1       -0.0405
     12 C           4.6229   -0.8623   33.1606 C.ar    1  UNL1        0.1224
     13 C           4.8793   -0.2353   34.4990 C.ar    1  UNL1        0.0276
     14 C           4.1237    0.9940   34.9085 C.ar    1  UNL1        0.0034
     15 C           3.1116    1.5964   33.9796 C.ar    1  UNL1        0.0148
     16 C           2.8553    0.9695   32.6412 C.ar    1  UNL1        0.0600
     17 C           1.8432    1.5720   31.7123 C.3     1  UNL1        0.0521
     18 N           3.6109   -0.2599   32.2317 N.ar    1  UNL1       -0.2414
     19 C           8.3284   -7.0832   25.7061 C.3     1  UNL1        0.0853
     20 C           9.2592   -7.0946   23.2805 C.3     1  UNL1        0.0005
     21 C           8.2564   -7.5708   24.2894 C.3     1  UNL1        0.0096
@<TRIPOS>BOND
     1    20    21    1
     2    21    19    1
     3    19     1    1
     4     1     2    2
     5     1     3   am
     6     3     4    1
     7     4     5    1
     8     5     6    1
     9     6     7    2
    10     7    10    1
    11    10    11    3
    12    11    12    1
    13    12    13   ar
    14    13    14   ar
    15    14    15   ar
    16    15    16   ar
    17    16    17    1
    18    16    18   ar
    19     6     8    1
    20     8     9    1
    21     9     3    1
    22    18    12   ar
@<TRIPOS>MOLECULE
*****
 21 22 0 0 0
SMALL
GASTEIGER

@<TRIPOS>ATOM
      1 C           1.5714    1.1053   28.2443 C.2     1  UNL1        0.2256
      2 O           2.7217    0.3771   28.8739 O.2     1  UNL1       -0.2749
      3 N           1.3922    1.0796   26.7553 N.am    1  UNL1       -0.2789
      4 C           0.2419    1.8078   26.1256 C.3     1  UNL1        0.0978
      5 C           0.0627    1.7821   24.6366 C.3     1  UNL1        0.0442
      6 C           1.0337    1.0282   23.7772 C.2     1  UNL1       -0.0326
      7 C           0.8545    1.0025   22.2882 C.2     1  UNL1        0.0412
      8 C           2.1840    0.3000   24.4068 C.3     1  UNL1        0.0442
      9 C           2.3633    0.3257   25.8959 C.3     1  UNL1        0.0978
     10 C           1.8256    0.2486   21.4288 C.1     1  UNL1       -0.0583
     11 C           2.7966   -0.5054   20.5693 C.1     1  UNL1       -0.0405
     12 C           3.7677   -1.2593   19.7099 C.ar    1  UNL1        0.1224
     13 C           4.7890   -0.5150   18.9018 C.ar    1  UNL1        0.0276
     14 C           5.7600   -1.2689   18.0424 C.ar    1  UNL1        0.0034
     15 C           5.7099   -2.7672   17.9911 C.ar    1  UNL1        0.0148
     16 C           4.6887   -3.5115   18.7991 C.ar    1  UNL1        0.0600
     17 C           4.6385   -5.0098   18.7478 C.3     1  UNL1        0.0521
     18 N           3.7175   -2.7576   19.6586 N.ar    1  UNL1       -0.2414
     19 C           0.6004    1.8592   29.1037 C.3     1  UNL1        0.0853
     20 C          -1.2235    0.0111   29.0135 C.3     1  UNL1        0.0005
     21 C          -0.5543    1.1416   29.7376 C.3     1  UNL1        0.0096
@<TRIPOS>BOND
     1    20    21    1
     2    21    19    1
     3    19     1    1
     4     1     2    2
     5     1     3   am
     6     3     4    1
     7     4     5    1
     8     5     6    1
     9     6     7    2
    10     7    10    1
    11    10    11    3
    12    11    12    1
    13    12    13   ar
    14    13    14   ar
    15    14    15   ar
    16    15    16   ar
    17    16    17    1
    18    16    18   ar
    19     6     8    1
    20     8     9    1
    21     9     3    1
    22    18    12   ar
@<TRIPOS>MOLECULE
*****
 21 22 0 0 0
SMALL
GASTEIGER

@<TRIPOS>ATOM
      1 C           5.2433   -3.3778   20.9321 C.2     1  UNL1        0.2256
      2 O           6.0297   -4.1536   21.9468 O.2     1  UNL1       -0.2749
      3 N           4.2911   -2.3084   21.3790 N.am    1  UNL1       -0.2789
      4 C           3.5047   -1.5326   20.3643 C.3     1  UNL1        0.0978
      5 C           2.5525   -0.4632   20.8111 C.3     1  UNL1        0.0442
      6 C           2.3867   -0.1696   22.2727 C.2     1  UNL1       -0.0326
      7 C           1.4344    0.8998   22.7195 C.2     1  UNL1        0.0412
      8 C           3.1730   -0.9454   23.2874 C.3     1  UNL1        0.0442
      9 C           4.1252   -2.0148   22.8405 C.3     1  UNL1        0.0978
     10 C           1.2686    1.1934   24.1811 C.1     1  UNL1       -0.0583
     11 C           1.1027    1.4870   25.6428 C.1     1  UNL1       -0.0405
     12 C           0.9369    1.7806   27.1043 C.ar    1  UNL1        0.1224
     13 C           0.7710    0.6546   28.0815 C.ar    1  UNL1        0.0276
     14 C           0.6052    0.9482   29.5430 C.ar    1  UNL1        0.0034
     15 C           0.6053    2.3678   30.0276 C.ar    1  UNL1        0.0148
     16 C           0.7711    3.4938   29.0506 C.ar    1  UNL1        0.0600
     17 C           0.7712    4.9134   29.5351 C.3     1  UNL1        0.0521
     18 N           0.9370    3.2002   27.5889 N.ar    1  UNL1       -0.2414
     19 C           5.4091   -3.6714   19.4705 C.3     1  UNL1        0.0853
     20 C           3.3327   -5.2327   19.5028 C.3     1  UNL1        0.0005
     21 C           4.5679   -4.7279   18.8176 C.3     1  UNL1        0.0096
@<TRIPOS>BOND
     1    20    21    1
     2    21    19    1
     3    19     1    1
     4     1     2    2
     5     1     3   am
     6     3     4    1
     7     4     5    1
     8     5     6    1
     9     6     7    2
    10     7    10    1
    11    10    11    3
    12    11    12    1
    13    12    13   ar
    14    13    14   ar
    15    14    15   ar
    16    15    16   ar
    17    16    17    1
    18    16    18   ar
    19     6     8    1
    20     8     9    1
    21     9     3    1
    22    18    12   ar
@<TRIPOS>MOLECULE
*****
 21 22 0 0 0
SMALL
GASTEIGER

@<TRIPOS>ATOM
      1 C           4.3750   -3.3553   20.0782 C.2     1  UNL1        0.2256
      2 O           5.0412   -4.6648   19.7760 O.2     1  UNL1       -0.2749
      3 N           4.3880   -2.8122   21.4764 N.am    1  UNL1       -0.2789
      4 C           3.7218   -1.5027   21.7785 C.3     1  UNL1        0.0978
      5 C           3.7349   -0.9596   23.1767 C.3     1  UNL1        0.0442
      6 C           4.4141   -1.7259   24.2727 C.2     1  UNL1       -0.0326
      7 C           4.4272   -1.1828   25.6708 C.2     1  UNL1        0.0412
      8 C           5.0804   -3.0354   23.9705 C.3     1  UNL1        0.0442
      9 C           5.0673   -3.5785   22.5723 C.3     1  UNL1        0.0978
     10 C           5.1065   -1.9491   26.7668 C.1     1  UNL1       -0.0583
     11 C           5.7858   -2.7155   27.8629 C.1     1  UNL1       -0.0405
     12 C           6.4651   -3.4819   28.9588 C.ar    1  UNL1        0.1224
     13 C           6.5477   -4.9780   28.8880 C.ar    1  UNL1        0.0276
     14 C           7.2270   -5.7443   29.9840 C.ar    1  UNL1        0.0034
     15 C           7.8237   -5.0147   31.1509 C.ar    1  UNL1        0.0148
     16 C           7.7411   -3.5187   31.2217 C.ar    1  UNL1        0.0600
     17 C           8.3378   -2.7890   32.3886 C.3     1  UNL1        0.0521
     18 N           7.0618   -2.7522   30.1257 N.ar    1  UNL1       -0.2414
     19 C           3.6957   -2.5889   18.9822 C.3     1  UNL1        0.0853
     20 C           3.8330   -0.8313   17.0738 C.3     1  UNL1        0.0005
     21 C           4.5105   -1.7845   18.0132 C.3     1  UNL1        0.0096
@<TRIPOS>BOND
     1    20    21    1
     2    21    19    1
     3    19     1    1
     4     1     2    2
     5     1     3   am
     6     3     4    1
     7     4     5    1
     8     5     6    1
     9     6     7    2
    10     7    10    1
    11    10    11    3
    12    11    12    1
    13    12    13   ar
    14    13    14   ar
    15    14    15   ar
    16    15    16   ar
    17    16    17    1
    18    16    18   ar
    19     6     8    1
    20     8     9    1
    21     9     3    1
    22    18    12   ar
