@<TRIPOS>MOLECULE
*****
 37 40 0 0 0
SMALL
GASTEIGER

@<TRIPOS>ATOM
      1 C           8.2164   -6.6899   24.3311 C.3     1  UNL1        0.0553
      2 C           7.5900   -5.4573   23.7494 C.ar    1  UNL1        0.0939
      3 N           7.6750   -5.0166   22.3181 N.ar    1  UNL1       -0.1721
      4 N           6.9062   -3.7360   22.1809 N.ar    1  UNL1       -0.2463
      5 C           6.3461   -3.3851   23.5274 C.ar    1  UNL1        0.1112
      6 C           6.7687   -4.4490   24.4968 C.ar    1  UNL1        0.0850
      7 N           6.4295   -4.4961   25.9572 N.am    1  UNL1       -0.2769
      8 C           7.4444   -4.0722   26.9769 C.2     1  UNL1        0.2706
      9 O           8.7986   -3.6010   26.5364 O.2     1  UNL1       -0.2680
     10 H           5.5406   -4.8054   26.2463 H       1  UNL1        0.1553
     11 C           7.1052   -4.1194   28.4373 C.ar    1  UNL1        0.1764
     12 C           6.8208   -2.9367   29.3150 C.ar    1  UNL1        0.0688
     13 C           6.5306   -3.4438   30.6966 C.ar    1  UNL1        0.1945
     14 O           6.6358   -4.9399   30.6726 O.2     1  UNL1       -0.3517
     15 N           6.9909   -5.3575   29.2764 N.ar    1  UNL1       -0.0722
     16 C           6.1944   -2.6026   31.8921 C.ar    1  UNL1        0.1184
     17 C           7.1948   -1.6184   32.4219 C.ar    1  UNL1        0.0223
     18 C           6.8586   -0.7772   33.6174 C.ar    1  UNL1        0.0032
     19 C           5.5220   -0.9201   34.2831 C.ar    1  UNL1        0.0207
     20 C           4.5216   -1.9042   33.7532 C.ar    1  UNL1        0.0989
     21 N           4.8579   -2.7454   32.5577 N.ar    1  UNL1       -0.2407
     22 C           6.7287   -2.9450   20.9188 C.3     1  UNL1        0.1274
     23 C           7.8384   -2.8807   19.9116 C.3     1  UNL1        0.0312
     24 C           5.4414   -2.2183   20.6638 C.ar    1  UNL1        0.0038
     25 C           5.2516   -0.8241   21.1835 C.ar    1  UNL1       -0.0025
     26 C           3.9644   -0.0975   20.9286 C.ar    1  UNL1        0.0036
     27 C           2.8670   -0.7651   20.1540 C.ar    1  UNL1        0.0714
     28 C           3.0568   -2.1593   19.6343 C.ar    1  UNL1        0.0074
     29 C           4.3440   -2.8859   19.8892 C.ar    1  UNL1        0.0692
     30 C           1.5797   -0.0384   19.8990 C.3     1  UNL1        0.4186
     31 F           0.2925    0.6882   19.6441 F       1  UNL1       -0.1659
     32 F           2.3446    1.2252   19.6382 F       1  UNL1       -0.1659
     33 F           0.8148   -1.3020   20.1598 F       1  UNL1       -0.1659
     34 C           4.5339   -4.2802   19.3695 C.3     1  UNL1        0.4183
     35 F           4.7238   -5.6744   18.8498 F       1  UNL1       -0.1659
     36 F           5.1444   -3.7294   18.1150 F       1  UNL1       -0.1659
     37 F           3.9234   -4.8310   20.6240 F       1  UNL1       -0.1659
@<TRIPOS>BOND
     1     1     2    1
     2     2     3   ar
     3     3     4   ar
     4     4    22    1
     5    22    23    1
     6    22    24    1
     7    24    25   ar
     8    25    26   ar
     9    26    27   ar
    10    27    30    1
    11    30    31    1
    12    30    32    1
    13    30    33    1
    14    27    28   ar
    15    28    29   ar
    16    29    34    1
    17    34    35    1
    18    34    36    1
    19    34    37    1
    20     4     5   ar
    21     5     6   ar
    22     6     7    1
    23     7     8   am
    24     8     9    2
    25     8    11    1
    26    11    12   ar
    27    12    13   ar
    28    13    16    1
    29    16    17   ar
    30    17    18   ar
    31    18    19   ar
    32    19    20   ar
    33    20    21   ar
    34    13    14   ar
    35    14    15   ar
    36     6     2   ar
    37    15    11   ar
    38    29    24   ar
    39    21    16   ar
    40     7    10    1
@<TRIPOS>MOLECULE
*****
 37 40 0 0 0
SMALL
GASTEIGER

@<TRIPOS>ATOM
      1 C          -0.7283    2.0712   24.9961 C.3     1  UNL1        0.0553
      2 C           0.5741    1.5608   24.4545 C.ar    1  UNL1        0.0939
      3 N           1.0245    1.6350   23.0257 N.ar    1  UNL1       -0.1721
      4 N           2.3835    1.0068   22.9347 N.ar    1  UNL1       -0.2463
      5 C           2.7731    0.5443   24.3074 C.ar    1  UNL1        0.1112
      6 C           1.6549    0.8867   25.2467 C.ar    1  UNL1        0.0850
      7 N           1.6230    0.6046   26.7196 N.am    1  UNL1       -0.2769
      8 C           1.8295    1.7195   27.7014 C.2     1  UNL1        0.2706
      9 O           2.0679    3.1167   27.2105 O.2     1  UNL1       -0.2680
     10 H           1.4666   -0.3125   27.0418 H       1  UNL1        0.1553
     11 C           1.7976    1.4373   29.1743 C.ar    1  UNL1        0.1764
     12 C           2.9107    0.8377   29.9814 C.ar    1  UNL1        0.0688
     13 C           2.4482    0.7350   31.4046 C.ar    1  UNL1        0.1945
     14 O           1.0491    1.2712   31.4771 O.2     1  UNL1       -0.3517
     15 N           0.6471    1.7052   30.0987 N.ar    1  UNL1       -0.0722
     16 C           3.2447    0.1916   32.5536 C.ar    1  UNL1        0.1184
     17 C           3.5907    1.0789   33.7126 C.ar    1  UNL1        0.0223
     18 C           4.3872    0.5355   34.8616 C.ar    1  UNL1        0.0032
     19 C           4.8379   -0.8952   34.8516 C.ar    1  UNL1        0.0207
     20 C           4.4919   -1.7824   33.6927 C.ar    1  UNL1        0.0989
     21 N           3.6954   -1.2390   32.5437 N.ar    1  UNL1       -0.2407
     22 C           3.2082    0.8657   21.6897 C.3     1  UNL1        0.1274
     23 C           3.7542    2.0861   21.0095 C.3     1  UNL1        0.0312
     24 C           3.4868   -0.4957   21.1248 C.ar    1  UNL1        0.0038
     25 C           4.5706   -1.3463   21.7178 C.ar    1  UNL1       -0.0025
     26 C           4.8492   -2.7076   21.1530 C.ar    1  UNL1        0.0036
     27 C           4.0439   -3.2183   19.9951 C.ar    1  UNL1        0.0714
     28 C           2.9600   -2.3677   19.4021 C.ar    1  UNL1        0.0074
     29 C           2.6815   -1.0064   19.9669 C.ar    1  UNL1        0.0692
     30 C           4.3225   -4.5798   19.4302 C.3     1  UNL1        0.4186
     31 F           4.6010   -5.9411   18.8654 F       1  UNL1       -0.1659
     32 F           5.7849   -4.3961   19.7087 F       1  UNL1       -0.1659
     33 F           2.8601   -4.7634   19.1517 F       1  UNL1       -0.1659
     34 C           1.5976   -0.1557   19.3739 C.3     1  UNL1        0.4183
     35 F           0.5138    0.6950   18.7809 F       1  UNL1       -0.1659
     36 F           2.5672    0.3715   18.3581 F       1  UNL1       -0.1659
     37 F           0.6280   -0.6829   20.3897 F       1  UNL1       -0.1659
@<TRIPOS>BOND
     1     1     2    1
     2     2     3   ar
     3     3     4   ar
     4     4    22    1
     5    22    23    1
     6    22    24    1
     7    24    25   ar
     8    25    26   ar
     9    26    27   ar
    10    27    30    1
    11    30    31    1
    12    30    32    1
    13    30    33    1
    14    27    28   ar
    15    28    29   ar
    16    29    34    1
    17    34    35    1
    18    34    36    1
    19    34    37    1
    20     4     5   ar
    21     5     6   ar
    22     6     7    1
    23     7     8   am
    24     8     9    2
    25     8    11    1
    26    11    12   ar
    27    12    13   ar
    28    13    16    1
    29    16    17   ar
    30    17    18   ar
    31    18    19   ar
    32    19    20   ar
    33    20    21   ar
    34    13    14   ar
    35    14    15   ar
    36     6     2   ar
    37    15    11   ar
    38    29    24   ar
    39    21    16   ar
    40     7    10    1
@<TRIPOS>MOLECULE
*****
 37 40 0 0 0
SMALL
GASTEIGER

@<TRIPOS>ATOM
      1 C           8.4115   -4.5765   22.8806 C.3     1  UNL1        0.0553
      2 C           7.0035   -4.1916   22.5353 C.ar    1  UNL1        0.0939
      3 N           6.4236   -4.1164   21.1539 N.ar    1  UNL1       -0.1721
      4 N           4.9898   -3.6926   21.2755 N.ar    1  UNL1       -0.2463
      5 C           4.6837   -3.5059   22.7320 C.ar    1  UNL1        0.1112
      6 C           5.9281   -3.8142   23.5106 C.ar    1  UNL1        0.0850
      7 N           6.0720   -3.7555   25.0025 N.am    1  UNL1       -0.2769
      8 C           6.4628   -2.4695   25.6682 C.2     1  UNL1        0.2706
      9 O           6.7097   -1.2421   24.8421 O.2     1  UNL1       -0.2680
     10 H           5.9099   -4.5611   25.5447 H       1  UNL1        0.1553
     11 C           6.6066   -2.4108   27.1602 C.ar    1  UNL1        0.1764
     12 C           5.5556   -1.9586   28.1302 C.ar    1  UNL1        0.0688
     13 C           6.1261   -2.0623   29.5135 C.ar    1  UNL1        0.1945
     14 O           7.5297   -2.5786   29.3985 O.2     1  UNL1       -0.3517
     15 N           7.8267   -2.7940   27.9441 N.ar    1  UNL1       -0.0722
     16 C           5.4174   -1.7114   30.7881 C.ar    1  UNL1        0.1184
     17 C           5.7163   -2.4715   32.0463 C.ar    1  UNL1        0.0223
     18 C           5.0076   -2.1206   33.3209 C.ar    1  UNL1        0.0032
     19 C           4.0000   -1.0095   33.3373 C.ar    1  UNL1        0.0207
     20 C           3.7011   -0.2494   32.0792 C.ar    1  UNL1        0.0989
     21 N           4.4098   -0.6003   30.8046 N.ar    1  UNL1       -0.2407
     22 C           4.0307   -3.4910   20.1400 C.3     1  UNL1        0.1274
     23 C           3.4633   -4.6770   19.4179 C.3     1  UNL1        0.0312
     24 C           3.6389   -2.1033   19.7266 C.ar    1  UNL1        0.0038
     25 C           2.3282   -1.5288   20.1758 C.ar    1  UNL1       -0.0025
     26 C           1.9365   -0.1411   19.7623 C.ar    1  UNL1        0.0036
     27 C           2.8555    0.6720   18.8997 C.ar    1  UNL1        0.0714
     28 C           4.1663    0.0975   18.4505 C.ar    1  UNL1        0.0074
     29 C           4.5580   -1.2901   18.8639 C.ar    1  UNL1        0.0692
     30 C           2.4637    2.0597   18.4863 C.3     1  UNL1        0.4186
     31 F           2.0720    3.4474   18.0729 F       1  UNL1       -0.1659
     32 F           1.0890    1.5689   18.1414 F       1  UNL1       -0.1659
     33 F           3.8385    2.5505   18.8312 F       1  UNL1       -0.1659
     34 C           5.8688   -1.8647   18.4147 C.3     1  UNL1        0.4183
     35 F           7.1796   -2.4392   17.9656 F       1  UNL1       -0.1659
     36 F           6.5517   -1.2215   19.5851 F       1  UNL1       -0.1659
     37 F           5.1859   -2.5078   17.2443 F       1  UNL1       -0.1659
@<TRIPOS>BOND
     1     1     2    1
     2     2     3   ar
     3     3     4   ar
     4     4    22    1
     5    22    23    1
     6    22    24    1
     7    24    25   ar
     8    25    26   ar
     9    26    27   ar
    10    27    30    1
    11    30    31    1
    12    30    32    1
    13    30    33    1
    14    27    28   ar
    15    28    29   ar
    16    29    34    1
    17    34    35    1
    18    34    36    1
    19    34    37    1
    20     4     5   ar
    21     5     6   ar
    22     6     7    1
    23     7     8   am
    24     8     9    2
    25     8    11    1
    26    11    12   ar
    27    12    13   ar
    28    13    16    1
    29    16    17   ar
    30    17    18   ar
    31    18    19   ar
    32    19    20   ar
    33    20    21   ar
    34    13    14   ar
    35    14    15   ar
    36     6     2   ar
    37    15    11   ar
    38    29    24   ar
    39    21    16   ar
    40     7    10    1
@<TRIPOS>MOLECULE
*****
 37 40 0 0 0
SMALL
GASTEIGER

@<TRIPOS>ATOM
      1 C           2.3649    1.0652   26.5676 C.3     1  UNL1        0.0553
      2 C           2.2552    1.1199   25.0726 C.ar    1  UNL1        0.0939
      3 N           3.3678    0.8727   24.0974 N.ar    1  UNL1       -0.1721
      4 N           2.8140    1.0313   22.7124 N.ar    1  UNL1       -0.2463
      5 C           1.3592    1.3766   22.8317 C.ar    1  UNL1        0.1112
      6 C           1.0138    1.4314   24.2904 C.ar    1  UNL1        0.0850
      7 N          -0.3359    1.7429   24.8658 N.am    1  UNL1       -0.2769
      8 C          -0.8657    3.1454   24.8188 C.2     1  UNL1        0.2706
      9 O          -0.0458    4.2364   24.1965 O.2     1  UNL1       -0.2680
     10 H          -0.8741    1.0269   25.2743 H       1  UNL1        0.1553
     11 C          -2.2155    3.4569   25.3942 C.ar    1  UNL1        0.1764
     12 C          -3.3762    4.0476   24.6500 C.ar    1  UNL1        0.0688
     13 C          -4.5196    4.1883   25.6106 C.ar    1  UNL1        0.1945
     14 O          -4.0656    3.6844   26.9485 O.2     1  UNL1       -0.3517
     15 N          -2.6415    3.2324   26.8148 N.ar    1  UNL1       -0.0722
     16 C          -5.8785    4.7365   25.2897 C.ar    1  UNL1        0.1184
     17 C          -6.5060    5.7598   26.1892 C.ar    1  UNL1        0.0223
     18 C          -7.8648    6.3080   25.8683 C.ar    1  UNL1        0.0032
     19 C          -8.5962    5.8328   24.6478 C.ar    1  UNL1        0.0207
     20 C          -7.9686    4.8096   23.7484 C.ar    1  UNL1        0.0989
     21 N          -6.6098    4.2614   24.0693 N.ar    1  UNL1       -0.2407
     22 C           3.5805    0.8726   21.4328 C.3     1  UNL1        0.1274
     23 C           4.1112    2.0818   20.7215 C.3     1  UNL1        0.0312
     24 C           3.8162   -0.4955   20.8646 C.ar    1  UNL1        0.0038
     25 C           4.9983   -1.3014   21.3152 C.ar    1  UNL1       -0.0025
     26 C           5.2340   -2.6694   20.7469 C.ar    1  UNL1        0.0036
     27 C           4.2875   -3.2315   19.7281 C.ar    1  UNL1        0.0714
     28 C           3.1054   -2.4257   19.2774 C.ar    1  UNL1        0.0074
     29 C           2.8697   -1.0577   19.8457 C.ar    1  UNL1        0.0692
     30 C           4.5232   -4.5996   19.1598 C.3     1  UNL1        0.4186
     31 F           4.7588   -5.9677   18.5916 F       1  UNL1       -0.1659
     32 F           5.5994   -4.0462   18.2736 F       1  UNL1       -0.1659
     33 F           3.4470   -5.1531   20.0460 F       1  UNL1       -0.1659
     34 C           1.6875   -0.2518   19.3950 C.3     1  UNL1        0.4183
     35 F           0.5054    0.5541   18.9445 F       1  UNL1       -0.1659
     36 F           0.8583   -0.8567   20.4888 F       1  UNL1       -0.1659
     37 F           2.5168    0.3532   18.3013 F       1  UNL1       -0.1659
@<TRIPOS>BOND
     1     1     2    1
     2     2     3   ar
     3     3     4   ar
     4     4    22    1
     5    22    23    1
     6    22    24    1
     7    24    25   ar
     8    25    26   ar
     9    26    27   ar
    10    27    30    1
    11    30    31    1
    12    30    32    1
    13    30    33    1
    14    27    28   ar
    15    28    29   ar
    16    29    34    1
    17    34    35    1
    18    34    36    1
    19    34    37    1
    20     4     5   ar
    21     5     6   ar
    22     6     7    1
    23     7     8   am
    24     8     9    2
    25     8    11    1
    26    11    12   ar
    27    12    13   ar
    28    13    16    1
    29    16    17   ar
    30    17    18   ar
    31    18    19   ar
    32    19    20   ar
    33    20    21   ar
    34    13    14   ar
    35    14    15   ar
    36     6     2   ar
    37    15    11   ar
    38    29    24   ar
    39    21    16   ar
    40     7    10    1
@<TRIPOS>MOLECULE
*****
 37 40 0 0 0
SMALL
GASTEIGER

@<TRIPOS>ATOM
      1 C           3.4559    4.2826   25.0100 C.3     1  UNL1        0.0553
      2 C           3.5379    3.1060   24.0834 C.ar    1  UNL1        0.0939
      3 N           3.6950    3.1668   22.5929 N.ar    1  UNL1       -0.1721
      4 N           3.7314    1.7603   22.0728 N.ar    1  UNL1       -0.2463
      5 C           3.5967    0.8302   23.2419 C.ar    1  UNL1        0.1112
      6 C           3.4771    1.6619   24.4845 C.ar    1  UNL1        0.0850
      7 N           3.3237    1.1409   25.8828 N.am    1  UNL1       -0.2769
      8 C           1.9707    1.1163   26.5297 C.2     1  UNL1        0.2706
      9 O           0.7710    1.6126   25.7784 O.2     1  UNL1       -0.2680
     10 H           4.1111    0.8151   26.3758 H       1  UNL1        0.1553
     11 C           1.8173    0.5953   27.9279 C.ar    1  UNL1        0.1764
     12 C           2.8900    0.5522   28.9754 C.ar    1  UNL1        0.0688
     13 C           2.3000   -0.0438   30.2191 C.ar    1  UNL1        0.1945
     14 O           0.8625   -0.3691   29.9401 O.2     1  UNL1       -0.3517
     15 N           0.5641    0.0259   28.5241 N.ar    1  UNL1       -0.0722
     16 C           3.0208   -0.2740   31.5142 C.ar    1  UNL1        0.1184
     17 C           3.1308    0.8346   32.5187 C.ar    1  UNL1        0.0223
     18 C           3.8516    0.6043   33.8139 C.ar    1  UNL1        0.0032
     19 C           4.4625   -0.7346   34.1044 C.ar    1  UNL1        0.0207
     20 C           4.3525   -1.8431   33.0999 C.ar    1  UNL1        0.0989
     21 N           3.6317   -1.6128   31.8048 N.ar    1  UNL1       -0.2407
     22 C           3.8769    1.3550   20.6359 C.3     1  UNL1        0.1274
     23 C           3.8567    2.3969   19.5571 C.3     1  UNL1        0.0312
     24 C           4.0425   -0.0922   20.2780 C.ar    1  UNL1        0.0038
     25 C           5.4053   -0.7186   20.2982 C.ar    1  UNL1       -0.0025
     26 C           5.5709   -2.1658   19.9403 C.ar    1  UNL1        0.0036
     27 C           4.3737   -2.9866   19.5620 C.ar    1  UNL1        0.0714
     28 C           3.0110   -2.3602   19.5417 C.ar    1  UNL1        0.0074
     29 C           2.8454   -0.9130   19.8997 C.ar    1  UNL1        0.0692
     30 C           4.5394   -4.4339   19.2040 C.3     1  UNL1        0.4186
     31 F           4.7050   -5.8811   18.8460 F       1  UNL1       -0.1659
     32 F           5.9650   -4.3855   19.6680 F       1  UNL1       -0.1659
     33 F           3.1138   -4.4822   18.7401 F       1  UNL1       -0.1659
     34 C           1.4825   -0.2866   19.8795 C.3     1  UNL1        0.4183
     35 F           0.1198    0.3398   19.8592 F       1  UNL1       -0.1659
     36 F           1.2940   -0.6501   21.3224 F       1  UNL1       -0.1659
     37 F           1.6711    0.0770   18.4365 F       1  UNL1       -0.1659
@<TRIPOS>BOND
     1     1     2    1
     2     2     3   ar
     3     3     4   ar
     4     4    22    1
     5    22    23    1
     6    22    24    1
     7    24    25   ar
     8    25    26   ar
     9    26    27   ar
    10    27    30    1
    11    30    31    1
    12    30    32    1
    13    30    33    1
    14    27    28   ar
    15    28    29   ar
    16    29    34    1
    17    34    35    1
    18    34    36    1
    19    34    37    1
    20     4     5   ar
    21     5     6   ar
    22     6     7    1
    23     7     8   am
    24     8     9    2
    25     8    11    1
    26    11    12   ar
    27    12    13   ar
    28    13    16    1
    29    16    17   ar
    30    17    18   ar
    31    18    19   ar
    32    19    20   ar
    33    20    21   ar
    34    13    14   ar
    35    14    15   ar
    36     6     2   ar
    37    15    11   ar
    38    29    24   ar
    39    21    16   ar
    40     7    10    1
@<TRIPOS>MOLECULE
*****
 37 40 0 0 0
SMALL
GASTEIGER

@<TRIPOS>ATOM
      1 C           0.1833    1.1094   25.1883 C.3     1  UNL1        0.0553
      2 C           0.8163    1.4384   23.8689 C.ar    1  UNL1        0.0939
      3 N           2.0949    0.8626   23.3364 N.ar    1  UNL1       -0.1721
      4 N           2.3507    1.4693   21.9886 N.ar    1  UNL1       -0.2463
      5 C           1.2302    2.4201   21.6881 C.ar    1  UNL1        0.1112
      6 C           0.2819    2.4011   22.8502 C.ar    1  UNL1        0.0850
      7 N          -0.9795    3.2037   22.9720 N.am    1  UNL1       -0.2769
      8 C          -1.9727    3.2152   21.8482 C.2     1  UNL1        0.2706
      9 O          -1.7047    2.4240   20.6023 O.2     1  UNL1       -0.2680
     10 H          -1.1554    3.7230   23.7897 H       1  UNL1        0.1553
     11 C          -3.2340    4.0178   21.9701 C.ar    1  UNL1        0.1764
     12 C          -4.0503    4.1935   23.2162 C.ar    1  UNL1        0.0688
     13 C          -5.2212    5.0700   22.8836 C.ar    1  UNL1        0.1945
     14 O          -5.1287    5.4359   21.4318 O.2     1  UNL1       -0.3517
     15 N          -3.9005    4.7857   20.8673 N.ar    1  UNL1       -0.0722
     16 C          -6.2961    5.5042   23.8355 C.ar    1  UNL1        0.1184
     17 C          -7.7045    5.0241   23.6460 C.ar    1  UNL1        0.0223
     18 C          -8.7793    5.4583   24.5980 C.ar    1  UNL1        0.0032
     19 C          -8.4457    6.3727   25.7394 C.ar    1  UNL1        0.0207
     20 C          -7.0373    6.8527   25.9288 C.ar    1  UNL1        0.0989
     21 N          -5.9625    6.4185   24.9768 N.ar    1  UNL1       -0.2407
     22 C           3.5215    1.1766   21.0978 C.3     1  UNL1        0.1274
     23 C           4.4648    2.2775   20.7128 C.3     1  UNL1        0.0312
     24 C           3.7490   -0.2172   20.5919 C.ar    1  UNL1        0.0038
     25 C           4.8032   -1.0801   21.2196 C.ar    1  UNL1       -0.0025
     26 C           5.0306   -2.4738   20.7137 C.ar    1  UNL1        0.0036
     27 C           4.2040   -3.0045   19.5802 C.ar    1  UNL1        0.0714
     28 C           3.1498   -2.1415   18.9525 C.ar    1  UNL1        0.0074
     29 C           2.9224   -0.7479   19.4584 C.ar    1  UNL1        0.0692
     30 C           4.4315   -4.3982   19.0743 C.3     1  UNL1        0.4186
     31 F           4.6589   -5.7919   18.5685 F       1  UNL1       -0.1659
     32 F           5.4186   -3.8740   18.0739 F       1  UNL1       -0.1659
     33 F           3.4444   -4.9224   20.0747 F       1  UNL1       -0.1659
     34 C           1.8682    0.1152   18.8307 C.3     1  UNL1        0.4183
     35 F           0.8141    0.9782   18.2030 F       1  UNL1       -0.1659
     36 F           2.8900    0.6773   17.8875 F       1  UNL1       -0.1659
     37 F           0.8463   -0.4470   19.7739 F       1  UNL1       -0.1659
@<TRIPOS>BOND
     1     1     2    1
     2     2     3   ar
     3     3     4   ar
     4     4    22    1
     5    22    23    1
     6    22    24    1
     7    24    25   ar
     8    25    26   ar
     9    26    27   ar
    10    27    30    1
    11    30    31    1
    12    30    32    1
    13    30    33    1
    14    27    28   ar
    15    28    29   ar
    16    29    34    1
    17    34    35    1
    18    34    36    1
    19    34    37    1
    20     4     5   ar
    21     5     6   ar
    22     6     7    1
    23     7     8   am
    24     8     9    2
    25     8    11    1
    26    11    12   ar
    27    12    13   ar
    28    13    16    1
    29    16    17   ar
    30    17    18   ar
    31    18    19   ar
    32    19    20   ar
    33    20    21   ar
    34    13    14   ar
    35    14    15   ar
    36     6     2   ar
    37    15    11   ar
    38    29    24   ar
    39    21    16   ar
    40     7    10    1
@<TRIPOS>MOLECULE
*****
 37 40 0 0 0
SMALL
GASTEIGER

@<TRIPOS>ATOM
      1 C          -0.1743    4.4387   17.7429 C.3     1  UNL1        0.0553
      2 C           0.5742    3.4829   18.6238 C.ar    1  UNL1        0.0939
      3 N           2.0207    3.1089   18.4903 N.ar    1  UNL1       -0.1721
      4 N           2.3482    2.1281   19.5769 N.ar    1  UNL1       -0.2463
      5 C           1.1041    1.8959   20.3821 C.ar    1  UNL1        0.1112
      6 C           0.0077    2.7332   19.7930 C.ar    1  UNL1        0.0850
      7 N          -1.4068    2.8077   20.2866 N.am    1  UNL1       -0.2769
      8 C          -1.7280    3.5860   21.5279 C.2     1  UNL1        0.2706
      9 O          -0.6347    4.2898   22.2757 O.2     1  UNL1       -0.2680
     10 H          -2.1244    2.3457   19.7958 H       1  UNL1        0.1553
     11 C          -3.1425    3.6605   22.0214 C.ar    1  UNL1        0.1764
     12 C          -3.6496    4.5563   23.1125 C.ar    1  UNL1        0.0688
     13 C          -5.1188    4.3018   23.2760 C.ar    1  UNL1        0.1945
     14 O          -5.5197    3.2486   22.2860 O.2     1  UNL1       -0.3517
     15 N          -4.2983    2.8523   21.5106 N.ar    1  UNL1       -0.0722
     16 C          -6.0274    4.9811   24.2572 C.ar    1  UNL1        0.1184
     17 C          -7.4402    5.3053   23.8710 C.ar    1  UNL1        0.0223
     18 C          -8.3489    5.9846   24.8522 C.ar    1  UNL1        0.0032
     19 C          -7.8448    6.3397   26.2197 C.ar    1  UNL1        0.0207
     20 C          -6.4322    6.0155   26.6059 C.ar    1  UNL1        0.0989
     21 N          -5.5235    5.3362   25.6246 N.ar    1  UNL1       -0.2407
     22 C           3.6851    1.4913   19.8164 C.3     1  UNL1        0.1274
     23 C           4.8486    2.3314   20.2527 C.3     1  UNL1        0.0312
     24 C           3.8584    0.0144   19.6194 C.ar    1  UNL1        0.0038
     25 C           4.1420   -0.5316   18.2515 C.ar    1  UNL1       -0.0025
     26 C           4.3153   -2.0085   18.0546 C.ar    1  UNL1        0.0036
     27 C           4.2049   -2.9393   19.2256 C.ar    1  UNL1        0.0714
     28 C           3.9213   -2.3933   20.5936 C.ar    1  UNL1        0.0074
     29 C           3.7480   -0.9164   20.7905 C.ar    1  UNL1        0.0692
     30 C           4.3782   -4.4162   19.0287 C.3     1  UNL1        0.4186
     31 F           4.5515   -5.8931   18.8317 F       1  UNL1       -0.1659
     32 F           5.8404   -4.2858   19.3370 F       1  UNL1       -0.1659
     33 F           2.9161   -4.5466   18.7204 F       1  UNL1       -0.1659
     34 C           3.4643   -0.3703   22.1585 C.3     1  UNL1        0.4183
     35 F           3.1806    0.1758   23.5264 F       1  UNL1       -0.1659
     36 F           1.9962   -0.5870   21.9405 F       1  UNL1       -0.1659
     37 F           4.9324   -0.1536   22.3765 F       1  UNL1       -0.1659
@<TRIPOS>BOND
     1     1     2    1
     2     2     3   ar
     3     3     4   ar
     4     4    22    1
     5    22    23    1
     6    22    24    1
     7    24    25   ar
     8    25    26   ar
     9    26    27   ar
    10    27    30    1
    11    30    31    1
    12    30    32    1
    13    30    33    1
    14    27    28   ar
    15    28    29   ar
    16    29    34    1
    17    34    35    1
    18    34    36    1
    19    34    37    1
    20     4     5   ar
    21     5     6   ar
    22     6     7    1
    23     7     8   am
    24     8     9    2
    25     8    11    1
    26    11    12   ar
    27    12    13   ar
    28    13    16    1
    29    16    17   ar
    30    17    18   ar
    31    18    19   ar
    32    19    20   ar
    33    20    21   ar
    34    13    14   ar
    35    14    15   ar
    36     6     2   ar
    37    15    11   ar
    38    29    24   ar
    39    21    16   ar
    40     7    10    1
@<TRIPOS>MOLECULE
*****
 37 40 0 0 0
SMALL
GASTEIGER

@<TRIPOS>ATOM
      1 C           1.3457    3.4849   33.1528 C.3     1  UNL1        0.0553
      2 C           2.1609    2.2279   33.0793 C.ar    1  UNL1        0.0939
      3 N           3.0987    1.7222   34.1351 N.ar    1  UNL1       -0.1721
      4 N           3.6988    0.4376   33.6454 N.ar    1  UNL1       -0.2463
      5 C           3.1318    0.1495   32.2869 C.ar    1  UNL1        0.1112
      6 C           2.1813    1.2559   31.9370 C.ar    1  UNL1        0.0850
      7 N           1.3903    1.3702   30.6677 N.am    1  UNL1       -0.2769
      8 C           2.0601    1.8247   29.4049 C.2     1  UNL1        0.2706
      9 O           3.5209    2.1648   29.4114 O.2     1  UNL1       -0.2680
     10 H           0.4314    1.1470   30.6635 H       1  UNL1        0.1553
     11 C           1.2690    1.9390   28.1356 C.ar    1  UNL1        0.1764
     12 C          -0.0546    2.6276   27.9806 C.ar    1  UNL1        0.0688
     13 C          -0.4790    2.4990   26.5477 C.ar    1  UNL1        0.1945
     14 O           0.5822    1.7309   25.8171 O.2     1  UNL1       -0.3517
     15 N           1.6625    1.3847   26.7985 N.ar    1  UNL1       -0.0722
     16 C          -1.7428    3.0430   25.9502 C.ar    1  UNL1        0.1184
     17 C          -1.8576    3.2124   24.4642 C.ar    1  UNL1        0.0223
     18 C          -3.1214    3.7564   23.8668 C.ar    1  UNL1        0.0032
     19 C          -4.2703    4.1310   24.7554 C.ar    1  UNL1        0.0207
     20 C          -4.1555    3.9617   26.2413 C.ar    1  UNL1        0.0989
     21 N          -2.8918    3.4177   26.8388 N.ar    1  UNL1       -0.2407
     22 C           4.6915   -0.4099   34.3844 C.3     1  UNL1        0.1274
     23 C           4.7405   -0.3731   35.8832 C.3     1  UNL1        0.0312
     24 C           5.6353   -1.2943   33.6247 C.ar    1  UNL1        0.0038
     25 C           5.1913   -2.6552   33.1766 C.ar    1  UNL1       -0.0025
     26 C           6.1351   -3.5395   32.4169 C.ar    1  UNL1        0.0036
     27 C           7.5228   -3.0630   32.1052 C.ar    1  UNL1        0.0714
     28 C           7.9667   -1.7021   32.5533 C.ar    1  UNL1        0.0074
     29 C           7.0230   -0.8178   33.3130 C.ar    1  UNL1        0.0692
     30 C           8.4666   -3.9474   31.3455 C.3     1  UNL1        0.4186
     31 F           9.4103   -4.8318   30.5857 F       1  UNL1       -0.1659
     32 F           9.3680   -2.7740   31.0992 F       1  UNL1       -0.1659
     33 F           7.5652   -5.1207   31.5917 F       1  UNL1       -0.1659
     34 C           7.4669    0.5432   33.7612 C.3     1  UNL1        0.4183
     35 F           7.9109    1.9041   34.2093 F       1  UNL1       -0.1659
     36 F           7.9886   -0.0473   35.0375 F       1  UNL1       -0.1659
     37 F           6.9453    1.1337   32.4848 F       1  UNL1       -0.1659
@<TRIPOS>BOND
     1     1     2    1
     2     2     3   ar
     3     3     4   ar
     4     4    22    1
     5    22    23    1
     6    22    24    1
     7    24    25   ar
     8    25    26   ar
     9    26    27   ar
    10    27    30    1
    11    30    31    1
    12    30    32    1
    13    30    33    1
    14    27    28   ar
    15    28    29   ar
    16    29    34    1
    17    34    35    1
    18    34    36    1
    19    34    37    1
    20     4     5   ar
    21     5     6   ar
    22     6     7    1
    23     7     8   am
    24     8     9    2
    25     8    11    1
    26    11    12   ar
    27    12    13   ar
    28    13    16    1
    29    16    17   ar
    30    17    18   ar
    31    18    19   ar
    32    19    20   ar
    33    20    21   ar
    34    13    14   ar
    35    14    15   ar
    36     6     2   ar
    37    15    11   ar
    38    29    24   ar
    39    21    16   ar
    40     7    10    1
@<TRIPOS>MOLECULE
*****
 37 40 0 0 0
SMALL
GASTEIGER

@<TRIPOS>ATOM
      1 C           1.4159    1.8073   31.6445 C.3     1  UNL1        0.0553
      2 C           2.7374    1.5013   31.0042 C.ar    1  UNL1        0.0939
      3 N           3.8931    0.8031   31.6576 N.ar    1  UNL1       -0.1721
      4 N           5.0052    0.7101   30.6553 N.ar    1  UNL1       -0.2463
      5 C           4.5368    1.3508   29.3825 C.ar    1  UNL1        0.1112
      6 C           3.1352    1.8398   29.5981 C.ar    1  UNL1        0.0850
      7 N           2.2815    2.5437   28.5854 N.am    1  UNL1       -0.2769
      8 C           1.1244    1.8288   27.9531 C.2     1  UNL1        0.2706
      9 O           0.8210    0.4100   28.3335 O.2     1  UNL1       -0.2680
     10 H           2.4806    3.4750   28.3357 H       1  UNL1        0.1553
     11 C           0.2706    2.5327   26.9404 C.ar    1  UNL1        0.1764
     12 C          -1.2290    2.5560   26.9149 C.ar    1  UNL1        0.0688
     13 C          -1.6599    3.3746   25.7342 C.ar    1  UNL1        0.1945
     14 O          -0.4266    3.8573   25.0299 O.2     1  UNL1       -0.3517
     15 N           0.7665    3.3370   25.7754 N.ar    1  UNL1       -0.0722
     16 C          -3.0756    3.6603   25.3288 C.ar    1  UNL1        0.1184
     17 C          -4.0219    4.2940   26.3051 C.ar    1  UNL1        0.0223
     18 C          -5.4376    4.5797   25.8998 C.ar    1  UNL1        0.0032
     19 C          -5.9069    4.2318   24.5182 C.ar    1  UNL1        0.0207
     20 C          -4.9606    3.5981   23.5420 C.ar    1  UNL1        0.0989
     21 N          -3.5449    3.3124   23.9473 N.ar    1  UNL1       -0.2407
     22 C           6.3496    0.0860   30.8855 C.3     1  UNL1        0.1274
     23 C           7.4466    0.8830   31.5268 C.3     1  UNL1        0.0312
     24 C           6.5970   -1.3353   30.4744 C.ar    1  UNL1        0.0038
     25 C           7.1493   -1.6368   29.1128 C.ar    1  UNL1       -0.0025
     26 C           7.3967   -3.0580   28.7017 C.ar    1  UNL1        0.0036
     27 C           7.0917   -4.1776   29.6522 C.ar    1  UNL1        0.0714
     28 C           6.5394   -3.8760   31.0138 C.ar    1  UNL1        0.0074
     29 C           6.2920   -2.4549   31.4249 C.ar    1  UNL1        0.0692
     30 C           7.3391   -5.5989   29.2411 C.3     1  UNL1        0.4186
     31 F           7.5864   -7.0200   28.8299 F       1  UNL1       -0.1659
     32 F           7.1679   -6.0404   30.6643 F       1  UNL1       -0.1659
     33 F           7.5103   -5.1573   27.8178 F       1  UNL1       -0.1659
     34 C           5.7396   -2.1532   32.7865 C.3     1  UNL1        0.4183
     35 F           5.1873   -1.8516   34.1481 F       1  UNL1       -0.1659
     36 F           7.1324   -1.9593   33.3085 F       1  UNL1       -0.1659
     37 F           4.3469   -2.3472   32.2645 F       1  UNL1       -0.1659
@<TRIPOS>BOND
     1     1     2    1
     2     2     3   ar
     3     3     4   ar
     4     4    22    1
     5    22    23    1
     6    22    24    1
     7    24    25   ar
     8    25    26   ar
     9    26    27   ar
    10    27    30    1
    11    30    31    1
    12    30    32    1
    13    30    33    1
    14    27    28   ar
    15    28    29   ar
    16    29    34    1
    17    34    35    1
    18    34    36    1
    19    34    37    1
    20     4     5   ar
    21     5     6   ar
    22     6     7    1
    23     7     8   am
    24     8     9    2
    25     8    11    1
    26    11    12   ar
    27    12    13   ar
    28    13    16    1
    29    16    17   ar
    30    17    18   ar
    31    18    19   ar
    32    19    20   ar
    33    20    21   ar
    34    13    14   ar
    35    14    15   ar
    36     6     2   ar
    37    15    11   ar
    38    29    24   ar
    39    21    16   ar
    40     7    10    1
