@<TRIPOS>MOLECULE
*****
 32 35 0 0 0
SMALL
GASTEIGER

@<TRIPOS>ATOM
      1 C          -0.2503    4.2007   18.4578 C.ar    1  UNL1        0.1385
      2 C           1.0129    5.0047   18.5456 C.ar    1  UNL1        0.0384
      3 C           2.3439    4.3130   18.5425 C.ar    1  UNL1        0.0203
      4 C           2.4116    2.8173   18.4516 C.ar    1  UNL1        0.0601
      5 C           1.1483    2.0133   18.3638 C.ar    1  UNL1        0.0204
      6 C          -0.1826    2.7050   18.3669 C.ar    1  UNL1        0.0384
      7 C           1.5260    0.5638   18.2851 C.ar    1  UNL1        0.0234
      8 C           3.0227    0.4719   18.3243 C.ar    1  UNL1        0.1141
      9 N           3.5700    1.8646   18.4272 N.ar    1  UNL1       -0.3255
     10 C           3.8302   -0.7911   18.2700 C.2     1  UNL1        0.2649
     11 O           4.3614   -1.2858   16.9574 O.2     1  UNL1       -0.2683
     12 N           4.1065   -1.5592   19.5284 N.am    1  UNL1       -0.2745
     13 C           3.5753   -1.0645   20.8410 C.3     1  UNL1        0.0994
     14 C           3.8516   -1.8327   22.0994 C.3     1  UNL1        0.0881
     15 C           4.6592   -3.0956   22.0452 C.3     1  UNL1        0.2672
     16 F           5.3676   -4.3364   22.5019 F       1  UNL1       -0.2042
     17 F           4.3740   -3.0318   23.5165 F       1  UNL1       -0.2042
     18 C           5.1904   -3.5904   20.7325 C.3     1  UNL1        0.0881
     19 C           4.9140   -2.8221   19.4741 C.3     1  UNL1        0.0994
     20 C           5.0210    2.2391   18.4939 C.3     1  UNL1        0.0857
     21 C           5.7883    2.0435   19.7679 C.3     1  UNL1        0.0245
     22 C           5.7048    2.8091   17.2866 C.3     1  UNL1        0.0245
     23 O          -1.5814    4.8925   18.4609 O.3     1  UNL1       -0.4791
     24 N          -4.4980    4.1446   21.8051 N.3     1  UNL1       -0.2737
     25 C          -3.2737    4.9761   22.0496 C.3     1  UNL1        0.0758
     26 C          -2.3014    5.2254   20.9348 C.3     1  UNL1        0.0609
     27 C          -2.5535    4.6432   19.5756 C.3     1  UNL1        0.1687
     28 C          -3.7779    3.8117   19.3311 C.3     1  UNL1        0.0609
     29 C          -4.7501    3.5625   20.4459 C.3     1  UNL1        0.0758
     30 C          -6.9290    4.1823   22.7210 C.3     1  UNL1        0.0173
     31 C          -5.4701    3.8954   22.9198 C.3     1  UNL1        0.0576
     32 C          -4.9835    3.3592   24.2336 C.3     1  UNL1        0.0173
@<TRIPOS>BOND
     1    30    31    1
     2    31    32    1
     3    31    24    1
     4    24    25    1
     5    25    26    1
     6    26    27    1
     7    27    23    1
     8    23     1    1
     9     1     2   ar
    10     2     3   ar
    11     3     4   ar
    12     4     5   ar
    13     5     6   ar
    14     5     7   ar
    15     7     8   ar
    16     8    10    1
    17    10    11    2
    18    10    12   am
    19    12    13    1
    20    13    14    1
    21    14    15    1
    22    15    16    1
    23    15    17    1
    24    15    18    1
    25    18    19    1
    26     8     9   ar
    27     9    20    1
    28    20    21    1
    29    20    22    1
    30    27    28    1
    31    28    29    1
    32    29    24    1
    33     6     1   ar
    34    19    12    1
    35     9     4   ar
@<TRIPOS>MOLECULE
*****
 32 35 0 0 0
SMALL
GASTEIGER

@<TRIPOS>ATOM
      1 C          -0.5994    2.8717   19.4932 C.ar    1  UNL1        0.1385
      2 C           0.4845    3.4063   18.6047 C.ar    1  UNL1        0.0384
      3 C           1.7222    2.5948   18.3603 C.ar    1  UNL1        0.0203
      4 C           1.8759    1.2489   19.0044 C.ar    1  UNL1        0.0601
      5 C           0.7920    0.7144   19.8929 C.ar    1  UNL1        0.0204
      6 C          -0.4456    1.5258   20.1372 C.ar    1  UNL1        0.0384
      7 C           1.2212   -0.6354   20.3868 C.ar    1  UNL1        0.0234
      8 C           2.5703   -0.9350   19.8037 C.ar    1  UNL1        0.1141
      9 N           2.9750    0.2295   18.9492 N.ar    1  UNL1       -0.3255
     10 C           3.3737   -2.1806   20.0344 C.2     1  UNL1        0.2649
     11 O           3.5532   -3.1736   18.9246 O.2     1  UNL1       -0.2683
     12 N           3.9974   -2.4332   21.3750 N.am    1  UNL1       -0.2745
     13 C           3.8179   -1.4402   22.4848 C.3     1  UNL1        0.0994
     14 C           4.4417   -1.6927   23.8253 C.3     1  UNL1        0.0881
     15 C           5.2450   -2.9383   24.0561 C.3     1  UNL1        0.2672
     16 F           6.0876   -3.9625   24.7568 F       1  UNL1       -0.2042
     17 F           5.3581   -2.3010   25.4093 F       1  UNL1       -0.2042
     18 C           5.4246   -3.9313   22.9462 C.3     1  UNL1        0.0881
     19 C           4.8007   -3.6787   21.6057 C.3     1  UNL1        0.0994
     20 C           4.2541    0.3530   18.1756 C.3     1  UNL1        0.0857
     21 C           4.4433   -0.4288   16.9094 C.3     1  UNL1        0.0245
     22 C           5.3440    1.2583   18.6680 C.3     1  UNL1        0.0245
     23 O          -1.8371    3.6831   19.7376 O.3     1  UNL1       -0.4791
     24 N          -3.5803    3.9362   23.8786 N.3     1  UNL1       -0.2737
     25 C          -4.4193    3.4343   22.7410 C.3     1  UNL1        0.0758
     26 C          -3.8383    3.3499   21.3607 C.3     1  UNL1        0.0609
     27 C          -2.4182    3.7675   21.1179 C.3     1  UNL1        0.1687
     28 C          -1.5791    4.2695   22.2555 C.3     1  UNL1        0.0609
     29 C          -2.1602    4.3538   23.6358 C.3     1  UNL1        0.0758
     30 C          -3.2859    3.7966   26.4561 C.3     1  UNL1        0.0173
     31 C          -4.1613    4.0206   25.2588 C.3     1  UNL1        0.0576
     32 C          -5.6179    4.3289   25.4419 C.3     1  UNL1        0.0173
@<TRIPOS>BOND
     1    30    31    1
     2    31    32    1
     3    31    24    1
     4    24    25    1
     5    25    26    1
     6    26    27    1
     7    27    23    1
     8    23     1    1
     9     1     2   ar
    10     2     3   ar
    11     3     4   ar
    12     4     5   ar
    13     5     6   ar
    14     5     7   ar
    15     7     8   ar
    16     8    10    1
    17    10    11    2
    18    10    12   am
    19    12    13    1
    20    13    14    1
    21    14    15    1
    22    15    16    1
    23    15    17    1
    24    15    18    1
    25    18    19    1
    26     8     9   ar
    27     9    20    1
    28    20    21    1
    29    20    22    1
    30    27    28    1
    31    28    29    1
    32    29    24    1
    33     6     1   ar
    34    19    12    1
    35     9     4   ar
@<TRIPOS>MOLECULE
*****
 32 35 0 0 0
SMALL
GASTEIGER

@<TRIPOS>ATOM
      1 C           8.0685   -4.5716   21.0175 C.ar    1  UNL1        0.1385
      2 C           8.9852   -3.4299   20.6918 C.ar    1  UNL1        0.0384
      3 C           8.4508   -2.2150   19.9928 C.ar    1  UNL1        0.0203
      4 C           6.9999   -2.1420   19.6194 C.ar    1  UNL1        0.0601
      5 C           6.0833   -3.2838   19.9451 C.ar    1  UNL1        0.0204
      6 C           6.6176   -4.4986   20.6441 C.ar    1  UNL1        0.0384
      7 C           4.7099   -2.9294   19.4569 C.ar    1  UNL1        0.0234
      8 C           4.7778   -1.5686   18.8294 C.ar    1  UNL1        0.1141
      9 N           6.1930   -1.0819   18.9299 N.ar    1  UNL1       -0.3255
     10 C           3.6315   -0.8251   18.2103 C.2     1  UNL1        0.2649
     11 O           3.5159   -0.7333   16.7175 O.2     1  UNL1       -0.2683
     12 N           2.6009   -0.1734   19.0838 N.am    1  UNL1       -0.2745
     13 C           2.7165   -0.2652   20.5765 C.3     1  UNL1        0.0994
     14 C           1.6859    0.3865   21.4501 C.3     1  UNL1        0.0881
     15 C           0.5396    1.1301   20.8309 C.3     1  UNL1        0.2672
     16 F          -0.7181    1.9393   20.7164 F       1  UNL1       -0.2042
     17 F           0.2184    1.3193   22.2839 F       1  UNL1       -0.2042
     18 C           0.4241    1.2219   19.3382 C.3     1  UNL1        0.0881
     19 C           1.4547    0.5701   18.4646 C.3     1  UNL1        0.0994
     20 C           6.7106    0.2337   18.4288 C.3     1  UNL1        0.0857
     21 C           7.0705    1.3176   19.4013 C.3     1  UNL1        0.0245
     22 C           6.8684    0.4655   16.9553 C.3     1  UNL1        0.0245
     23 O           8.6028   -5.7865   21.7166 O.3     1  UNL1       -0.4791
     24 N           7.9354   -6.3157   26.1352 N.3     1  UNL1       -0.2737
     25 C           7.7744   -4.9621   25.5092 C.3     1  UNL1        0.0758
     26 C           7.9969   -4.7857   24.0363 C.3     1  UNL1        0.0609
     27 C           8.3804   -5.9629   23.1894 C.3     1  UNL1        0.1687
     28 C           8.5413   -7.3165   23.8155 C.3     1  UNL1        0.0609
     29 C           8.3189   -7.4929   25.2883 C.3     1  UNL1        0.0758
     30 C           8.4176   -7.5910   28.3467 C.3     1  UNL1        0.0173
     31 C           7.7129   -6.4921   27.6081 C.3     1  UNL1        0.0576
     32 C           6.7857   -5.5694   28.3423 C.3     1  UNL1        0.0173
@<TRIPOS>BOND
     1    30    31    1
     2    31    32    1
     3    31    24    1
     4    24    25    1
     5    25    26    1
     6    26    27    1
     7    27    23    1
     8    23     1    1
     9     1     2   ar
    10     2     3   ar
    11     3     4   ar
    12     4     5   ar
    13     5     6   ar
    14     5     7   ar
    15     7     8   ar
    16     8    10    1
    17    10    11    2
    18    10    12   am
    19    12    13    1
    20    13    14    1
    21    14    15    1
    22    15    16    1
    23    15    17    1
    24    15    18    1
    25    18    19    1
    26     8     9   ar
    27     9    20    1
    28    20    21    1
    29    20    22    1
    30    27    28    1
    31    28    29    1
    32    29    24    1
    33     6     1   ar
    34    19    12    1
    35     9     4   ar
@<TRIPOS>MOLECULE
*****
 32 35 0 0 0
SMALL
GASTEIGER

@<TRIPOS>ATOM
      1 C          -0.3707    2.4144   24.4776 C.ar    1  UNL1        0.1385
      2 C          -0.9470    2.9453   23.1986 C.ar    1  UNL1        0.0384
      3 C          -0.2042    2.7624   21.9084 C.ar    1  UNL1        0.0203
      4 C           1.1150    2.0485   21.8972 C.ar    1  UNL1        0.0601
      5 C           1.6913    1.5176   23.1762 C.ar    1  UNL1        0.0204
      6 C           0.9485    1.7005   24.4664 C.ar    1  UNL1        0.0384
      7 C           3.0017    0.8611   22.8568 C.ar    1  UNL1        0.0234
      8 C           3.2352    0.9862   21.3804 C.ar    1  UNL1        0.1141
      9 N           2.0692    1.7201   20.7873 N.ar    1  UNL1       -0.3255
     10 C           4.4258    0.4684   20.6290 C.2     1  UNL1        0.2649
     11 O           5.6459    1.3270   20.4734 O.2     1  UNL1       -0.2683
     12 N           4.3962   -0.9079   20.0333 N.am    1  UNL1       -0.2745
     13 C           3.1761   -1.7664   20.1890 C.3     1  UNL1        0.0994
     14 C           3.1465   -3.1427   19.5933 C.3     1  UNL1        0.0881
     15 C           4.3371   -3.6605   18.8419 C.3     1  UNL1        0.2672
     16 F           5.2090   -4.5884   18.0490 F       1  UNL1       -0.2042
     17 F           3.4198   -4.8413   18.7222 F       1  UNL1       -0.2042
     18 C           5.5572   -2.8020   18.6863 C.3     1  UNL1        0.0881
     19 C           5.5867   -1.4256   19.2820 C.3     1  UNL1        0.0994
     20 C           1.8889    2.0651   19.3387 C.3     1  UNL1        0.0857
     21 C           2.2750    3.4253   18.8379 C.3     1  UNL1        0.0245
     22 C           1.3226    1.0498   18.3908 C.3     1  UNL1        0.0245
     23 O          -1.1136    2.5973   25.7678 O.3     1  UNL1       -0.4791
     24 N           0.9151    1.6887   29.6805 N.3     1  UNL1       -0.2737
     25 C           1.0852    3.0356   29.0425 C.3     1  UNL1        0.0758
     26 C           0.4089    3.3385   27.7383 C.3     1  UNL1        0.0609
     27 C          -0.4374    2.2945   27.0720 C.3     1  UNL1        0.1687
     28 C          -0.6074    0.9476   27.7101 C.3     1  UNL1        0.0609
     29 C           0.0688    0.6447   29.0143 C.3     1  UNL1        0.0758
     30 C           2.6156    0.2928   31.0624 C.3     1  UNL1        0.0173
     31 C           1.5913    1.3859   30.9847 C.3     1  UNL1        0.0576
     32 C           1.2433    2.1761   32.2113 C.3     1  UNL1        0.0173
@<TRIPOS>BOND
     1    30    31    1
     2    31    32    1
     3    31    24    1
     4    24    25    1
     5    25    26    1
     6    26    27    1
     7    27    23    1
     8    23     1    1
     9     1     2   ar
    10     2     3   ar
    11     3     4   ar
    12     4     5   ar
    13     5     6   ar
    14     5     7   ar
    15     7     8   ar
    16     8    10    1
    17    10    11    2
    18    10    12   am
    19    12    13    1
    20    13    14    1
    21    14    15    1
    22    15    16    1
    23    15    17    1
    24    15    18    1
    25    18    19    1
    26     8     9   ar
    27     9    20    1
    28    20    21    1
    29    20    22    1
    30    27    28    1
    31    28    29    1
    32    29    24    1
    33     6     1   ar
    34    19    12    1
    35     9     4   ar
@<TRIPOS>MOLECULE
*****
 32 35 0 0 0
SMALL
GASTEIGER

@<TRIPOS>ATOM
      1 C           8.3560   -4.5331   24.0643 C.ar    1  UNL1        0.1385
      2 C           9.2038   -3.6939   23.1549 C.ar    1  UNL1        0.0384
      3 C           8.5691   -2.9316   22.0297 C.ar    1  UNL1        0.0203
      4 C           7.0867   -3.0085   21.8140 C.ar    1  UNL1        0.0601
      5 C           6.2390   -3.8477   22.7233 C.ar    1  UNL1        0.0204
      6 C           6.8736   -4.6100   23.8485 C.ar    1  UNL1        0.0384
      7 C           4.8146   -3.7306   22.2680 C.ar    1  UNL1        0.0234
      8 C           4.7820   -2.8191   21.0772 C.ar    1  UNL1        0.1141
      9 N           6.1862   -2.3728   20.7965 N.ar    1  UNL1       -0.3255
     10 C           3.5596   -2.4233   20.3030 C.2     1  UNL1        0.2649
     11 O           3.2100   -3.1429   19.0341 O.2     1  UNL1       -0.2683
     12 N           2.6870   -1.3081   20.7977 N.am    1  UNL1       -0.2745
     13 C           3.0366   -0.5886   22.0665 C.3     1  UNL1        0.0994
     14 C           2.1640    0.5267   22.5612 C.3     1  UNL1        0.0881
     15 C           0.9416    0.9224   21.7870 C.3     1  UNL1        0.2672
     16 F          -0.3102    1.6566   21.4077 F       1  UNL1       -0.2042
     17 F           0.8565    1.8969   22.9242 F       1  UNL1       -0.2042
     18 C           0.5920    0.2029   20.5181 C.3     1  UNL1        0.0881
     19 C           1.4647   -0.9124   20.0234 C.3     1  UNL1        0.0994
     20 C           6.6148   -1.4523   19.6924 C.3     1  UNL1        0.0857
     21 C           6.7399   -1.9704   18.2903 C.3     1  UNL1        0.0245
     22 C           6.9183   -0.0139   19.9904 C.3     1  UNL1        0.0245
     23 O           8.9907   -5.2955   25.1895 O.3     1  UNL1       -0.4791
     24 N           7.4675   -4.7862   29.3931 N.3     1  UNL1       -0.2737
     25 C           7.6511   -6.1616   28.8235 C.3     1  UNL1        0.0758
     26 C           8.1589   -6.3314   27.4222 C.3     1  UNL1        0.0609
     27 C           8.4829   -5.1258   26.5907 C.3     1  UNL1        0.1687
     28 C           8.2993   -3.7503   27.1605 C.3     1  UNL1        0.0609
     29 C           7.7915   -3.5806   28.5616 C.3     1  UNL1        0.0758
     30 C           6.4823   -3.2734   31.2615 C.3     1  UNL1        0.0173
     31 C           6.9597   -4.6165   30.7943 C.3     1  UNL1        0.0576
     32 C           6.9294   -5.7898   31.7284 C.3     1  UNL1        0.0173
@<TRIPOS>BOND
     1    30    31    1
     2    31    32    1
     3    31    24    1
     4    24    25    1
     5    25    26    1
     6    26    27    1
     7    27    23    1
     8    23     1    1
     9     1     2   ar
    10     2     3   ar
    11     3     4   ar
    12     4     5   ar
    13     5     6   ar
    14     5     7   ar
    15     7     8   ar
    16     8    10    1
    17    10    11    2
    18    10    12   am
    19    12    13    1
    20    13    14    1
    21    14    15    1
    22    15    16    1
    23    15    17    1
    24    15    18    1
    25    18    19    1
    26     8     9   ar
    27     9    20    1
    28    20    21    1
    29    20    22    1
    30    27    28    1
    31    28    29    1
    32    29    24    1
    33     6     1   ar
    34    19    12    1
    35     9     4   ar
@<TRIPOS>MOLECULE
*****
 32 35 0 0 0
SMALL
GASTEIGER

@<TRIPOS>ATOM
      1 C           2.3336    1.4864   23.5782 C.ar    1  UNL1        0.1385
      2 C           0.8371    1.3999   23.6339 C.ar    1  UNL1        0.0384
      3 C           0.1452    1.2126   24.9515 C.ar    1  UNL1        0.0203
      4 C           0.9498    1.1118   26.2134 C.ar    1  UNL1        0.0601
      5 C           2.4462    1.1983   26.1578 C.ar    1  UNL1        0.0204
      6 C           3.1381    1.3856   24.8402 C.ar    1  UNL1        0.0384
      7 C           2.9704    1.0669   27.5570 C.ar    1  UNL1        0.0234
      8 C           1.7980    0.8991   28.4775 C.ar    1  UNL1        0.1141
      9 N           0.5491    0.9269   27.6471 N.ar    1  UNL1       -0.3255
     10 C           1.8630    0.7328   29.9669 C.2     1  UNL1        0.2649
     11 O           2.1426   -0.6166   30.5593 O.2     1  UNL1       -0.2683
     12 N           1.6485    1.9158   30.8637 N.am    1  UNL1       -0.2745
     13 C           1.3690    3.2652   30.2713 C.3     1  UNL1        0.0994
     14 C           1.1545    4.4482   31.1681 C.3     1  UNL1        0.0881
     15 C           1.2195    4.2819   32.6575 C.3     1  UNL1        0.2672
     16 F           1.1831    4.6257   34.1171 F       1  UNL1       -0.2042
     17 F           0.9273    5.7507   32.5719 F       1  UNL1       -0.2042
     18 C           1.4991    2.9325   33.2499 C.3     1  UNL1        0.0881
     19 C           1.7136    1.7494   32.3530 C.3     1  UNL1        0.0994
     20 C          -0.8540    0.7932   28.1602 C.3     1  UNL1        0.0857
     21 C          -1.2961   -0.4838   28.8111 C.3     1  UNL1        0.0245
     22 C          -1.8151    1.9367   28.0225 C.3     1  UNL1        0.0245
     23 O           3.0256    1.6737   22.2605 O.3     1  UNL1       -0.4791
     24 N           4.1727   -1.9097   19.7921 N.3     1  UNL1       -0.2737
     25 C           5.2370   -1.0165   20.3572 C.3     1  UNL1        0.0758
     26 C           4.8546    0.1781   21.1800 C.3     1  UNL1        0.0609
     27 C           3.4079    0.4793   21.4378 C.3     1  UNL1        0.1687
     28 C           2.3436   -0.4141   20.8727 C.3     1  UNL1        0.0609
     29 C           2.7260   -1.6085   20.0499 C.3     1  UNL1        0.0758
     30 C           5.7794   -3.0580   18.1040 C.3     1  UNL1        0.0173
     31 C           4.5550   -3.1042   18.9694 C.3     1  UNL1        0.0576
     32 C           3.7131   -4.3449   19.0119 C.3     1  UNL1        0.0173
@<TRIPOS>BOND
     1    30    31    1
     2    31    32    1
     3    31    24    1
     4    24    25    1
     5    25    26    1
     6    26    27    1
     7    27    23    1
     8    23     1    1
     9     1     2   ar
    10     2     3   ar
    11     3     4   ar
    12     4     5   ar
    13     5     6   ar
    14     5     7   ar
    15     7     8   ar
    16     8    10    1
    17    10    11    2
    18    10    12   am
    19    12    13    1
    20    13    14    1
    21    14    15    1
    22    15    16    1
    23    15    17    1
    24    15    18    1
    25    18    19    1
    26     8     9   ar
    27     9    20    1
    28    20    21    1
    29    20    22    1
    30    27    28    1
    31    28    29    1
    32    29    24    1
    33     6     1   ar
    34    19    12    1
    35     9     4   ar
@<TRIPOS>MOLECULE
*****
 32 35 0 0 0
SMALL
GASTEIGER

@<TRIPOS>ATOM
      1 C           2.4433    2.9366   18.5960 C.ar    1  UNL1        0.1385
      2 C           2.0151    4.1737   17.8638 C.ar    1  UNL1        0.0384
      3 C           0.6505    4.7501   18.0994 C.ar    1  UNL1        0.0203
      4 C          -0.2859    4.0894   19.0672 C.ar    1  UNL1        0.0601
      5 C           0.1423    2.8523   19.7994 C.ar    1  UNL1        0.0204
      6 C           1.5069    2.2759   19.5638 C.ar    1  UNL1        0.0384
      7 C          -0.9889    2.4237   20.6864 C.ar    1  UNL1        0.0234
      8 C          -2.1162    3.3960   20.5024 C.ar    1  UNL1        0.1141
      9 N          -1.6818    4.4255   19.5017 N.ar    1  UNL1       -0.3255
     10 C          -3.4447    3.3473   21.1973 C.2     1  UNL1        0.2649
     11 O          -4.6987    3.1293   20.4035 O.2     1  UNL1       -0.2683
     12 N          -3.5193    3.5166   22.6858 N.am    1  UNL1       -0.2745
     13 C          -2.2653    3.7345   23.4796 C.3     1  UNL1        0.0994
     14 C          -2.3398    3.9038   24.9681 C.3     1  UNL1        0.0881
     15 C          -3.6684    3.8551   25.6629 C.3     1  UNL1        0.2672
     16 F          -4.6838    3.8858   26.7665 F       1  UNL1       -0.2042
     17 F          -2.7670    4.0838   26.8399 F       1  UNL1       -0.2042
     18 C          -4.9223    3.6372   24.8691 C.3     1  UNL1        0.0881
     19 C          -4.8478    3.4679   23.3805 C.3     1  UNL1        0.0994
     20 C          -2.4996    5.5870   19.0200 C.3     1  UNL1        0.0857
     21 C          -3.3893    5.4325   17.8224 C.3     1  UNL1        0.0245
     22 C          -2.4275    6.9031   19.7360 C.3     1  UNL1        0.0245
     23 O           3.8080    2.3601   18.3604 O.3     1  UNL1       -0.4791
     24 N           4.5896   -1.9901   19.2059 N.3     1  UNL1       -0.2737
     25 C           3.9653   -1.5792   17.9054 C.3     1  UNL1        0.0758
     26 C           3.7047   -0.1291   17.6235 C.3     1  UNL1        0.0609
     27 C           4.0685    0.9101   18.6422 C.3     1  UNL1        0.1687
     28 C           4.6928    0.4992   19.9428 C.3     1  UNL1        0.0609
     29 C           4.9533   -0.9509   20.2246 C.3     1  UNL1        0.0758
     30 C           3.8679   -4.4801   19.0364 C.3     1  UNL1        0.0173
     31 C           4.8501   -3.4401   19.4877 C.3     1  UNL1        0.0576
     32 C           6.0928   -3.8502   20.2210 C.3     1  UNL1        0.0173
@<TRIPOS>BOND
     1    30    31    1
     2    31    32    1
     3    31    24    1
     4    24    25    1
     5    25    26    1
     6    26    27    1
     7    27    23    1
     8    23     1    1
     9     1     2   ar
    10     2     3   ar
    11     3     4   ar
    12     4     5   ar
    13     5     6   ar
    14     5     7   ar
    15     7     8   ar
    16     8    10    1
    17    10    11    2
    18    10    12   am
    19    12    13    1
    20    13    14    1
    21    14    15    1
    22    15    16    1
    23    15    17    1
    24    15    18    1
    25    18    19    1
    26     8     9   ar
    27     9    20    1
    28    20    21    1
    29    20    22    1
    30    27    28    1
    31    28    29    1
    32    29    24    1
    33     6     1   ar
    34    19    12    1
    35     9     4   ar
@<TRIPOS>MOLECULE
*****
 32 35 0 0 0
SMALL
GASTEIGER

@<TRIPOS>ATOM
      1 C           0.6846    2.7022   18.5963 C.ar    1  UNL1        0.1385
      2 C           1.8391    3.6197   18.3224 C.ar    1  UNL1        0.0384
      3 C           3.2334    3.0709   18.2539 C.ar    1  UNL1        0.0203
      4 C           3.4731    1.6045   18.4593 C.ar    1  UNL1        0.0601
      5 C           2.3186    0.6869   18.7332 C.ar    1  UNL1        0.0204
      6 C           0.9243    1.2358   18.8017 C.ar    1  UNL1        0.0384
      7 C           2.8591   -0.7031   18.8930 C.ar    1  UNL1        0.0234
      8 C           4.3477   -0.6447   18.7179 C.ar    1  UNL1        0.1141
      9 N           4.7272    0.7815   18.4498 N.ar    1  UNL1       -0.3255
     10 C           5.2911   -1.8082   18.7969 C.2     1  UNL1        0.2649
     11 O           5.9334   -2.3391   17.5496 O.2     1  UNL1       -0.2683
     12 N           5.5923   -2.4408   20.1232 N.am    1  UNL1       -0.2745
     13 C           4.9501   -1.9099   21.3705 C.3     1  UNL1        0.0994
     14 C           5.2513   -2.5425   22.6968 C.3     1  UNL1        0.0881
     15 C           6.1947   -3.7061   22.7758 C.3     1  UNL1        0.2672
     16 F           7.0138   -4.8195   23.3583 F       1  UNL1       -0.2042
     17 F           5.8370   -3.5618   24.2254 F       1  UNL1       -0.2042
     18 C           6.8369   -4.2370   21.5285 C.3     1  UNL1        0.0881
     19 C           6.5357   -3.6043   20.2022 C.3     1  UNL1        0.0994
     20 C           6.1168    1.2947   18.2137 C.3     1  UNL1        0.0857
     21 C           6.9563    1.7466   19.3718 C.3     1  UNL1        0.0245
     22 C           6.6669    1.3560   16.8196 C.3     1  UNL1        0.0245
     23 O          -0.7098    3.2510   18.6648 O.3     1  UNL1       -0.4791
     24 N          -2.7976    3.6006   22.6358 N.3     1  UNL1       -0.2737
     25 C          -3.6002    3.4682   21.3756 C.3     1  UNL1        0.0758
     26 C          -2.9043    3.3517   20.0519 C.3     1  UNL1        0.0609
     27 C          -1.4057    3.3675   19.9884 C.3     1  UNL1        0.1687
     28 C          -0.6031    3.4999   21.2488 C.3     1  UNL1        0.0609
     29 C          -1.2990    3.6165   22.5724 C.3     1  UNL1        0.0758
     30 C          -4.9231    3.2841   24.0958 C.3     1  UNL1        0.0173
     31 C          -3.4935    3.7172   23.9594 C.3     1  UNL1        0.0576
     32 C          -2.7598    4.2668   25.1468 C.3     1  UNL1        0.0173
@<TRIPOS>BOND
     1    30    31    1
     2    31    32    1
     3    31    24    1
     4    24    25    1
     5    25    26    1
     6    26    27    1
     7    27    23    1
     8    23     1    1
     9     1     2   ar
    10     2     3   ar
    11     3     4   ar
    12     4     5   ar
    13     5     6   ar
    14     5     7   ar
    15     7     8   ar
    16     8    10    1
    17    10    11    2
    18    10    12   am
    19    12    13    1
    20    13    14    1
    21    14    15    1
    22    15    16    1
    23    15    17    1
    24    15    18    1
    25    18    19    1
    26     8     9   ar
    27     9    20    1
    28    20    21    1
    29    20    22    1
    30    27    28    1
    31    28    29    1
    32    29    24    1
    33     6     1   ar
    34    19    12    1
    35     9     4   ar
@<TRIPOS>MOLECULE
*****
 32 35 0 0 0
SMALL
GASTEIGER

@<TRIPOS>ATOM
      1 C           1.1178    2.3568   28.6821 C.ar    1  UNL1        0.1385
      2 C           2.1780    3.3321   28.2643 C.ar    1  UNL1        0.0384
      3 C           2.4973    3.5155   26.8102 C.ar    1  UNL1        0.0203
      4 C           1.7565    2.7234   25.7740 C.ar    1  UNL1        0.0601
      5 C           0.6963    1.7481   26.1918 C.ar    1  UNL1        0.0204
      6 C           0.3769    1.5647   27.6458 C.ar    1  UNL1        0.0384
      7 C           0.1373    1.1124   24.9534 C.ar    1  UNL1        0.0234
      8 C           0.8520    1.6950   23.7703 C.ar    1  UNL1        0.1141
      9 N           1.8527    2.6906   24.2773 N.ar    1  UNL1       -0.3255
     10 C           0.6086    1.3435   22.3324 C.2     1  UNL1        0.2649
     11 O          -0.4942    2.0182   21.5717 O.2     1  UNL1       -0.2683
     12 N           1.4681    0.3174   21.6553 N.am    1  UNL1       -0.2745
     13 C           2.5709   -0.3572   22.4160 C.3     1  UNL1        0.0994
     14 C           3.4303   -1.3833   21.7389 C.3     1  UNL1        0.0881
     15 C           3.1870   -1.7348   20.3011 C.3     1  UNL1        0.2672
     16 F           3.3458   -2.4009   18.9665 F       1  UNL1       -0.2042
     17 F           4.3450   -2.6408   20.5983 F       1  UNL1       -0.2042
     18 C           2.0842   -1.0601   19.5404 C.3     1  UNL1        0.0881
     19 C           1.2247   -0.0340   20.2176 C.3     1  UNL1        0.0994
     20 C           2.7859    3.5097   23.4357 C.3     1  UNL1        0.0857
     21 C           2.3206    4.8085   22.8471 C.3     1  UNL1        0.0245
     22 C           4.1843    3.0299   23.1826 C.3     1  UNL1        0.0245
     23 O           0.7983    2.1734   30.1362 O.3     1  UNL1       -0.4791
     24 N           3.4868   -0.3338   32.7316 N.3     1  UNL1       -0.2737
     25 C           2.9470    0.9672   33.2472 C.3     1  UNL1        0.0758
     26 C           2.0509    1.8030   32.3821 C.3     1  UNL1        0.0609
     27 C           1.6945    1.3377   31.0014 C.3     1  UNL1        0.1687
     28 C           2.2342    0.0365   30.4858 C.3     1  UNL1        0.0609
     29 C           3.1303   -0.7992   31.3509 C.3     1  UNL1        0.0758
     30 C           5.0152   -0.5725   34.8189 C.3     1  UNL1        0.0173
     31 C           4.3829   -1.1695   33.5968 C.3     1  UNL1        0.0576
     32 C           4.6467   -2.6024   33.2398 C.3     1  UNL1        0.0173
@<TRIPOS>BOND
     1    30    31    1
     2    31    32    1
     3    31    24    1
     4    24    25    1
     5    25    26    1
     6    26    27    1
     7    27    23    1
     8    23     1    1
     9     1     2   ar
    10     2     3   ar
    11     3     4   ar
    12     4     5   ar
    13     5     6   ar
    14     5     7   ar
    15     7     8   ar
    16     8    10    1
    17    10    11    2
    18    10    12   am
    19    12    13    1
    20    13    14    1
    21    14    15    1
    22    15    16    1
    23    15    17    1
    24    15    18    1
    25    18    19    1
    26     8     9   ar
    27     9    20    1
    28    20    21    1
    29    20    22    1
    30    27    28    1
    31    28    29    1
    32    29    24    1
    33     6     1   ar
    34    19    12    1
    35     9     4   ar
