@<TRIPOS>MOLECULE
*****
 37 42 0 0 0
SMALL
GASTEIGER

@<TRIPOS>ATOM
      1 C          -1.6150    3.1886   26.3727 C.ar    1  UNL1        0.0140
      2 C          -0.8464    2.7066   27.5672 C.ar    1  UNL1        0.0011
      3 C           0.3755    1.8569   27.3799 C.ar    1  UNL1        0.0000
      4 C           0.8287    1.4892   25.9981 C.ar    1  UNL1        0.0000
      5 C           2.0506    0.6396   25.8108 C.ar    1  UNL1        0.0000
      6 C           2.5038    0.2719   24.4290 C.ar    1  UNL1       -0.0000
      7 C           1.7352    0.7539   23.2345 C.ar    1  UNL1       -0.0000
      8 C           0.5133    1.6036   23.4218 C.ar    1  UNL1        0.0000
      9 C           0.0601    1.9713   24.8036 C.ar    1  UNL1        0.0000
     10 C          -1.1618    2.8210   24.9909 C.ar    1  UNL1        0.0011
     11 C           1.1441    1.3749   28.5745 C.ar    1  UNL1       -0.0000
     12 C           1.1052   -0.0751   28.9562 C.ar    1  UNL1       -0.0003
     13 C           1.8739   -0.5571   30.1507 C.ar    1  UNL1       -0.0043
     14 C           2.6814    0.4109   30.9635 C.ar    1  UNL1       -0.0224
     15 C           2.7203    1.8611   30.5818 C.ar    1  UNL1       -0.0043
     16 C           1.9517    2.3431   29.3873 C.ar    1  UNL1       -0.0003
     17 C           3.4500   -0.0711   32.1580 C.3     1  UNL1        0.0250
     18 C           4.1827   -1.3754   32.2674 C.3     1  UNL1        0.0201
     19 C           4.8065   -1.4438   33.6299 C.3     1  UNL1        0.0544
     20 C           3.9681   -0.5955   32.7202 C.3     1  UNL1        0.0174
     21 C           3.6209    0.6665   33.4529 C.3     1  UNL1        0.0212
     22 C           4.2446    0.5980   34.8153 C.3     1  UNL1        0.0689
     23 N           4.9773   -0.7062   34.9247 N.3     1  UNL1       -0.2985
     24 H           4.5904   -1.2574   35.6907 H       1  UNL1        0.1232
     25 C           2.1884    0.3862   21.8527 C.ar    1  UNL1       -0.0000
     26 C           2.8138   -0.9536   21.6002 C.ar    1  UNL1       -0.0001
     27 C           3.2671   -1.3213   20.2183 C.ar    1  UNL1        0.0039
     28 C           3.0949   -0.3491   19.0890 C.ar    1  UNL1        0.0714
     29 C           2.4695    0.9907   19.3416 C.ar    1  UNL1        0.0039
     30 C           2.0163    1.3584   20.7234 C.ar    1  UNL1       -0.0001
     31 C           3.5481   -0.7167   17.7073 C.3     1  UNL1        0.4186
     32 F           4.0014   -1.0844   16.3255 F       1  UNL1       -0.1659
     33 F           3.6176   -2.1589   18.1137 F       1  UNL1       -0.1659
     34 F           3.4787    0.7254   17.3008 F       1  UNL1       -0.1659
     35 O          -2.7376    5.3438   27.2921 O.co2   1  UNL1       -0.5446
     36 C          -2.8369    4.0383   26.5600 C.2     1  UNL1        0.0729
     37 O          -4.1581    3.5825   26.0153 O.co2   1  UNL1       -0.5446
@<TRIPOS>UNITY_ATOM_ATTR
35 1
charge -1
@<TRIPOS>BOND
     1    35    36   ar
     2    36    37   ar
     3    36     1    1
     4     1     2   ar
     5     2     3   ar
     6     3    11    1
     7    11    12   ar
     8    12    13   ar
     9    13    14   ar
    10    17    14    1
    11    17    18    1
    12    19    18    1
    13    19    20    1
    14    20    21    1
    15    21    22    1
    16    22    23    1
    17    14    15   ar
    18    15    16   ar
    19     3     4   ar
    20     4     5   ar
    21     5     6   ar
    22     6     7   ar
    23     7    25    1
    24    25    26   ar
    25    26    27   ar
    26    27    28   ar
    27    28    31    1
    28    31    32    1
    29    31    33    1
    30    31    34    1
    31    28    29   ar
    32    29    30   ar
    33     7     8   ar
    34     8     9   ar
    35     9    10   ar
    36    10     1   ar
    37    16    11   ar
    38     9     4   ar
    39    21    17    1
    40    30    25   ar
    41    23    19    1
    42    23    24    1
@<TRIPOS>MOLECULE
*****
 37 42 0 0 0
SMALL
GASTEIGER

@<TRIPOS>ATOM
      1 C          -1.2900    3.0234   26.0391 C.ar    1  UNL1        0.0140
      2 C          -0.6640    2.4033   24.8252 C.ar    1  UNL1        0.0011
      3 C           0.5231    1.4983   24.9729 C.ar    1  UNL1        0.0000
      4 C           1.0841    1.2134   26.3346 C.ar    1  UNL1        0.0000
      5 C           2.2712    0.3084   26.4822 C.ar    1  UNL1        0.0000
      6 C           2.8322    0.0235   27.8439 C.ar    1  UNL1       -0.0000
      7 C           2.2062    0.6435   29.0578 C.ar    1  UNL1       -0.0000
      8 C           1.0191    1.5485   28.9101 C.ar    1  UNL1        0.0000
      9 C           0.4581    1.8334   27.5485 C.ar    1  UNL1        0.0000
     10 C          -0.7290    2.7384   27.4007 C.ar    1  UNL1        0.0011
     11 C           1.1491    0.8783   23.7590 C.ar    1  UNL1       -0.0000
     12 C           2.3771    0.0284   23.8996 C.ar    1  UNL1       -0.0003
     13 C           3.0031   -0.5916   22.6857 C.ar    1  UNL1       -0.0043
     14 C           2.4012   -0.3618   21.3311 C.ar    1  UNL1       -0.0224
     15 C           1.1732    0.4881   21.1904 C.ar    1  UNL1       -0.0043
     16 C           0.5471    1.1081   22.4044 C.ar    1  UNL1       -0.0003
     17 C           3.0272   -0.9819   20.1172 C.3     1  UNL1        0.0250
     18 C           3.5366   -2.3886   20.0089 C.3     1  UNL1        0.0201
     19 C           4.0780   -2.5802   18.6232 C.3     1  UNL1        0.0544
     20 C           3.4286   -1.5924   19.5466 C.3     1  UNL1        0.0174
     21 C           3.2538   -0.3041   18.7984 C.3     1  UNL1        0.0212
     22 C           3.7952   -0.4958   17.4127 C.3     1  UNL1        0.0689
     23 N           4.3046   -1.9024   17.3045 N.3     1  UNL1       -0.2985
     24 H           5.3009   -1.8939   17.0863 H       1  UNL1        0.1232
     25 C           2.7672    0.3586   30.4194 C.ar    1  UNL1       -0.0000
     26 C           3.6593   -0.8288   30.6296 C.ar    1  UNL1       -0.0001
     27 C           4.2204   -1.1138   31.9912 C.ar    1  UNL1        0.0039
     28 C           3.8894   -0.2113   33.1427 C.ar    1  UNL1        0.0714
     29 C           2.9972    0.9762   32.9325 C.ar    1  UNL1        0.0039
     30 C           2.4362    1.2611   31.5709 C.ar    1  UNL1       -0.0001
     31 C           4.4504   -0.4962   34.5043 C.3     1  UNL1        0.4186
     32 F           5.0114   -0.7811   35.8659 F       1  UNL1       -0.1659
     33 F           4.0135   -1.9262   34.3851 F       1  UNL1       -0.1659
     34 F           4.8873    0.9337   34.6235 F       1  UNL1       -0.1659
     35 O          -3.6888    3.7226   26.7514 O.co2   1  UNL1       -0.5446
     36 C          -2.4772    3.9284   25.8914 C.2     1  UNL1        0.0729
     37 O          -2.4526    5.0391   24.8836 O.co2   1  UNL1       -0.5446
@<TRIPOS>UNITY_ATOM_ATTR
35 1
charge -1
@<TRIPOS>BOND
     1    35    36   ar
     2    36    37   ar
     3    36     1    1
     4     1     2   ar
     5     2     3   ar
     6     3    11    1
     7    11    12   ar
     8    12    13   ar
     9    13    14   ar
    10    17    14    1
    11    17    18    1
    12    19    18    1
    13    19    20    1
    14    20    21    1
    15    21    22    1
    16    22    23    1
    17    14    15   ar
    18    15    16   ar
    19     3     4   ar
    20     4     5   ar
    21     5     6   ar
    22     6     7   ar
    23     7    25    1
    24    25    26   ar
    25    26    27   ar
    26    27    28   ar
    27    28    31    1
    28    31    32    1
    29    31    33    1
    30    31    34    1
    31    28    29   ar
    32    29    30   ar
    33     7     8   ar
    34     8     9   ar
    35     9    10   ar
    36    10     1   ar
    37    16    11   ar
    38     9     4   ar
    39    21    17    1
    40    30    25   ar
    41    23    19    1
    42    23    24    1
@<TRIPOS>MOLECULE
*****
 37 42 0 0 0
SMALL
GASTEIGER

@<TRIPOS>ATOM
      1 C           2.2364    0.1787   27.7324 C.ar    1  UNL1        0.0140
      2 C           2.9128    0.0161   26.4035 C.ar    1  UNL1        0.0011
      3 C           2.2873    0.5927   25.1681 C.ar    1  UNL1        0.0000
      4 C           0.9854    1.3319   25.2616 C.ar    1  UNL1        0.0000
      5 C           0.3599    1.9084   24.0261 C.ar    1  UNL1        0.0000
      6 C          -0.9419    2.6476   24.1196 C.ar    1  UNL1       -0.0000
      7 C          -1.6183    2.8102   25.4486 C.ar    1  UNL1       -0.0000
      8 C          -0.9929    2.2336   26.6840 C.ar    1  UNL1        0.0000
      9 C           0.3090    1.4944   26.5905 C.ar    1  UNL1        0.0000
     10 C           0.9345    0.9178   27.8260 C.ar    1  UNL1        0.0011
     11 C           2.9637    0.4301   23.8392 C.ar    1  UNL1       -0.0000
     12 C           3.8199    1.5342   23.2933 C.ar    1  UNL1       -0.0003
     13 C           4.4963    1.3716   21.9644 C.ar    1  UNL1       -0.0043
     14 C           4.3165    0.1050   21.1813 C.ar    1  UNL1       -0.0224
     15 C           3.4603   -0.9992   21.7271 C.ar    1  UNL1       -0.0043
     16 C           2.7839   -0.8366   23.0561 C.ar    1  UNL1       -0.0003
     17 C           4.9929   -0.0576   19.8524 C.3     1  UNL1        0.0250
     18 C           4.6934    0.7260   18.6089 C.3     1  UNL1        0.0201
     19 C           5.6030    0.2356   17.5216 C.3     1  UNL1        0.0544
     20 C           5.2259    0.0544   18.9621 C.3     1  UNL1        0.0174
     21 C           6.0875   -1.0323   19.5336 C.3     1  UNL1        0.0212
     22 C           6.9971   -1.5228   18.4463 C.3     1  UNL1        0.0689
     23 N           6.6976   -0.7391   17.2029 N.3     1  UNL1       -0.2985
     24 H           6.3942   -1.3699   16.4609 H       1  UNL1        0.1232
     25 C          -2.9203    3.5493   25.5420 C.ar    1  UNL1       -0.0000
     26 C          -3.8292    3.6210   24.3510 C.ar    1  UNL1       -0.0001
     27 C          -5.1311    4.3602   24.4444 C.ar    1  UNL1        0.0039
     28 C          -5.5240    5.0277   25.7290 C.ar    1  UNL1        0.0714
     29 C          -4.6150    4.9560   26.9201 C.ar    1  UNL1        0.0039
     30 C          -3.3132    4.2168   26.8266 C.ar    1  UNL1       -0.0001
     31 C          -6.8259    5.7669   25.8225 C.3     1  UNL1        0.4186
     32 F          -8.1277    6.5060   25.9160 F       1  UNL1       -0.1659
     33 F          -6.9338    5.7660   24.3264 F       1  UNL1       -0.1659
     34 F          -6.7179    5.7677   27.3186 F       1  UNL1       -0.1659
     35 O           2.0210   -0.6598   30.1821 O.co2   1  UNL1       -0.5446
     36 C           2.8619   -0.3979   28.9679 C.2     1  UNL1        0.0729
     37 O           4.3283   -0.7127   28.9891 O.co2   1  UNL1       -0.5446
@<TRIPOS>UNITY_ATOM_ATTR
35 1
charge -1
@<TRIPOS>BOND
     1    35    36   ar
     2    36    37   ar
     3    36     1    1
     4     1     2   ar
     5     2     3   ar
     6     3    11    1
     7    11    12   ar
     8    12    13   ar
     9    13    14   ar
    10    17    14    1
    11    17    18    1
    12    19    18    1
    13    19    20    1
    14    20    21    1
    15    21    22    1
    16    22    23    1
    17    14    15   ar
    18    15    16   ar
    19     3     4   ar
    20     4     5   ar
    21     5     6   ar
    22     6     7   ar
    23     7    25    1
    24    25    26   ar
    25    26    27   ar
    26    27    28   ar
    27    28    31    1
    28    31    32    1
    29    31    33    1
    30    31    34    1
    31    28    29   ar
    32    29    30   ar
    33     7     8   ar
    34     8     9   ar
    35     9    10   ar
    36    10     1   ar
    37    16    11   ar
    38     9     4   ar
    39    21    17    1
    40    30    25   ar
    41    23    19    1
    42    23    24    1
@<TRIPOS>MOLECULE
*****
 37 42 0 0 0
SMALL
GASTEIGER

@<TRIPOS>ATOM
      1 C          -1.6071    3.9344   24.6009 C.ar    1  UNL1        0.0140
      2 C          -1.1646    3.8539   26.0319 C.ar    1  UNL1        0.0011
      3 C          -0.0712    2.9059   26.4266 C.ar    1  UNL1        0.0000
      4 C           0.5796    2.0383   25.3902 C.ar    1  UNL1        0.0000
      5 C           1.6730    1.0903   25.7849 C.ar    1  UNL1        0.0000
      6 C           2.3238    0.2229   24.7487 C.ar    1  UNL1       -0.0000
      7 C           1.8812    0.3034   23.3177 C.ar    1  UNL1       -0.0000
      8 C           0.7879    1.2514   22.9230 C.ar    1  UNL1        0.0000
      9 C           0.1371    2.1189   23.9593 C.ar    1  UNL1        0.0000
     10 C          -0.9563    3.0670   23.5646 C.ar    1  UNL1        0.0011
     11 C           0.3713    2.8253   27.8575 C.ar    1  UNL1       -0.0000
     12 C           1.3501    3.8256   28.3973 C.ar    1  UNL1       -0.0003
     13 C           1.7927    3.7450   29.8283 C.ar    1  UNL1       -0.0043
     14 C           1.2565    2.6642   30.7194 C.ar    1  UNL1       -0.0224
     15 C           0.2776    1.6639   30.1797 C.ar    1  UNL1       -0.0043
     16 C          -0.1649    1.7444   28.7487 C.ar    1  UNL1       -0.0003
     17 C           1.6990    2.5837   32.1504 C.3     1  UNL1        0.0250
     18 C           2.5678    1.5157   32.7458 C.3     1  UNL1        0.0201
     19 C           2.7562    1.8289   34.2006 C.3     1  UNL1        0.0544
     20 C           2.1028    2.2954   32.9335 C.3     1  UNL1        0.0174
     21 C           1.3505    3.5570   33.2372 C.3     1  UNL1        0.0212
     22 C           1.5389    3.8702   34.6920 C.3     1  UNL1        0.0689
     23 N           2.4077    2.8022   35.2873 N.3     1  UNL1       -0.2985
     24 H           1.9041    2.3224   36.0334 H       1  UNL1        0.1232
     25 C           2.5321   -0.5641   22.2814 C.ar    1  UNL1       -0.0000
     26 C           2.0667   -0.5081   20.8565 C.ar    1  UNL1       -0.0001
     27 C           2.7176   -1.3756   19.8202 C.ar    1  UNL1        0.0039
     28 C           3.8338   -2.2992   20.2089 C.ar    1  UNL1        0.0714
     29 C           4.2992   -2.3552   21.6338 C.ar    1  UNL1        0.0039
     30 C           3.6483   -1.4877   22.6700 C.ar    1  UNL1       -0.0001
     31 C           4.4846   -3.1667   19.1727 C.3     1  UNL1        0.4186
     32 F           5.1355   -4.0342   18.1365 F       1  UNL1       -0.1659
     33 F           3.2164   -3.9559   19.0368 F       1  UNL1       -0.1659
     34 F           5.7529   -2.3774   19.3085 F       1  UNL1       -0.1659
     35 O          -3.1849    4.9198   22.7871 O.co2   1  UNL1       -0.5446
     36 C          -2.7005    4.8825   24.2062 C.2     1  UNL1        0.0729
     37 O          -3.3095    5.7932   25.2308 O.co2   1  UNL1       -0.5446
@<TRIPOS>UNITY_ATOM_ATTR
35 1
charge -1
@<TRIPOS>BOND
     1    35    36   ar
     2    36    37   ar
     3    36     1    1
     4     1     2   ar
     5     2     3   ar
     6     3    11    1
     7    11    12   ar
     8    12    13   ar
     9    13    14   ar
    10    17    14    1
    11    17    18    1
    12    19    18    1
    13    19    20    1
    14    20    21    1
    15    21    22    1
    16    22    23    1
    17    14    15   ar
    18    15    16   ar
    19     3     4   ar
    20     4     5   ar
    21     5     6   ar
    22     6     7   ar
    23     7    25    1
    24    25    26   ar
    25    26    27   ar
    26    27    28   ar
    27    28    31    1
    28    31    32    1
    29    31    33    1
    30    31    34    1
    31    28    29   ar
    32    29    30   ar
    33     7     8   ar
    34     8     9   ar
    35     9    10   ar
    36    10     1   ar
    37    16    11   ar
    38     9     4   ar
    39    21    17    1
    40    30    25   ar
    41    23    19    1
    42    23    24    1
@<TRIPOS>MOLECULE
*****
 37 42 0 0 0
SMALL
GASTEIGER

@<TRIPOS>ATOM
      1 C           3.9677   -3.3972   20.3335 C.ar    1  UNL1        0.0140
      2 C           3.1939   -2.2365   19.7819 C.ar    1  UNL1        0.0011
      3 C           2.7929   -1.1064   20.6829 C.ar    1  UNL1        0.0000
      4 C           3.1656   -1.1368   22.1356 C.ar    1  UNL1        0.0000
      5 C           2.7646   -0.0066   23.0365 C.ar    1  UNL1        0.0000
      6 C           3.1373   -0.0371   24.4892 C.ar    1  UNL1       -0.0000
      7 C           3.9110   -1.1977   25.0408 C.ar    1  UNL1       -0.0000
      8 C           4.3120   -2.3279   24.1398 C.ar    1  UNL1        0.0000
      9 C           3.9393   -2.2974   22.6872 C.ar    1  UNL1        0.0000
     10 C           4.3403   -3.4276   21.7861 C.ar    1  UNL1        0.0011
     11 C           2.0192    0.0543   20.1312 C.ar    1  UNL1       -0.0000
     12 C           0.5608    0.2025   20.4493 C.ar    1  UNL1       -0.0003
     13 C          -0.2129    1.3632   19.8976 C.ar    1  UNL1       -0.0043
     14 C           0.4718    2.3756   19.0280 C.ar    1  UNL1       -0.0224
     15 C           1.9302    2.2273   18.7099 C.ar    1  UNL1       -0.0043
     16 C           2.7039    1.0667   19.2616 C.ar    1  UNL1       -0.0003
     17 C          -0.3019    3.5362   18.4764 C.3     1  UNL1        0.0250
     18 C          -0.5494    4.8416   19.1726 C.3     1  UNL1        0.0201
     19 C          -1.3645    5.7074   18.2582 C.3     1  UNL1        0.0544
     20 C          -0.7078    4.3655   18.3931 C.3     1  UNL1        0.0174
     21 C          -0.9640    3.5952   17.1317 C.3     1  UNL1        0.0212
     22 C          -1.7791    4.4611   16.2173 C.3     1  UNL1        0.0689
     23 N          -2.0265    5.7664   16.9135 N.3     1  UNL1       -0.2985
     24 H          -3.0294    5.9131   17.0277 H       1  UNL1        0.1232
     25 C           4.2837   -1.2281   26.4935 C.ar    1  UNL1       -0.0000
     26 C           3.4356   -0.5094   27.5005 C.ar    1  UNL1       -0.0001
     27 C           3.8083   -0.5398   28.9532 C.ar    1  UNL1        0.0039
     28 C           5.0291   -1.2890   29.3988 C.ar    1  UNL1        0.0714
     29 C           5.8771   -2.0077   28.3916 C.ar    1  UNL1        0.0039
     30 C           5.5044   -1.9773   26.9390 C.ar    1  UNL1       -0.0001
     31 C           5.4018   -1.3194   30.8514 C.3     1  UNL1        0.4186
     32 F           5.7745   -1.3499   32.3040 F       1  UNL1       -0.1659
     33 F           6.8353   -1.5557   30.4786 F       1  UNL1       -0.1659
     34 F           3.9682   -1.0831   31.2242 F       1  UNL1       -0.1659
     35 O           3.9110   -5.9241   19.7320 O.co2   1  UNL1       -0.5446
     36 C           4.3687   -4.5274   19.4324 C.2     1  UNL1        0.0729
     37 O           5.2274   -4.2609   18.2318 O.co2   1  UNL1       -0.5446
@<TRIPOS>UNITY_ATOM_ATTR
35 1
charge -1
@<TRIPOS>BOND
     1    35    36   ar
     2    36    37   ar
     3    36     1    1
     4     1     2   ar
     5     2     3   ar
     6     3    11    1
     7    11    12   ar
     8    12    13   ar
     9    13    14   ar
    10    17    14    1
    11    17    18    1
    12    19    18    1
    13    19    20    1
    14    20    21    1
    15    21    22    1
    16    22    23    1
    17    14    15   ar
    18    15    16   ar
    19     3     4   ar
    20     4     5   ar
    21     5     6   ar
    22     6     7   ar
    23     7    25    1
    24    25    26   ar
    25    26    27   ar
    26    27    28   ar
    27    28    31    1
    28    31    32    1
    29    31    33    1
    30    31    34    1
    31    28    29   ar
    32    29    30   ar
    33     7     8   ar
    34     8     9   ar
    35     9    10   ar
    36    10     1   ar
    37    16    11   ar
    38     9     4   ar
    39    21    17    1
    40    30    25   ar
    41    23    19    1
    42    23    24    1
@<TRIPOS>MOLECULE
*****
 37 42 0 0 0
SMALL
GASTEIGER

@<TRIPOS>ATOM
      1 C          -2.8820    3.6715   24.9569 C.ar    1  UNL1        0.0140
      2 C          -2.2393    3.4504   26.2941 C.ar    1  UNL1        0.0011
      3 C          -0.9021    2.7766   26.3814 C.ar    1  UNL1        0.0000
      4 C          -0.2074    2.3238   25.1313 C.ar    1  UNL1        0.0000
      5 C           1.1299    1.6500   25.2186 C.ar    1  UNL1        0.0000
      6 C           1.8245    1.1973   23.9686 C.ar    1  UNL1       -0.0000
      7 C           1.1819    1.4184   22.6314 C.ar    1  UNL1       -0.0000
      8 C          -0.1554    2.0922   22.5441 C.ar    1  UNL1        0.0000
      9 C          -0.8500    2.5449   23.7941 C.ar    1  UNL1        0.0000
     10 C          -2.1873    3.2188   23.7069 C.ar    1  UNL1        0.0011
     11 C          -0.2594    2.5554   27.7186 C.ar    1  UNL1       -0.0000
     12 C           0.6200    3.6155   28.3125 C.ar    1  UNL1       -0.0003
     13 C           1.2627    3.3943   29.6497 C.ar    1  UNL1       -0.0043
     14 C           1.0258    2.1132   30.3930 C.ar    1  UNL1       -0.0224
     15 C           0.1463    1.0531   29.7991 C.ar    1  UNL1       -0.0043
     16 C          -0.4963    1.2742   28.4618 C.ar    1  UNL1       -0.0003
     17 C           1.6684    1.8920   31.7302 C.3     1  UNL1        0.0250
     18 C           1.4063    2.6848   32.9763 C.3     1  UNL1        0.0201
     19 C           2.2619    2.1220   34.0724 C.3     1  UNL1        0.0544
     20 C           1.8951    1.9799   32.6248 C.3     1  UNL1        0.0174
     21 C           2.6861    0.8394   32.0561 C.3     1  UNL1        0.0212
     22 C           3.5417    0.2766   33.1521 C.3     1  UNL1        0.0689
     23 N           3.2795    1.0694   34.3982 N.3     1  UNL1       -0.2985
     24 H           4.1428    1.5093   34.7166 H       1  UNL1        0.1232
     25 C           1.8766    0.9657   21.3813 C.ar    1  UNL1       -0.0000
     26 C           2.3740    1.9770   20.3915 C.ar    1  UNL1       -0.0001
     27 C           3.0687    1.5242   19.1415 C.ar    1  UNL1        0.0039
     28 C           3.2659    0.0602   18.8814 C.ar    1  UNL1        0.0714
     29 C           2.7685   -0.9512   19.8713 C.ar    1  UNL1        0.0039
     30 C           2.0738   -0.4984   21.1212 C.ar    1  UNL1       -0.0001
     31 C           3.9606   -0.3926   17.6314 C.3     1  UNL1        0.4186
     32 F           4.6553   -0.8454   16.3815 F       1  UNL1       -0.1659
     33 F           4.3261    1.0284   17.3198 F       1  UNL1       -0.1659
     34 F           3.5951   -1.8136   17.9430 F       1  UNL1       -0.1659
     35 O          -5.4509    3.6320   25.3432 O.co2   1  UNL1       -0.5446
     36 C          -4.2193    4.3454   24.8697 C.2     1  UNL1        0.0729
     37 O          -4.3249    5.7326   24.3090 O.co2   1  UNL1       -0.5446
@<TRIPOS>UNITY_ATOM_ATTR
35 1
charge -1
@<TRIPOS>BOND
     1    35    36   ar
     2    36    37   ar
     3    36     1    1
     4     1     2   ar
     5     2     3   ar
     6     3    11    1
     7    11    12   ar
     8    12    13   ar
     9    13    14   ar
    10    17    14    1
    11    17    18    1
    12    19    18    1
    13    19    20    1
    14    20    21    1
    15    21    22    1
    16    22    23    1
    17    14    15   ar
    18    15    16   ar
    19     3     4   ar
    20     4     5   ar
    21     5     6   ar
    22     6     7   ar
    23     7    25    1
    24    25    26   ar
    25    26    27   ar
    26    27    28   ar
    27    28    31    1
    28    31    32    1
    29    31    33    1
    30    31    34    1
    31    28    29   ar
    32    29    30   ar
    33     7     8   ar
    34     8     9   ar
    35     9    10   ar
    36    10     1   ar
    37    16    11   ar
    38     9     4   ar
    39    21    17    1
    40    30    25   ar
    41    23    19    1
    42    23    24    1
@<TRIPOS>MOLECULE
*****
 37 42 0 0 0
SMALL
GASTEIGER

@<TRIPOS>ATOM
      1 C           4.9529   -2.8363   22.0057 C.ar    1  UNL1        0.0140
      2 C           4.0657   -1.8615   21.2897 C.ar    1  UNL1        0.0011
      3 C           3.2643   -0.8629   22.0711 C.ar    1  UNL1        0.0000
      4 C           3.3501   -0.8391   23.5685 C.ar    1  UNL1        0.0000
      5 C           2.5487    0.1595   24.3499 C.ar    1  UNL1        0.0000
      6 C           2.6345    0.1832   25.8472 C.ar    1  UNL1       -0.0000
      7 C           3.5217   -0.7916   26.5631 C.ar    1  UNL1       -0.0000
      8 C           4.3231   -1.7902   25.7818 C.ar    1  UNL1        0.0000
      9 C           4.2373   -1.8139   24.2845 C.ar    1  UNL1        0.0000
     10 C           5.0387   -2.8125   23.5030 C.ar    1  UNL1        0.0011
     11 C           2.3771    0.1119   21.3551 C.ar    1  UNL1       -0.0000
     12 C           2.8049    1.5412   21.1997 C.ar    1  UNL1       -0.0003
     13 C           1.9177    2.5160   20.4838 C.ar    1  UNL1       -0.0043
     14 C           0.6027    2.0615   19.9232 C.ar    1  UNL1       -0.0224
     15 C           0.1748    0.6322   20.0786 C.ar    1  UNL1       -0.0043
     16 C           1.0620   -0.3426   20.7946 C.ar    1  UNL1       -0.0003
     17 C          -0.2845    3.0364   19.2072 C.3     1  UNL1        0.0250
     18 C          -1.3814    3.8502   19.8273 C.3     1  UNL1        0.0201
     19 C          -2.0054    4.6853   18.7488 C.3     1  UNL1        0.0544
     20 C          -0.9419    3.6662   19.0322 C.3     1  UNL1        0.0174
     21 C          -0.2306    3.3686   17.7455 C.3     1  UNL1        0.0212
     22 C          -0.8546    4.2037   16.6670 C.3     1  UNL1        0.0689
     23 N          -1.9515    5.0174   17.2871 N.3     1  UNL1       -0.2985
     24 H          -2.8429    4.7891   16.8471 H       1  UNL1        0.1232
     25 C           3.6075   -0.7678   28.0606 C.ar    1  UNL1       -0.0000
     26 C           4.9282   -0.9790   28.7396 C.ar    1  UNL1       -0.0001
     27 C           5.0140   -0.9552   30.2370 C.ar    1  UNL1        0.0039
     28 C           3.7790   -0.7202   31.0553 C.ar    1  UNL1        0.0714
     29 C           2.4583   -0.5090   30.3762 C.ar    1  UNL1        0.0039
     30 C           2.3725   -0.5328   28.8789 C.ar    1  UNL1       -0.0001
     31 C           3.8648   -0.6964   32.5526 C.3     1  UNL1        0.4186
     32 F           3.9505   -0.6726   34.0499 F       1  UNL1       -0.1659
     33 F           3.6645    0.7901   32.5404 F       1  UNL1       -0.1659
     34 F           4.0650   -2.1829   32.5648 F       1  UNL1       -0.1659
     35 O           5.4100   -4.1169   19.7918 O.co2   1  UNL1       -0.5446
     36 C           5.7543   -3.8349   21.2243 C.2     1  UNL1        0.0729
     37 O           6.9000   -4.5515   21.8753 O.co2   1  UNL1       -0.5446
@<TRIPOS>UNITY_ATOM_ATTR
35 1
charge -1
@<TRIPOS>BOND
     1    35    36   ar
     2    36    37   ar
     3    36     1    1
     4     1     2   ar
     5     2     3   ar
     6     3    11    1
     7    11    12   ar
     8    12    13   ar
     9    13    14   ar
    10    17    14    1
    11    17    18    1
    12    19    18    1
    13    19    20    1
    14    20    21    1
    15    21    22    1
    16    22    23    1
    17    14    15   ar
    18    15    16   ar
    19     3     4   ar
    20     4     5   ar
    21     5     6   ar
    22     6     7   ar
    23     7    25    1
    24    25    26   ar
    25    26    27   ar
    26    27    28   ar
    27    28    31    1
    28    31    32    1
    29    31    33    1
    30    31    34    1
    31    28    29   ar
    32    29    30   ar
    33     7     8   ar
    34     8     9   ar
    35     9    10   ar
    36    10     1   ar
    37    16    11   ar
    38     9     4   ar
    39    21    17    1
    40    30    25   ar
    41    23    19    1
    42    23    24    1
@<TRIPOS>MOLECULE
*****
 37 42 0 0 0
SMALL
GASTEIGER

@<TRIPOS>ATOM
      1 C           8.2732   -6.4159   25.4651 C.ar    1  UNL1        0.0140
      2 C           7.7389   -5.6269   24.3066 C.ar    1  UNL1        0.0011
      3 C           6.9569   -4.3706   24.5518 C.ar    1  UNL1        0.0000
      4 C           6.7090   -3.9033   25.9555 C.ar    1  UNL1        0.0000
      5 C           5.9270   -2.6471   26.2006 C.ar    1  UNL1        0.0000
      6 C           5.6792   -2.1798   27.6042 C.ar    1  UNL1       -0.0000
      7 C           6.2134   -2.9688   28.7627 C.ar    1  UNL1       -0.0000
      8 C           6.9954   -4.2251   28.5176 C.ar    1  UNL1        0.0000
      9 C           7.2433   -4.6923   27.1139 C.ar    1  UNL1        0.0000
     10 C           8.0253   -5.9487   26.8687 C.ar    1  UNL1        0.0011
     11 C           6.4227   -3.5816   23.3933 C.ar    1  UNL1       -0.0000
     12 C           5.0242   -3.8187   22.9056 C.ar    1  UNL1       -0.0003
     13 C           4.4899   -3.0297   21.7472 C.ar    1  UNL1       -0.0043
     14 C           5.3542   -2.0036   21.0764 C.ar    1  UNL1       -0.0224
     15 C           6.7528   -1.7664   21.5640 C.ar    1  UNL1       -0.0043
     16 C           7.2870   -2.5555   22.7225 C.ar    1  UNL1       -0.0003
     17 C           4.8200   -1.2146   19.9179 C.3     1  UNL1        0.0250
     18 C           4.8501   -1.6326   18.4776 C.3     1  UNL1        0.0201
     19 C           4.2106   -0.5454   17.6659 C.3     1  UNL1        0.0544
     20 C           4.5872   -0.9590   19.0577 C.3     1  UNL1        0.0174
     21 C           4.1619    0.1310   19.9962 C.3     1  UNL1        0.0212
     22 C           3.5223    1.2183   19.1845 C.3     1  UNL1        0.0689
     23 N           3.5525    0.8002   17.7443 N.3     1  UNL1       -0.2985
     24 H           4.0843    1.4779   17.1982 H       1  UNL1        0.1232
     25 C           5.9655   -2.5015   30.1664 C.ar    1  UNL1       -0.0000
     26 C           6.4311   -3.3309   31.3262 C.ar    1  UNL1       -0.0001
     27 C           6.1832   -2.8636   32.7299 C.ar    1  UNL1        0.0039
     28 C           5.4698   -1.5668   32.9737 C.ar    1  UNL1        0.0714
     29 C           5.0043   -0.7374   31.8138 C.ar    1  UNL1        0.0039
     30 C           5.2521   -1.2047   30.4102 C.ar    1  UNL1       -0.0001
     31 C           5.2220   -1.0995   34.3773 C.3     1  UNL1        0.4186
     32 F           4.9741   -0.6322   35.7809 F       1  UNL1       -0.1659
     33 F           3.9819   -1.9411   34.4385 F       1  UNL1       -0.1659
     34 F           6.4621   -0.2579   34.3161 F       1  UNL1       -0.1659
     35 O           9.5345   -7.9994   23.8367 O.co2   1  UNL1       -0.5446
     36 C           9.0552   -7.6723   25.2199 C.2     1  UNL1        0.0729
     37 O           9.3580   -8.6014   26.3579 O.co2   1  UNL1       -0.5446
@<TRIPOS>UNITY_ATOM_ATTR
35 1
charge -1
@<TRIPOS>BOND
     1    35    36   ar
     2    36    37   ar
     3    36     1    1
     4     1     2   ar
     5     2     3   ar
     6     3    11    1
     7    11    12   ar
     8    12    13   ar
     9    13    14   ar
    10    17    14    1
    11    17    18    1
    12    19    18    1
    13    19    20    1
    14    20    21    1
    15    21    22    1
    16    22    23    1
    17    14    15   ar
    18    15    16   ar
    19     3     4   ar
    20     4     5   ar
    21     5     6   ar
    22     6     7   ar
    23     7    25    1
    24    25    26   ar
    25    26    27   ar
    26    27    28   ar
    27    28    31    1
    28    31    32    1
    29    31    33    1
    30    31    34    1
    31    28    29   ar
    32    29    30   ar
    33     7     8   ar
    34     8     9   ar
    35     9    10   ar
    36    10     1   ar
    37    16    11   ar
    38     9     4   ar
    39    21    17    1
    40    30    25   ar
    41    23    19    1
    42    23    24    1
@<TRIPOS>MOLECULE
*****
 37 42 0 0 0
SMALL
GASTEIGER

@<TRIPOS>ATOM
      1 C           2.1764    0.7430   23.9697 C.ar    1  UNL1        0.0140
      2 C           2.6286    0.5466   25.3864 C.ar    1  UNL1        0.0011
      3 C           1.7565    0.9954   26.5212 C.ar    1  UNL1        0.0000
      4 C           0.4320    1.6407   26.2394 C.ar    1  UNL1        0.0000
      5 C          -0.4402    2.0895   27.3742 C.ar    1  UNL1        0.0000
      6 C          -1.7646    2.7347   27.0924 C.ar    1  UNL1       -0.0000
      7 C          -2.2169    2.9312   25.6758 C.ar    1  UNL1       -0.0000
      8 C          -1.3448    2.4824   24.5410 C.ar    1  UNL1        0.0000
      9 C          -0.0203    1.8371   24.8228 C.ar    1  UNL1        0.0000
     10 C           0.8519    1.3883   23.6879 C.ar    1  UNL1        0.0011
     11 C           2.2088    0.7989   27.9378 C.ar    1  UNL1       -0.0000
     12 C           1.6655   -0.3410   28.7473 C.ar    1  UNL1       -0.0003
     13 C           2.1178   -0.5374   30.1640 C.ar    1  UNL1       -0.0043
     14 C           3.1133    0.4061   30.7711 C.ar    1  UNL1       -0.0224
     15 C           3.6567    1.5461   29.9616 C.ar    1  UNL1       -0.0043
     16 C           3.2044    1.7425   28.5449 C.ar    1  UNL1       -0.0003
     17 C           3.5656    0.2096   32.1877 C.3     1  UNL1        0.0250
     18 C           3.4927    1.2287   33.2859 C.3     1  UNL1        0.0201
     19 C           4.0523    0.6085   34.5318 C.3     1  UNL1        0.0544
     20 C           3.7515    0.3620   33.0831 C.3     1  UNL1        0.0174
     21 C           4.1702   -1.0405   32.7549 C.3     1  UNL1        0.0212
     22 C           4.7298   -1.6607   34.0008 C.3     1  UNL1        0.0689
     23 N           4.6569   -0.6415   35.0989 N.3     1  UNL1       -0.2985
     24 H           5.5937   -0.4441   35.4507 H       1  UNL1        0.1232
     25 C          -3.5415    3.5764   25.3940 C.ar    1  UNL1       -0.0000
     26 C          -4.2156    3.3587   24.0719 C.ar    1  UNL1       -0.0001
     27 C          -5.5402    4.0040   23.7901 C.ar    1  UNL1        0.0039
     28 C          -6.1904    4.8670   24.8305 C.ar    1  UNL1        0.0714
     29 C          -5.5162    5.0847   26.1527 C.ar    1  UNL1        0.0039
     30 C          -4.1917    4.4394   26.4344 C.ar    1  UNL1       -0.0001
     31 C          -7.5149    5.5123   24.5488 C.3     1  UNL1        0.4186
     32 F          -8.8393    6.1575   24.2671 F       1  UNL1       -0.1659
     33 F          -7.2032    6.5878   25.5468 F       1  UNL1       -0.1659
     34 F          -7.8266    4.4367   23.5509 F       1  UNL1       -0.1659
     35 O           3.1962   -1.1681   22.5353 O.co2   1  UNL1       -0.5446
     36 C           3.0486    0.2942   22.8349 C.2     1  UNL1        0.0729
     37 O           3.7732    1.3078   21.9997 O.co2   1  UNL1       -0.5446
@<TRIPOS>UNITY_ATOM_ATTR
35 1
charge -1
@<TRIPOS>BOND
     1    35    36   ar
     2    36    37   ar
     3    36     1    1
     4     1     2   ar
     5     2     3   ar
     6     3    11    1
     7    11    12   ar
     8    12    13   ar
     9    13    14   ar
    10    17    14    1
    11    17    18    1
    12    19    18    1
    13    19    20    1
    14    20    21    1
    15    21    22    1
    16    22    23    1
    17    14    15   ar
    18    15    16   ar
    19     3     4   ar
    20     4     5   ar
    21     5     6   ar
    22     6     7   ar
    23     7    25    1
    24    25    26   ar
    25    26    27   ar
    26    27    28   ar
    27    28    31    1
    28    31    32    1
    29    31    33    1
    30    31    34    1
    31    28    29   ar
    32    29    30   ar
    33     7     8   ar
    34     8     9   ar
    35     9    10   ar
    36    10     1   ar
    37    16    11   ar
    38     9     4   ar
    39    21    17    1
    40    30    25   ar
    41    23    19    1
    42    23    24    1
