@<TRIPOS>MOLECULE
*****
 35 38 0 0 0
SMALL
GASTEIGER

@<TRIPOS>ATOM
      1 C          -6.4431  -18.2048   21.6415 C.ar    1  UNL1        0.2019
      2 N          -5.7046  -17.5156   22.7504 N.ar    1  UNL1       -0.2135
      3 C          -6.7181  -16.9474   23.6991 C.ar    1  UNL1        0.1001
      4 C          -6.5744  -16.1659   24.9713 C.ar    1  UNL1        0.0252
      5 C          -7.7956  -15.7223   25.7209 C.ar    1  UNL1        0.0547
      6 C          -9.1604  -16.0602   25.1983 C.ar    1  UNL1        0.0061
      7 C          -9.3040  -16.8417   23.9261 C.ar    1  UNL1        0.0189
      8 C          -8.0828  -17.2853   23.1765 C.ar    1  UNL1        0.0802
      9 N          -7.9129  -18.0624   21.9048 N.ar    1  UNL1       -0.2953
     10 C          -7.6520  -14.9407   26.9932 C.2     1  UNL1        0.2428
     11 N          -6.3073  -14.4194   27.4055 N.am    1  UNL1       -0.3253
     12 O          -8.8531  -14.6805   27.8532 O.2     1  UNL1       -0.2704
     13 H          -5.5189  -14.5903   26.8410 H       1  UNL1        0.1453
     14 H          -6.2130  -13.9065   28.2405 H       1  UNL1        0.1453
     15 N          -5.8209  -18.9121   20.4742 N.pl3   1  UNL1       -0.2839
     16 H          -6.3892  -19.3941   19.8308 H       1  UNL1        0.1550
     17 C          -1.3568  -18.8309   19.9129 C.ar    1  UNL1        0.1388
     18 C          -1.9555  -19.6001   21.0530 C.ar    1  UNL1        0.0382
     19 C          -3.4435  -19.6272   21.2401 C.ar    1  UNL1        0.0178
     20 C          -4.3329  -18.8851   20.2871 C.ar    1  UNL1        0.0506
     21 C          -3.7342  -18.1158   19.1469 C.ar    1  UNL1        0.0178
     22 C          -2.2461  -18.0888   18.9599 C.ar    1  UNL1        0.0382
     23 C           0.9095  -17.5715   20.0803 C.3     1  UNL1        0.2525
     24 O           0.1313  -18.8039   19.7258 O.3     1  UNL1       -0.4714
     25 C          -9.0186  -18.6024   21.0471 C.3     1  UNL1        0.1354
     26 C         -10.3842  -17.9849   21.1072 C.ar    1  UNL1        0.0044
     27 C         -10.6965  -16.7731   20.2799 C.ar    1  UNL1       -0.0024
     28 C         -12.0621  -16.1555   20.3399 C.ar    1  UNL1       -0.0003
     29 C         -13.1156  -16.7497   21.2273 C.ar    1  UNL1       -0.0001
     30 C         -12.8033  -17.9614   22.0544 C.ar    1  UNL1        0.0036
     31 C         -11.4377  -18.5790   21.9944 C.ar    1  UNL1        0.0693
     32 C         -11.1256  -19.7907   22.8216 C.3     1  UNL1        0.4183
     33 F         -10.8134  -21.0023   23.6489 F       1  UNL1       -0.1659
     34 F         -11.1456  -20.6399   21.5853 F       1  UNL1       -0.1659
     35 F         -11.1055  -18.9415   24.0579 F       1  UNL1       -0.1659
@<TRIPOS>BOND
     1    23    24    1
     2    24    17    1
     3    17    18   ar
     4    18    19   ar
     5    19    20   ar
     6    20    15    1
     7    15     1    1
     8     1     2   ar
     9     2     3   ar
    10     3     4   ar
    11     4     5   ar
    12     5    10    1
    13    10    11   am
    14    10    12    2
    15     5     6   ar
    16     6     7   ar
    17     7     8   ar
    18     8     9   ar
    19     9    25    1
    20    25    26    1
    21    26    27   ar
    22    27    28   ar
    23    28    29   ar
    24    29    30   ar
    25    30    31   ar
    26    31    32    1
    27    32    33    1
    28    32    34    1
    29    32    35    1
    30    20    21   ar
    31    21    22   ar
    32    22    17   ar
    33     9     1   ar
    34    31    26   ar
    35     8     3   ar
    36    15    16    1
    37    11    13    1
    38    11    14    1
@<TRIPOS>MOLECULE
*****
 35 38 0 0 0
SMALL
GASTEIGER

@<TRIPOS>ATOM
      1 C          -6.5421  -18.0361   21.8751 C.ar    1  UNL1        0.2019
      2 N          -5.7459  -17.3833   22.9659 N.ar    1  UNL1       -0.2135
      3 C          -6.7083  -16.7565   23.9307 C.ar    1  UNL1        0.1001
      4 C          -6.4977  -15.9783   25.1957 C.ar    1  UNL1        0.0252
      5 C          -7.6782  -15.4656   25.9660 C.ar    1  UNL1        0.0547
      6 C          -9.0692  -15.7310   25.4715 C.ar    1  UNL1        0.0061
      7 C          -9.2798  -16.5091   24.2066 C.ar    1  UNL1        0.0189
      8 C          -8.0993  -17.0219   23.4362 C.ar    1  UNL1        0.0802
      9 N          -7.9966  -17.8127   22.1657 N.ar    1  UNL1       -0.2953
     10 C          -7.4677  -14.6874   27.2310 C.2     1  UNL1        0.2428
     11 N          -6.0952  -14.2028   27.5939 N.am    1  UNL1       -0.3253
     12 O          -8.6295  -14.3938   28.1332 O.2     1  UNL1       -0.2704
     13 H          -5.3327  -14.3955   27.0017 H       1  UNL1        0.1453
     14 H          -5.9570  -13.6921   28.4241 H       1  UNL1        0.1453
     15 N          -5.9821  -18.7814   20.7000 N.pl3   1  UNL1       -0.2839
     16 H          -6.5863  -19.2581   20.0860 H       1  UNL1        0.1550
     17 C          -1.5403  -18.8388   19.9809 C.ar    1  UNL1        0.1388
     18 C          -2.4494  -18.1541   19.0039 C.ar    1  UNL1        0.0382
     19 C          -3.9300  -18.1349   19.2436 C.ar    1  UNL1        0.0178
     20 C          -4.5015  -18.8006   20.4603 C.ar    1  UNL1        0.0506
     21 C          -3.5924  -19.4854   21.4373 C.ar    1  UNL1        0.0178
     22 C          -2.1117  -19.5045   21.1976 C.ar    1  UNL1        0.0382
     23 C           0.7685  -17.6505   20.0671 C.3     1  UNL1        0.2525
     24 O          -0.0596  -18.8580   19.7412 O.3     1  UNL1       -0.4714
     25 C          -9.1465  -18.2954   21.3323 C.3     1  UNL1        0.1354
     26 C         -10.5438  -18.2331   21.8741 C.ar    1  UNL1        0.0044
     27 C         -10.9465  -19.1212   23.0140 C.ar    1  UNL1       -0.0024
     28 C         -12.3438  -19.0589   23.5559 C.ar    1  UNL1       -0.0003
     29 C         -13.3384  -18.1085   22.9579 C.ar    1  UNL1       -0.0001
     30 C         -12.9357  -17.2205   21.8181 C.ar    1  UNL1        0.0036
     31 C         -11.5384  -17.2827   21.2762 C.ar    1  UNL1        0.0693
     32 C         -11.1358  -16.3947   20.1364 C.3     1  UNL1        0.4183
     33 F         -10.7332  -15.5067   18.9965 F       1  UNL1       -0.1659
     34 F         -10.6299  -15.3730   21.1112 F       1  UNL1       -0.1659
     35 F         -11.6417  -17.4164   19.1616 F       1  UNL1       -0.1659
@<TRIPOS>BOND
     1    23    24    1
     2    24    17    1
     3    17    18   ar
     4    18    19   ar
     5    19    20   ar
     6    20    15    1
     7    15     1    1
     8     1     2   ar
     9     2     3   ar
    10     3     4   ar
    11     4     5   ar
    12     5    10    1
    13    10    11   am
    14    10    12    2
    15     5     6   ar
    16     6     7   ar
    17     7     8   ar
    18     8     9   ar
    19     9    25    1
    20    25    26    1
    21    26    27   ar
    22    27    28   ar
    23    28    29   ar
    24    29    30   ar
    25    30    31   ar
    26    31    32    1
    27    32    33    1
    28    32    34    1
    29    32    35    1
    30    20    21   ar
    31    21    22   ar
    32    22    17   ar
    33     9     1   ar
    34    31    26   ar
    35     8     3   ar
    36    15    16    1
    37    11    13    1
    38    11    14    1
@<TRIPOS>MOLECULE
*****
 35 38 0 0 0
SMALL
GASTEIGER

@<TRIPOS>ATOM
      1 C          -7.6033  -19.6592   22.4990 C.ar    1  UNL1        0.2019
      2 N          -8.9519  -20.3125   22.4319 N.ar    1  UNL1       -0.2135
      3 C          -9.9926  -19.2465   22.6070 C.ar    1  UNL1        0.1001
      4 C         -11.4914  -19.3012   22.6295 C.ar    1  UNL1        0.0252
      5 C         -12.2848  -18.0437   22.8274 C.ar    1  UNL1        0.0547
      6 C         -11.5794  -16.7315   23.0027 C.ar    1  UNL1        0.0061
      7 C         -10.0806  -16.6769   22.9802 C.ar    1  UNL1        0.0189
      8 C          -9.2872  -17.9344   22.7824 C.ar    1  UNL1        0.0802
      9 N          -7.8106  -18.1895   22.7156 N.ar    1  UNL1       -0.2953
     10 C         -13.7837  -18.0982   22.8498 C.2     1  UNL1        0.2428
     11 N         -14.5156  -18.0722   24.1589 N.am    1  UNL1       -0.3253
     12 O         -14.5506  -18.1788   21.5633 O.2     1  UNL1       -0.2704
     13 H         -14.0122  -18.0194   25.0033 H       1  UNL1        0.1453
     14 H         -15.4993  -18.1081   24.1737 H       1  UNL1        0.1453
     15 N          -6.2799  -20.3537   22.3718 N.pl3   1  UNL1       -0.2839
     16 H          -6.1292  -21.2132   22.8276 H       1  UNL1        0.1550
     17 C          -2.9983  -18.5085   19.9067 C.ar    1  UNL1        0.1388
     18 C          -4.3799  -18.6408   19.3376 C.ar    1  UNL1        0.0382
     19 C          -5.4737  -19.2559   20.1593 C.ar    1  UNL1        0.0178
     20 C          -5.1860  -19.7387   21.5501 C.ar    1  UNL1        0.0506
     21 C          -3.8045  -19.6064   22.1191 C.ar    1  UNL1        0.0178
     22 C          -2.7106  -18.9913   21.2974 C.ar    1  UNL1        0.0382
     23 C          -0.5212  -17.7679   19.6512 C.3     1  UNL1        0.2525
     24 O          -1.9045  -17.8935   19.0849 O.3     1  UNL1       -0.4714
     25 C          -6.7307  -17.1562   22.8430 C.3     1  UNL1        0.1354
     26 C          -6.5341  -16.4331   24.1424 C.ar    1  UNL1        0.0044
     27 C          -7.6709  -16.3134   25.1137 C.ar    1  UNL1       -0.0024
     28 C          -7.4743  -15.5904   26.4131 C.ar    1  UNL1       -0.0003
     29 C          -6.1408  -14.9870   26.7413 C.ar    1  UNL1       -0.0001
     30 C          -5.0040  -15.1067   25.7701 C.ar    1  UNL1        0.0036
     31 C          -5.2006  -15.8298   24.4707 C.ar    1  UNL1        0.0693
     32 C          -4.0637  -15.9494   23.4995 C.3     1  UNL1        0.4183
     33 F          -2.9269  -16.0689   22.5284 F       1  UNL1       -0.1659
     34 F          -3.6906  -17.2727   24.0993 F       1  UNL1       -0.1659
     35 F          -4.4368  -14.6261   22.8998 F       1  UNL1       -0.1659
@<TRIPOS>BOND
     1    23    24    1
     2    24    17    1
     3    17    18   ar
     4    18    19   ar
     5    19    20   ar
     6    20    15    1
     7    15     1    1
     8     1     2   ar
     9     2     3   ar
    10     3     4   ar
    11     4     5   ar
    12     5    10    1
    13    10    11   am
    14    10    12    2
    15     5     6   ar
    16     6     7   ar
    17     7     8   ar
    18     8     9   ar
    19     9    25    1
    20    25    26    1
    21    26    27   ar
    22    27    28   ar
    23    28    29   ar
    24    29    30   ar
    25    30    31   ar
    26    31    32    1
    27    32    33    1
    28    32    34    1
    29    32    35    1
    30    20    21   ar
    31    21    22   ar
    32    22    17   ar
    33     9     1   ar
    34    31    26   ar
    35     8     3   ar
    36    15    16    1
    37    11    13    1
    38    11    14    1
@<TRIPOS>MOLECULE
*****
 35 38 0 0 0
SMALL
GASTEIGER

@<TRIPOS>ATOM
      1 C           6.3663   -2.9016   23.7429 C.ar    1  UNL1        0.2019
      2 N           5.7518   -2.1311   24.8736 N.ar    1  UNL1       -0.2135
      3 C           4.5466   -1.4122   24.3437 C.ar    1  UNL1        0.1001
      4 C           3.5510   -0.5027   25.0006 C.ar    1  UNL1        0.0252
      5 C           2.4252    0.0806   24.1992 C.ar    1  UNL1        0.0547
      6 C           2.2949   -0.2457   22.7409 C.ar    1  UNL1        0.0061
      7 C           3.2905   -1.1552   22.0840 C.ar    1  UNL1        0.0189
      8 C           4.4164   -1.7384   22.8854 C.ar    1  UNL1        0.0802
      9 N           5.5410   -2.6589   22.5141 N.ar    1  UNL1       -0.2953
     10 C           1.4295    0.9901   24.8561 C.2     1  UNL1        0.2428
     11 N           1.0703    0.7917   26.2989 N.am    1  UNL1       -0.3253
     12 O           0.7932    2.0980   24.0703 O.2     1  UNL1       -0.2704
     13 H           1.4879    0.0645   26.8147 H       1  UNL1        0.1453
     14 H           0.4168    1.3886   26.7301 H       1  UNL1        0.1453
     15 N           7.5912   -3.7635   23.8263 N.pl3   1  UNL1       -0.2839
     16 H           8.4253   -3.4772   23.3887 H       1  UNL1        0.1550
     17 C           7.4532   -7.6577   26.0770 C.ar    1  UNL1        0.1388
     18 C           8.1214   -7.5899   24.7358 C.ar    1  UNL1        0.0382
     19 C           8.1674   -6.2919   23.9855 C.ar    1  UNL1        0.0178
     20 C           7.5452   -5.0615   24.5766 C.ar    1  UNL1        0.0506
     21 C           6.8771   -5.1293   25.9178 C.ar    1  UNL1        0.0178
     22 C           6.8311   -6.4275   26.6681 C.ar    1  UNL1        0.0382
     23 C           8.5722   -9.3741   27.6745 C.3     1  UNL1        0.2525
     24 O           7.4073   -8.9559   26.8273 O.3     1  UNL1       -0.4714
     25 C           5.7956   -3.2355   21.1530 C.3     1  UNL1        0.1354
     26 C           5.7590   -2.3486   19.9439 C.ar    1  UNL1        0.0044
     27 C           6.7377   -1.2194   19.8121 C.ar    1  UNL1       -0.0024
     28 C           6.7011   -0.3325   18.6030 C.ar    1  UNL1       -0.0003
     29 C           5.6859   -0.5747   17.5256 C.ar    1  UNL1       -0.0001
     30 C           4.7073   -1.7038   17.6574 C.ar    1  UNL1        0.0036
     31 C           4.7439   -2.5908   18.8665 C.ar    1  UNL1        0.0693
     32 C           3.7652   -3.7199   18.9982 C.3     1  UNL1        0.4183
     33 F           2.7866   -4.8489   19.1299 F       1  UNL1       -0.1659
     34 F           4.7636   -4.6567   18.3853 F       1  UNL1       -0.1659
     35 F           2.7669   -2.7831   19.6110 F       1  UNL1       -0.1659
@<TRIPOS>BOND
     1    23    24    1
     2    24    17    1
     3    17    18   ar
     4    18    19   ar
     5    19    20   ar
     6    20    15    1
     7    15     1    1
     8     1     2   ar
     9     2     3   ar
    10     3     4   ar
    11     4     5   ar
    12     5    10    1
    13    10    11   am
    14    10    12    2
    15     5     6   ar
    16     6     7   ar
    17     7     8   ar
    18     8     9   ar
    19     9    25    1
    20    25    26    1
    21    26    27   ar
    22    27    28   ar
    23    28    29   ar
    24    29    30   ar
    25    30    31   ar
    26    31    32    1
    27    32    33    1
    28    32    34    1
    29    32    35    1
    30    20    21   ar
    31    21    22   ar
    32    22    17   ar
    33     9     1   ar
    34    31    26   ar
    35     8     3   ar
    36    15    16    1
    37    11    13    1
    38    11    14    1
@<TRIPOS>MOLECULE
*****
 35 38 0 0 0
SMALL
GASTEIGER

@<TRIPOS>ATOM
      1 C           4.0151   -1.6181   23.1397 C.ar    1  UNL1        0.2019
      2 N           4.1738   -1.0560   24.5213 N.ar    1  UNL1       -0.2135
      3 C           5.1243   -1.9386   25.2746 C.ar    1  UNL1        0.1001
      4 C           5.6549   -1.8768   26.6762 C.ar    1  UNL1        0.0252
      5 C           6.6141   -2.9227   27.1618 C.ar    1  UNL1        0.0547
      6 C           7.0429   -4.0304   26.2458 C.ar    1  UNL1        0.0061
      7 C           6.5124   -4.0922   24.8441 C.ar    1  UNL1        0.0189
      8 C           5.5531   -3.0463   24.3585 C.ar    1  UNL1        0.0802
      9 N           4.8675   -2.8482   23.0391 N.ar    1  UNL1       -0.2953
     10 C           7.1447   -2.8610   28.5635 C.2     1  UNL1        0.2428
     11 N           8.2737   -1.9316   28.8978 N.am    1  UNL1       -0.3253
     12 O           6.5463   -3.7285   29.6309 O.2     1  UNL1       -0.2704
     13 H           8.6664   -1.3622   28.1973 H       1  UNL1        0.1453
     14 H           8.6219   -1.8910   29.8178 H       1  UNL1        0.1453
     15 N           3.1549   -1.0499   22.0501 N.pl3   1  UNL1       -0.2839
     16 H           2.1831   -1.2075   22.0574 H       1  UNL1        0.1550
     17 C           5.0162    1.3750   18.7478 C.ar    1  UNL1        0.1388
     18 C           3.7826    0.5648   18.4796 C.ar    1  UNL1        0.0382
     19 C           3.1622   -0.2435   19.5803 C.ar    1  UNL1        0.0178
     20 C           3.7753   -0.2416   20.9494 C.ar    1  UNL1        0.0506
     21 C           5.0088    0.5686   21.2176 C.ar    1  UNL1        0.0178
     22 C           5.6293    1.3769   20.1167 C.ar    1  UNL1        0.0382
     23 C           6.5201    1.5175   16.6341 C.3     1  UNL1        0.2525
     24 O           5.6366    2.1833   17.6470 O.3     1  UNL1       -0.4714
     25 C           5.0095   -3.7262   21.8312 C.3     1  UNL1        0.1354
     26 C           5.6011   -3.1743   20.5682 C.ar    1  UNL1        0.0044
     27 C           6.8458   -2.3391   20.6255 C.ar    1  UNL1       -0.0024
     28 C           7.4376   -1.7871   19.3625 C.ar    1  UNL1       -0.0003
     29 C           6.7845   -2.0704   18.0421 C.ar    1  UNL1       -0.0001
     30 C           5.5399   -2.9055   17.9848 C.ar    1  UNL1        0.0036
     31 C           4.9482   -3.4574   19.2478 C.ar    1  UNL1        0.0693
     32 C           3.7035   -4.2926   19.1904 C.3     1  UNL1        0.4183
     33 F           2.4589   -5.1278   19.1330 F       1  UNL1       -0.1659
     34 F           2.8778   -3.0848   19.5211 F       1  UNL1       -0.1659
     35 F           4.5292   -5.5004   18.8597 F       1  UNL1       -0.1659
@<TRIPOS>BOND
     1    23    24    1
     2    24    17    1
     3    17    18   ar
     4    18    19   ar
     5    19    20   ar
     6    20    15    1
     7    15     1    1
     8     1     2   ar
     9     2     3   ar
    10     3     4   ar
    11     4     5   ar
    12     5    10    1
    13    10    11   am
    14    10    12    2
    15     5     6   ar
    16     6     7   ar
    17     7     8   ar
    18     8     9   ar
    19     9    25    1
    20    25    26    1
    21    26    27   ar
    22    27    28   ar
    23    28    29   ar
    24    29    30   ar
    25    30    31   ar
    26    31    32    1
    27    32    33    1
    28    32    34    1
    29    32    35    1
    30    20    21   ar
    31    21    22   ar
    32    22    17   ar
    33     9     1   ar
    34    31    26   ar
    35     8     3   ar
    36    15    16    1
    37    11    13    1
    38    11    14    1
@<TRIPOS>MOLECULE
*****
 35 38 0 0 0
SMALL
GASTEIGER

@<TRIPOS>ATOM
      1 C           6.3607   -2.1691   24.2765 C.ar    1  UNL1        0.2019
      2 N           6.1739   -2.8581   25.5957 N.ar    1  UNL1       -0.2135
      3 C           6.7709   -4.2301   25.4908 C.ar    1  UNL1        0.1001
      4 C           6.8803   -5.3552   26.4768 C.ar    1  UNL1        0.0252
      5 C           7.5454   -6.6393   26.0786 C.ar    1  UNL1        0.0547
      6 C           8.1013   -6.7983   24.6945 C.ar    1  UNL1        0.0061
      7 C           7.9919   -5.6732   23.7085 C.ar    1  UNL1        0.0189
      8 C           7.3267   -4.3891   24.1067 C.ar    1  UNL1        0.0802
      9 N           7.0732   -3.1153   23.3562 N.ar    1  UNL1       -0.2953
     10 C           7.6548   -7.7645   27.0646 C.2     1  UNL1        0.2428
     11 N           6.8444   -9.0119   26.8719 N.am    1  UNL1       -0.3253
     12 O           8.5746   -7.6423   28.2431 O.2     1  UNL1       -0.2704
     13 H           6.2407   -9.0922   26.0984 H       1  UNL1        0.1453
     14 H           6.9162   -9.7504   27.5190 H       1  UNL1        0.1453
     15 N           5.9135   -0.7781   23.9372 N.pl3   1  UNL1       -0.2839
     16 H           6.2295   -0.0150   24.4729 H       1  UNL1        0.1550
     17 C           3.1276   -0.0932   20.4702 C.ar    1  UNL1        0.1388
     18 C           4.4899    0.5348   20.4731 C.ar    1  UNL1        0.0382
     19 C           5.4185    0.3065   21.6287 C.ar    1  UNL1        0.0178
     20 C           4.9849   -0.5498   22.7815 C.ar    1  UNL1        0.0506
     21 C           3.6226   -1.1777   22.7786 C.ar    1  UNL1        0.0178
     22 C           2.6940   -0.9494   21.6229 C.ar    1  UNL1        0.0382
     23 C           2.7406    0.1904   17.9168 C.3     1  UNL1        0.2525
     24 O           2.1990    0.1352   19.3145 O.3     1  UNL1       -0.4714
     25 C           7.4636   -2.8367   21.9350 C.3     1  UNL1        0.1354
     26 C           6.4781   -3.0659   20.8277 C.ar    1  UNL1        0.0044
     27 C           5.1985   -3.7991   21.1023 C.ar    1  UNL1       -0.0024
     28 C           4.2129   -4.0283   19.9951 C.ar    1  UNL1       -0.0003
     29 C           4.5069   -3.5244   18.6131 C.ar    1  UNL1       -0.0001
     30 C           5.7864   -2.7913   18.3385 C.ar    1  UNL1        0.0036
     31 C           6.7720   -2.5621   19.4458 C.ar    1  UNL1        0.0693
     32 C           8.0515   -1.8290   19.1711 C.3     1  UNL1        0.4183
     33 F           9.3310   -1.0960   18.8964 F       1  UNL1       -0.1659
     34 F           7.3035   -0.5289   19.1566 F       1  UNL1       -0.1659
     35 F           8.7995   -3.1291   19.1855 F       1  UNL1       -0.1659
@<TRIPOS>BOND
     1    23    24    1
     2    24    17    1
     3    17    18   ar
     4    18    19   ar
     5    19    20   ar
     6    20    15    1
     7    15     1    1
     8     1     2   ar
     9     2     3   ar
    10     3     4   ar
    11     4     5   ar
    12     5    10    1
    13    10    11   am
    14    10    12    2
    15     5     6   ar
    16     6     7   ar
    17     7     8   ar
    18     8     9   ar
    19     9    25    1
    20    25    26    1
    21    26    27   ar
    22    27    28   ar
    23    28    29   ar
    24    29    30   ar
    25    30    31   ar
    26    31    32    1
    27    32    33    1
    28    32    34    1
    29    32    35    1
    30    20    21   ar
    31    21    22   ar
    32    22    17   ar
    33     9     1   ar
    34    31    26   ar
    35     8     3   ar
    36    15    16    1
    37    11    13    1
    38    11    14    1
@<TRIPOS>MOLECULE
*****
 35 38 0 0 0
SMALL
GASTEIGER

@<TRIPOS>ATOM
      1 C           3.6032    1.3965   21.9272 C.ar    1  UNL1        0.2019
      2 N           2.3502    1.9906   22.4990 N.ar    1  UNL1       -0.2135
      3 C           1.3943    2.2328   21.3687 C.ar    1  UNL1        0.1001
      4 C           0.0064    2.8006   21.3321 C.ar    1  UNL1        0.0252
      5 C          -0.7192    2.9240   20.0251 C.ar    1  UNL1        0.0547
      6 C          -0.0569    2.4795   18.7547 C.ar    1  UNL1        0.0061
      7 C           1.3309    1.9117   18.7913 C.ar    1  UNL1        0.0189
      8 C           2.0565    1.7883   20.0983 C.ar    1  UNL1        0.0802
      9 N           3.4217    1.2715   20.4435 N.ar    1  UNL1       -0.2953
     10 C          -2.1071    3.4918   19.9884 C.2     1  UNL1        0.2428
     11 N          -3.2333    2.7637   20.6604 N.am    1  UNL1       -0.3253
     12 O          -2.3688    4.7877   19.2799 O.2     1  UNL1       -0.2704
     13 H          -3.0615    1.9132   21.1255 H       1  UNL1        0.1453
     14 H          -4.1442    3.1364   20.6364 H       1  UNL1        0.1453
     15 N           4.8234    0.9974   22.7029 N.pl3   1  UNL1       -0.2839
     16 H           5.3319    1.6755   23.2038 H       1  UNL1        0.1550
     17 C           6.1602   -3.2993   22.7406 C.ar    1  UNL1        0.1388
     18 C           4.8488   -2.9163   23.3601 C.ar    1  UNL1        0.0382
     19 C           4.4033   -1.4841   23.3475 C.ar    1  UNL1        0.0178
     20 C           5.2690   -0.4348   22.7155 C.ar    1  UNL1        0.0506
     21 C           6.5804   -0.8177   22.0960 C.ar    1  UNL1        0.0178
     22 C           7.0259   -2.2500   22.1086 C.ar    1  UNL1        0.0382
     23 C           7.6000   -5.1988   23.7745 C.3     1  UNL1        0.2525
     24 O           6.6058   -4.7316   22.7532 O.3     1  UNL1       -0.4714
     25 C           4.4286    0.7254   19.4750 C.3     1  UNL1        0.1354
     26 C           4.5009   -0.7511   19.2209 C.ar    1  UNL1        0.0044
     27 C           3.4787   -1.6672   19.8259 C.ar    1  UNL1       -0.0024
     28 C           3.5509   -3.1437   19.5719 C.ar    1  UNL1       -0.0003
     29 C           4.6453   -3.7042   18.7127 C.ar    1  UNL1       -0.0001
     30 C           5.6675   -2.7882   18.1077 C.ar    1  UNL1        0.0036
     31 C           5.5953   -1.3116   18.3618 C.ar    1  UNL1        0.0693
     32 C           6.6174   -0.3957   17.7567 C.3     1  UNL1        0.4183
     33 F           7.6397    0.5203   17.1518 F       1  UNL1       -0.1659
     34 F           5.6791   -0.0956   16.6256 F       1  UNL1       -0.1659
     35 F           7.5558   -0.6957   18.8878 F       1  UNL1       -0.1659
@<TRIPOS>BOND
     1    23    24    1
     2    24    17    1
     3    17    18   ar
     4    18    19   ar
     5    19    20   ar
     6    20    15    1
     7    15     1    1
     8     1     2   ar
     9     2     3   ar
    10     3     4   ar
    11     4     5   ar
    12     5    10    1
    13    10    11   am
    14    10    12    2
    15     5     6   ar
    16     6     7   ar
    17     7     8   ar
    18     8     9   ar
    19     9    25    1
    20    25    26    1
    21    26    27   ar
    22    27    28   ar
    23    28    29   ar
    24    29    30   ar
    25    30    31   ar
    26    31    32    1
    27    32    33    1
    28    32    34    1
    29    32    35    1
    30    20    21   ar
    31    21    22   ar
    32    22    17   ar
    33     9     1   ar
    34    31    26   ar
    35     8     3   ar
    36    15    16    1
    37    11    13    1
    38    11    14    1
@<TRIPOS>MOLECULE
*****
 35 38 0 0 0
SMALL
GASTEIGER

@<TRIPOS>ATOM
      1 C           4.8810   -3.3142   21.3327 C.ar    1  UNL1        0.2019
      2 N           5.8843   -4.2137   21.9917 N.ar    1  UNL1       -0.2135
      3 C           5.9944   -3.8088   23.4318 C.ar    1  UNL1        0.1001
      4 C           6.8255   -4.3385   24.5626 C.ar    1  UNL1        0.0252
      5 C           6.7213   -3.7184   25.9244 C.ar    1  UNL1        0.0547
      6 C           5.7861   -2.5686   26.1555 C.ar    1  UNL1        0.0061
      7 C           4.9551   -2.0389   25.0247 C.ar    1  UNL1        0.0189
      8 C           5.0592   -2.6590   23.6629 C.ar    1  UNL1        0.0802
      9 N           4.3711   -2.3533   22.3655 N.ar    1  UNL1       -0.2953
     10 C           7.5524   -4.2481   27.0553 C.2     1  UNL1        0.2428
     11 N           7.7999   -3.3982   28.2663 N.am    1  UNL1       -0.3253
     12 O           8.1358   -5.6276   26.9752 O.2     1  UNL1       -0.2704
     13 H           7.4169   -2.4928   28.3189 H       1  UNL1        0.1453
     14 H           8.3453   -3.7459   29.0085 H       1  UNL1        0.1453
     15 N           4.4613   -3.3663   19.8935 N.pl3   1  UNL1       -0.2839
     16 H           3.8906   -4.1020   19.5736 H       1  UNL1        0.1550
     17 C           5.8109   -0.1604   17.0386 C.ar    1  UNL1        0.1388
     18 C           6.8100   -0.8475   17.9216 C.ar    1  UNL1        0.0382
     19 C           6.3602   -1.9161   18.8732 C.ar    1  UNL1        0.0178
     20 C           4.9111   -2.2977   18.9419 C.ar    1  UNL1        0.0506
     21 C           3.9120   -1.6107   18.0590 C.ar    1  UNL1        0.0178
     22 C           4.3619   -0.5420   17.1073 C.ar    1  UNL1        0.0382
     23 C           7.5477    1.6385   16.3332 C.3     1  UNL1        0.2525
     24 O           6.2608    0.9083   16.0869 O.3     1  UNL1       -0.4714
     25 C           3.3520   -1.2759   22.1406 C.3     1  UNL1        0.1354
     26 C           3.7086   -0.0627   21.3338 C.ar    1  UNL1        0.0044
     27 C           5.1351    0.3951   21.2585 C.ar    1  UNL1       -0.0024
     28 C           5.4919    1.6083   20.4518 C.ar    1  UNL1       -0.0003
     29 C           4.4221    2.3637   19.7203 C.ar    1  UNL1       -0.0001
     30 C           2.9957    1.9059   19.7956 C.ar    1  UNL1        0.0036
     31 C           2.6389    0.6927   20.6023 C.ar    1  UNL1        0.0693
     32 C           1.2125    0.2349   20.6775 C.3     1  UNL1        0.4183
     33 F          -0.2139   -0.2229   20.7527 F       1  UNL1       -0.1659
     34 F           1.0312    1.0088   21.9496 F       1  UNL1       -0.1659
     35 F           1.3938   -0.5390   19.4055 F       1  UNL1       -0.1659
@<TRIPOS>BOND
     1    23    24    1
     2    24    17    1
     3    17    18   ar
     4    18    19   ar
     5    19    20   ar
     6    20    15    1
     7    15     1    1
     8     1     2   ar
     9     2     3   ar
    10     3     4   ar
    11     4     5   ar
    12     5    10    1
    13    10    11   am
    14    10    12    2
    15     5     6   ar
    16     6     7   ar
    17     7     8   ar
    18     8     9   ar
    19     9    25    1
    20    25    26    1
    21    26    27   ar
    22    27    28   ar
    23    28    29   ar
    24    29    30   ar
    25    30    31   ar
    26    31    32    1
    27    32    33    1
    28    32    34    1
    29    32    35    1
    30    20    21   ar
    31    21    22   ar
    32    22    17   ar
    33     9     1   ar
    34    31    26   ar
    35     8     3   ar
    36    15    16    1
    37    11    13    1
    38    11    14    1
@<TRIPOS>MOLECULE
*****
 35 38 0 0 0
SMALL
GASTEIGER

@<TRIPOS>ATOM
      1 C           5.4733    0.0012   22.8156 C.ar    1  UNL1        0.2019
      2 N           5.2366    0.3372   24.2582 N.ar    1  UNL1       -0.2135
      3 C           3.7730    0.6136   24.4357 C.ar    1  UNL1        0.1001
      4 C           2.9622    0.9943   25.6389 C.ar    1  UNL1        0.0252
      5 C           1.4835    1.2098   25.5091 C.ar    1  UNL1        0.0547
      6 C           0.8156    1.0447   24.1762 C.ar    1  UNL1        0.0061
      7 C           1.6264    0.6639   22.9731 C.ar    1  UNL1        0.0189
      8 C           3.1051    0.4484   23.1028 C.ar    1  UNL1        0.0802
      9 N           4.1559    0.0699   22.1016 N.ar    1  UNL1       -0.2953
     10 C           0.6726    1.5906   26.7123 C.2     1  UNL1        0.2428
     11 N          -0.2949    0.6098   27.3056 N.am    1  UNL1       -0.3253
     12 O           0.8292    2.9520   27.3221 O.2     1  UNL1       -0.2704
     13 H          -0.3977   -0.2838   26.9054 H       1  UNL1        0.1453
     14 H          -0.8271    0.8597   28.0953 H       1  UNL1        0.1453
     15 N           6.7952   -0.3431   22.1959 N.pl3   1  UNL1       -0.2839
     16 H           7.3900    0.3730   21.8754 H       1  UNL1        0.1550
     17 C           8.0422   -4.6488   21.8016 C.ar    1  UNL1        0.1388
     18 C           8.2967   -3.6884   20.6779 C.ar    1  UNL1        0.0382
     19 C           7.8810   -2.2532   20.8093 C.ar    1  UNL1        0.0178
     20 C           7.2108   -1.7783   22.0645 C.ar    1  UNL1        0.0506
     21 C           6.9564   -2.7387   23.1882 C.ar    1  UNL1        0.0178
     22 C           7.3721   -4.1740   23.0568 C.ar    1  UNL1        0.0382
     23 C           8.8788   -6.8573   22.8847 C.3     1  UNL1        0.2525
     24 O           8.4579   -6.0841   21.6702 O.3     1  UNL1       -0.4714
     25 C           3.9292   -0.1936   20.6424 C.3     1  UNL1        0.1354
     26 C           4.2460   -1.5414   20.0655 C.ar    1  UNL1        0.0044
     27 C           3.9725   -2.7819   20.8634 C.ar    1  UNL1       -0.0024
     28 C           4.2894   -4.1298   20.2865 C.ar    1  UNL1       -0.0003
     29 C           4.8797   -4.2372   18.9117 C.ar    1  UNL1       -0.0001
     30 C           5.1532   -2.9968   18.1139 C.ar    1  UNL1        0.0036
     31 C           4.8363   -1.6489   18.6907 C.ar    1  UNL1        0.0693
     32 C           5.1098   -0.4085   17.8928 C.3     1  UNL1        0.4183
     33 F           5.3832    0.8318   17.0949 F       1  UNL1       -0.1659
     34 F           6.4767   -0.3169   18.5038 F       1  UNL1       -0.1659
     35 F           3.7430   -0.5002   17.2819 F       1  UNL1       -0.1659
@<TRIPOS>BOND
     1    23    24    1
     2    24    17    1
     3    17    18   ar
     4    18    19   ar
     5    19    20   ar
     6    20    15    1
     7    15     1    1
     8     1     2   ar
     9     2     3   ar
    10     3     4   ar
    11     4     5   ar
    12     5    10    1
    13    10    11   am
    14    10    12    2
    15     5     6   ar
    16     6     7   ar
    17     7     8   ar
    18     8     9   ar
    19     9    25    1
    20    25    26    1
    21    26    27   ar
    22    27    28   ar
    23    28    29   ar
    24    29    30   ar
    25    30    31   ar
    26    31    32    1
    27    32    33    1
    28    32    34    1
    29    32    35    1
    30    20    21   ar
    31    21    22   ar
    32    22    17   ar
    33     9     1   ar
    34    31    26   ar
    35     8     3   ar
    36    15    16    1
    37    11    13    1
    38    11    14    1
