@<TRIPOS>MOLECULE
*****
 27 29 0 0 0
SMALL
GASTEIGER

@<TRIPOS>ATOM
      1 C          -5.2018  -18.6698   22.3217 C.ar    1  UNL1        0.1041
      2 C          -5.6742  -20.0001   21.8146 C.ar    1  UNL1        0.0212
      3 C          -7.1206  -20.3785   21.9360 C.ar    1  UNL1        0.0385
      4 C          -8.0946  -19.4266   22.5645 C.ar    1  UNL1        0.1413
      5 C          -7.6223  -18.0963   23.0716 C.ar    1  UNL1        0.0176
      6 C          -6.1759  -17.7179   22.9502 C.ar    1  UNL1        0.0259
      7 C          -6.0044  -16.3478   23.5363 C.3     1  UNL1        0.1956
      8 O          -4.7183  -15.5808   23.6235 O.3     1  UNL1       -0.3752
      9 C          -7.3449  -15.8794   24.0199 C.3     1  UNL1        0.2958
     10 F          -6.5923  -14.6470   24.4259 F       1  UNL1       -0.2010
     11 F          -8.5280  -15.1534   24.5884 F       1  UNL1       -0.2010
     12 C          -8.3447  -16.9601   23.7327 C.3     1  UNL1        0.0986
     13 H          -4.0006  -16.1082   23.2392 H       1  UNL1        0.2110
     14 C          -2.3090  -17.9130   22.0789 C.3     1  UNL1        0.1816
     15 S          -3.7554  -18.2914   22.2003 S.O2    1  UNL1        0.0102
     16 O          -3.9158  -18.1546   20.7152 O.2     1  UNL1       -0.1686
     17 O          -3.5950  -18.4282   23.6854 O.2     1  UNL1       -0.1686
     18 O          -9.5410  -19.8050   22.6859 O.3     1  UNL1       -0.4537
     19 C         -10.6082  -18.7898   22.4024 C.ar    1  UNL1        0.1482
     20 C         -11.8162  -18.7043   23.2874 C.ar    1  UNL1        0.0671
     21 C         -12.8835  -17.6890   23.0038 C.ar    1  UNL1        0.1439
     22 F         -14.0915  -17.6036   23.8889 F       1  UNL1       -0.2040
     23 C         -12.7426  -16.7593   21.8352 C.ar    1  UNL1        0.0401
     24 C         -11.5346  -16.8448   20.9501 C.ar    1  UNL1        0.0737
     25 C         -10.4674  -17.8600   21.2337 C.ar    1  UNL1        0.0479
     26 C         -11.3937  -15.9150   19.7815 C.1     1  UNL1        0.1006
     27 N         -11.2529  -14.9852   18.6129 N.1     1  UNL1       -0.1908
@<TRIPOS>BOND
     1    14    15    1
     2    15    16    2
     3    15    17    2
     4    15     1    1
     5     1     2   ar
     6     2     3   ar
     7     3     4   ar
     8     4    18    1
     9    18    19    1
    10    19    20   ar
    11    20    21   ar
    12    21    22    1
    13    21    23   ar
    14    23    24   ar
    15    24    26    1
    16    26    27    3
    17    24    25   ar
    18     4     5   ar
    19     5     6   ar
    20     6     7    1
    21     7     8    1
    22     7     9    1
    23     9    10    1
    24     9    11    1
    25     9    12    1
    26     6     1   ar
    27    25    19   ar
    28    12     5    1
    29     8    13    1
@<TRIPOS>MOLECULE
*****
 27 29 0 0 0
SMALL
GASTEIGER

@<TRIPOS>ATOM
      1 C          -5.2133  -18.9874   21.4293 C.ar    1  UNL1        0.1041
      2 C          -5.5641  -20.0500   20.4305 C.ar    1  UNL1        0.0212
      3 C          -7.0007  -20.3136   20.0891 C.ar    1  UNL1        0.0385
      4 C          -8.0866  -19.5146   20.7466 C.ar    1  UNL1        0.1413
      5 C          -7.7359  -18.4519   21.7455 C.ar    1  UNL1        0.0176
      6 C          -6.2992  -18.1883   22.0868 C.ar    1  UNL1        0.0259
      7 C          -6.2589  -17.0846   23.1018 C.3     1  UNL1        0.1956
      8 O          -5.0237  -16.5018   23.7220 O.3     1  UNL1       -0.3752
      9 C          -7.6707  -16.6661   23.3878 C.3     1  UNL1        0.2958
     10 F          -7.0248  -15.6909   24.3269 F       1  UNL1       -0.2010
     11 F          -8.9474  -16.0437   23.8700 F       1  UNL1       -0.2010
     12 C          -8.5835  -17.5111   22.5495 C.3     1  UNL1        0.0986
     13 H          -4.2407  -16.9498   23.3655 H       1  UNL1        0.2110
     14 C          -2.3400  -18.4602   22.1121 C.3     1  UNL1        0.1816
     15 S          -3.7766  -18.7238   21.7707 S.O2    1  UNL1        0.0102
     16 O          -3.9759  -19.3710   23.1091 O.2     1  UNL1       -0.1686
     17 O          -3.5774  -18.0765   20.4323 O.2     1  UNL1       -0.1686
     18 O          -9.5233  -19.7782   20.4053 O.3     1  UNL1       -0.4537
     19 C         -10.5668  -18.7421   20.7012 C.ar    1  UNL1        0.1482
     20 C         -10.7375  -17.5666   19.7852 C.ar    1  UNL1        0.0671
     21 C         -11.7811  -16.5305   20.0813 C.ar    1  UNL1        0.1439
     22 F         -11.9518  -15.3550   19.1653 F       1  UNL1       -0.2040
     23 C         -12.6538  -16.6699   21.2932 C.ar    1  UNL1        0.0401
     24 C         -12.4831  -17.8454   22.2092 C.ar    1  UNL1        0.0737
     25 C         -11.4396  -18.8815   21.9132 C.ar    1  UNL1        0.0479
     26 C         -13.3559  -17.9848   23.4212 C.1     1  UNL1        0.1006
     27 N         -14.2286  -18.1242   24.6331 N.1     1  UNL1       -0.1908
@<TRIPOS>BOND
     1    14    15    1
     2    15    16    2
     3    15    17    2
     4    15     1    1
     5     1     2   ar
     6     2     3   ar
     7     3     4   ar
     8     4    18    1
     9    18    19    1
    10    19    20   ar
    11    20    21   ar
    12    21    22    1
    13    21    23   ar
    14    23    24   ar
    15    24    26    1
    16    26    27    3
    17    24    25   ar
    18     4     5   ar
    19     5     6   ar
    20     6     7    1
    21     7     8    1
    22     7     9    1
    23     9    10    1
    24     9    11    1
    25     9    12    1
    26     6     1   ar
    27    25    19   ar
    28    12     5    1
    29     8    13    1
@<TRIPOS>MOLECULE
*****
 27 29 0 0 0
SMALL
GASTEIGER

@<TRIPOS>ATOM
      1 C          -4.1397  -19.2184   20.9352 C.ar    1  UNL1        0.1041
      2 C          -4.8665  -20.4413   20.4597 C.ar    1  UNL1        0.0212
      3 C          -6.2214  -20.7710   21.0126 C.ar    1  UNL1        0.0385
      4 C          -6.8494  -19.8778   22.0410 C.ar    1  UNL1        0.1413
      5 C          -6.1226  -18.6548   22.5165 C.ar    1  UNL1        0.0176
      6 C          -4.7678  -18.3251   21.9636 C.ar    1  UNL1        0.0259
      7 C          -4.2949  -17.0612   22.6185 C.3     1  UNL1        0.1956
      8 O          -2.9887  -16.3701   22.3610 O.3     1  UNL1       -0.3752
      9 C          -5.3575  -16.6098   23.5762 C.3     1  UNL1        0.2958
     10 F          -4.4085  -15.4812   23.8515 F       1  UNL1       -0.2010
     11 F          -6.2217  -15.9224   24.5914 F       1  UNL1       -0.2010
     12 C          -6.4870  -17.5947   23.5131 C.3     1  UNL1        0.0986
     13 H          -2.4850  -16.8675   21.6978 H       1  UNL1        0.2110
     14 C          -1.4300  -18.5590   19.8294 C.3     1  UNL1        0.1816
     15 S          -2.7849  -18.8887   20.3823 S.O2    1  UNL1        0.0102
     16 O          -2.1771  -19.9684   21.2278 O.2     1  UNL1       -0.1686
     17 O          -3.3927  -17.8090   19.5368 O.2     1  UNL1       -0.1686
     18 O          -8.2042  -20.2075   22.5939 O.3     1  UNL1       -0.4537
     19 C          -9.3949  -19.3835   22.2023 C.ar    1  UNL1        0.1482
     20 C          -9.4307  -18.7055   20.8648 C.ar    1  UNL1        0.0671
     21 C         -10.6214  -17.8815   20.4733 C.ar    1  UNL1        0.1439
     22 F         -10.6572  -17.2034   19.1357 F       1  UNL1       -0.2040
     23 C         -11.7763  -17.7356   21.4192 C.ar    1  UNL1        0.0401
     24 C         -11.7406  -18.4136   22.7567 C.ar    1  UNL1        0.0737
     25 C         -10.5499  -19.2376   23.1483 C.ar    1  UNL1        0.0479
     26 C         -12.8956  -18.2677   23.7027 C.1     1  UNL1        0.1006
     27 N         -14.0505  -18.1217   24.6486 N.1     1  UNL1       -0.1908
@<TRIPOS>BOND
     1    14    15    1
     2    15    16    2
     3    15    17    2
     4    15     1    1
     5     1     2   ar
     6     2     3   ar
     7     3     4   ar
     8     4    18    1
     9    18    19    1
    10    19    20   ar
    11    20    21   ar
    12    21    22    1
    13    21    23   ar
    14    23    24   ar
    15    24    26    1
    16    26    27    3
    17    24    25   ar
    18     4     5   ar
    19     5     6   ar
    20     6     7    1
    21     7     8    1
    22     7     9    1
    23     9    10    1
    24     9    11    1
    25     9    12    1
    26     6     1   ar
    27    25    19   ar
    28    12     5    1
    29     8    13    1
@<TRIPOS>MOLECULE
*****
 27 29 0 0 0
SMALL
GASTEIGER

@<TRIPOS>ATOM
      1 C          -9.4987  -17.5018   22.0039 C.ar    1  UNL1        0.1041
      2 C          -8.3630  -17.3708   22.9749 C.ar    1  UNL1        0.0212
      3 C          -7.1183  -18.1867   22.7877 C.ar    1  UNL1        0.0385
      4 C          -7.0093  -19.1336   21.6295 C.ar    1  UNL1        0.1413
      5 C          -8.1451  -19.2646   20.6585 C.ar    1  UNL1        0.0176
      6 C          -9.3898  -18.4487   20.8457 C.ar    1  UNL1        0.0259
      7 C         -10.3382  -18.7885   19.7344 C.3     1  UNL1        0.1956
      8 O         -11.7052  -18.2048   19.5326 O.3     1  UNL1       -0.3752
      9 C          -9.6797  -19.8144   18.8604 C.3     1  UNL1        0.2958
     10 F         -10.9531  -19.7309   18.0721 F       1  UNL1       -0.2010
     11 F          -9.2874  -20.8228   17.8215 F       1  UNL1       -0.2010
     12 C          -8.3243  -20.1086   19.4315 C.3     1  UNL1        0.0986
     13 H         -11.8906  -17.5645   20.2372 H       1  UNL1        0.2110
     14 C         -11.9881  -15.8701   22.3783 C.3     1  UNL1        0.1816
     15 S         -10.7434  -16.6859   22.1911 S.O2    1  UNL1        0.0102
     16 O         -11.1474  -17.5652   23.3374 O.2     1  UNL1       -0.1686
     17 O         -10.3395  -15.8067   21.0449 O.2     1  UNL1       -0.1686
     18 O          -5.7646  -19.9495   21.4423 O.3     1  UNL1       -0.4537
     19 C          -4.4313  -19.2703   21.3378 C.ar    1  UNL1        0.1482
     20 C          -3.7077  -18.8432   22.5803 C.ar    1  UNL1        0.0671
     21 C          -2.3743  -18.1640   22.4757 C.ar    1  UNL1        0.1439
     22 F          -1.6506  -17.7369   23.7183 F       1  UNL1       -0.2040
     23 C          -1.7647  -17.9119   21.1286 C.ar    1  UNL1        0.0401
     24 C          -2.4883  -18.3390   19.8861 C.ar    1  UNL1        0.0737
     25 C          -3.8216  -19.0182   19.9906 C.ar    1  UNL1        0.0479
     26 C          -1.8786  -18.0868   18.5389 C.1     1  UNL1        0.1006
     27 N          -1.2690  -17.8347   17.1918 N.1     1  UNL1       -0.1908
@<TRIPOS>BOND
     1    14    15    1
     2    15    16    2
     3    15    17    2
     4    15     1    1
     5     1     2   ar
     6     2     3   ar
     7     3     4   ar
     8     4    18    1
     9    18    19    1
    10    19    20   ar
    11    20    21   ar
    12    21    22    1
    13    21    23   ar
    14    23    24   ar
    15    24    26    1
    16    26    27    3
    17    24    25   ar
    18     4     5   ar
    19     5     6   ar
    20     6     7    1
    21     7     8    1
    22     7     9    1
    23     9    10    1
    24     9    11    1
    25     9    12    1
    26     6     1   ar
    27    25    19   ar
    28    12     5    1
    29     8    13    1
@<TRIPOS>MOLECULE
*****
 27 29 0 0 0
SMALL
GASTEIGER

@<TRIPOS>ATOM
      1 C          -9.9663  -18.0834   20.6856 C.ar    1  UNL1        0.1041
      2 C          -9.6690  -19.2194   19.7524 C.ar    1  UNL1        0.0212
      3 C          -8.3604  -19.9463   19.8485 C.ar    1  UNL1        0.0385
      4 C          -7.3491  -19.5371   20.8779 C.ar    1  UNL1        0.1413
      5 C          -7.6463  -18.4011   21.8111 C.ar    1  UNL1        0.0176
      6 C          -8.9549  -17.6742   21.7150 C.ar    1  UNL1        0.0259
      7 C          -8.9671  -16.6011   22.7629 C.3     1  UNL1        0.1956
      8 O         -10.0843  -15.6341   23.0216 O.3     1  UNL1       -0.3752
      9 C          -7.6661  -16.6647   23.5068 C.3     1  UNL1        0.2958
     10 F          -8.2353  -15.5153   24.2845 F       1  UNL1       -0.2010
     11 F          -6.4841  -16.4881   24.4132 F       1  UNL1       -0.2010
     12 C          -6.8498  -17.7772   22.9185 C.3     1  UNL1        0.0986
     13 H         -10.8107  -15.8060   22.4022 H       1  UNL1        0.2110
     14 C         -12.5834  -16.6296   20.4933 C.3     1  UNL1        0.1816
     15 S         -11.2748  -17.3565   20.5894 S.O2    1  UNL1        0.0102
     16 O         -10.5854  -16.2035   19.9221 O.2     1  UNL1       -0.1686
     17 O         -11.9643  -18.5094   21.2568 O.2     1  UNL1       -0.1686
     18 O          -6.0405  -20.2640   20.9741 O.3     1  UNL1       -0.4537
     19 C          -4.7548  -19.4923   21.0112 C.ar    1  UNL1        0.1482
     20 C          -4.1807  -19.0542   22.3259 C.ar    1  UNL1        0.0671
     21 C          -2.8950  -18.2824   22.3629 C.ar    1  UNL1        0.1439
     22 F          -2.3209  -17.8443   23.6776 F       1  UNL1       -0.2040
     23 C          -2.1834  -17.9487   21.0853 C.ar    1  UNL1        0.0401
     24 C          -2.7576  -18.3869   19.7706 C.ar    1  UNL1        0.0737
     25 C          -4.0432  -19.1586   19.7335 C.ar    1  UNL1        0.0479
     26 C          -2.0459  -18.0532   18.4929 C.1     1  UNL1        0.1006
     27 N          -1.3343  -17.7195   17.2154 N.1     1  UNL1       -0.1908
@<TRIPOS>BOND
     1    14    15    1
     2    15    16    2
     3    15    17    2
     4    15     1    1
     5     1     2   ar
     6     2     3   ar
     7     3     4   ar
     8     4    18    1
     9    18    19    1
    10    19    20   ar
    11    20    21   ar
    12    21    22    1
    13    21    23   ar
    14    23    24   ar
    15    24    26    1
    16    26    27    3
    17    24    25   ar
    18     4     5   ar
    19     5     6   ar
    20     6     7    1
    21     7     8    1
    22     7     9    1
    23     9    10    1
    24     9    11    1
    25     9    12    1
    26     6     1   ar
    27    25    19   ar
    28    12     5    1
    29     8    13    1
@<TRIPOS>MOLECULE
*****
 27 29 0 0 0
SMALL
GASTEIGER

@<TRIPOS>ATOM
      1 C          -4.0560  -19.1863   20.8760 C.ar    1  UNL1        0.1041
      2 C          -4.7215  -20.3852   20.2680 C.ar    1  UNL1        0.0212
      3 C          -6.1077  -20.7697   20.6930 C.ar    1  UNL1        0.0385
      4 C          -6.8284  -19.9553   21.7261 C.ar    1  UNL1        0.1413
      5 C          -6.1629  -18.7564   22.3341 C.ar    1  UNL1        0.0176
      6 C          -4.7767  -18.3719   21.9091 C.ar    1  UNL1        0.0259
      7 C          -4.3787  -17.1476   22.6789 C.3     1  UNL1        0.1956
      8 O          -3.0702  -16.4227   22.5675 O.3     1  UNL1       -0.3752
      9 C          -5.5189  -16.7753   23.5797 C.3     1  UNL1        0.2958
     10 F          -4.6150  -15.6542   23.9994 F       1  UNL1       -0.2010
     11 F          -6.4701  -16.1688   24.5682 F       1  UNL1       -0.2010
     12 C          -6.6216  -17.7697   23.3666 C.3     1  UNL1        0.0986
     13 H          -2.5085  -16.8680   21.9140 H       1  UNL1        0.2110
     14 C          -1.2836  -18.4173   20.0260 C.3     1  UNL1        0.1816
     15 S          -2.6698  -18.8018   20.4510 S.O2    1  UNL1        0.0102
     16 O          -3.2287  -17.6490   19.6708 O.2     1  UNL1       -0.1686
     17 O          -2.1108  -19.9546   21.2312 O.2     1  UNL1       -0.1686
     18 O          -8.2146  -20.3397   22.1511 O.3     1  UNL1       -0.4537
     19 C          -9.2876  -19.2957   22.2430 C.ar    1  UNL1        0.1482
     20 C         -10.2103  -19.2705   23.4253 C.ar    1  UNL1        0.0671
     21 C         -11.2834  -18.2263   23.5171 C.ar    1  UNL1        0.1439
     22 F         -12.2061  -18.2011   24.6995 F       1  UNL1       -0.2040
     23 C         -11.4336  -17.2074   22.4267 C.ar    1  UNL1        0.0401
     24 C         -10.5109  -17.2326   21.2443 C.ar    1  UNL1        0.0737
     25 C          -9.4379  -18.2767   21.1525 C.ar    1  UNL1        0.0479
     26 C         -10.6612  -16.2136   20.1538 C.1     1  UNL1        0.1006
     27 N         -10.8115  -15.1946   19.0634 N.1     1  UNL1       -0.1908
@<TRIPOS>BOND
     1    14    15    1
     2    15    16    2
     3    15    17    2
     4    15     1    1
     5     1     2   ar
     6     2     3   ar
     7     3     4   ar
     8     4    18    1
     9    18    19    1
    10    19    20   ar
    11    20    21   ar
    12    21    22    1
    13    21    23   ar
    14    23    24   ar
    15    24    26    1
    16    26    27    3
    17    24    25   ar
    18     4     5   ar
    19     5     6   ar
    20     6     7    1
    21     7     8    1
    22     7     9    1
    23     9    10    1
    24     9    11    1
    25     9    12    1
    26     6     1   ar
    27    25    19   ar
    28    12     5    1
    29     8    13    1
@<TRIPOS>MOLECULE
*****
 27 29 0 0 0
SMALL
GASTEIGER

@<TRIPOS>ATOM
      1 C          -3.2707  -17.7216   21.7852 C.ar    1  UNL1        0.1041
      2 C          -3.2189  -16.4931   22.6442 C.ar    1  UNL1        0.0212
      3 C          -4.4140  -16.0973   23.4599 C.ar    1  UNL1        0.0385
      4 C          -5.6608  -16.9301   23.4165 C.ar    1  UNL1        0.1413
      5 C          -5.7125  -18.1586   22.5575 C.ar    1  UNL1        0.0176
      6 C          -4.5175  -18.5544   21.7419 C.ar    1  UNL1        0.0259
      7 C          -4.8613  -19.8086   20.9943 C.3     1  UNL1        0.1956
      8 O          -3.9564  -20.5527   20.0576 O.3     1  UNL1       -0.3752
      9 C          -6.2688  -20.1880   21.3479 C.3     1  UNL1        0.2958
     10 F          -6.0263  -21.3372   20.4150 F       1  UNL1       -0.2010
     11 F          -7.6256  -20.8076   21.5065 F       1  UNL1       -0.2010
     12 C          -6.7948  -19.1682   22.3140 C.3     1  UNL1        0.0986
     13 H          -3.1015  -20.0976   20.0041 H       1  UNL1        0.2110
     14 C          -0.8806  -18.5131   20.1540 C.3     1  UNL1        0.1816
     15 S          -2.0757  -18.1174   20.9696 S.O2    1  UNL1        0.0102
     16 O          -2.4118  -17.0575   19.9628 O.2     1  UNL1       -0.1686
     17 O          -1.7395  -19.1773   21.9764 O.2     1  UNL1       -0.1686
     18 O          -6.8558  -16.5343   24.2321 O.3     1  UNL1       -0.4537
     19 C          -8.2377  -16.7380   23.6856 C.ar    1  UNL1        0.1482
     20 C          -9.2346  -17.5554   24.4525 C.ar    1  UNL1        0.0671
     21 C         -10.6166  -17.7592   23.9059 C.ar    1  UNL1        0.1439
     22 F         -11.6134  -18.5766   24.6727 F       1  UNL1       -0.2040
     23 C         -11.0016  -17.1455   22.5924 C.ar    1  UNL1        0.0401
     24 C         -10.0047  -16.3281   21.8255 C.ar    1  UNL1        0.0737
     25 C          -8.6228  -16.1244   22.3721 C.ar    1  UNL1        0.0479
     26 C         -10.3898  -15.7145   20.5120 C.1     1  UNL1        0.1006
     27 N         -10.7749  -15.1008   19.1986 N.1     1  UNL1       -0.1908
@<TRIPOS>BOND
     1    14    15    1
     2    15    16    2
     3    15    17    2
     4    15     1    1
     5     1     2   ar
     6     2     3   ar
     7     3     4   ar
     8     4    18    1
     9    18    19    1
    10    19    20   ar
    11    20    21   ar
    12    21    22    1
    13    21    23   ar
    14    23    24   ar
    15    24    26    1
    16    26    27    3
    17    24    25   ar
    18     4     5   ar
    19     5     6   ar
    20     6     7    1
    21     7     8    1
    22     7     9    1
    23     9    10    1
    24     9    11    1
    25     9    12    1
    26     6     1   ar
    27    25    19   ar
    28    12     5    1
    29     8    13    1
@<TRIPOS>MOLECULE
*****
 27 29 0 0 0
SMALL
GASTEIGER

@<TRIPOS>ATOM
      1 C          -2.4970  -17.6249   20.5059 C.ar    1  UNL1        0.1041
      2 C          -2.0619  -16.4762   21.3669 C.ar    1  UNL1        0.0212
      3 C          -2.7006  -16.2591   22.7066 C.ar    1  UNL1        0.0385
      4 C          -3.7743  -17.1907   23.1855 C.ar    1  UNL1        0.1413
      5 C          -4.2093  -18.3393   22.3246 C.ar    1  UNL1        0.0176
      6 C          -3.5706  -18.5564   20.9848 C.ar    1  UNL1        0.0259
      7 C          -4.2018  -19.7658   20.3610 C.3     1  UNL1        0.1956
      8 O          -3.8635  -20.3434   19.0186 O.3     1  UNL1       -0.3752
      9 C          -5.2304  -20.2962   21.3152 C.3     1  UNL1        0.2958
     10 F          -5.4504  -21.3340   20.2548 F       1  UNL1       -0.2010
     11 F          -6.3051  -21.0434   22.0478 F       1  UNL1       -0.2010
     12 C          -5.2351  -19.4145   22.5287 C.3     1  UNL1        0.0986
     13 H          -3.1652  -19.8124   18.6048 H       1  UNL1        0.2110
     14 C          -1.2197  -18.0591   17.8264 C.3     1  UNL1        0.1816
     15 S          -1.8583  -17.8420   19.1662 S.O2    1  UNL1        0.0102
     16 O          -0.7216  -18.5654   19.8253 O.2     1  UNL1       -0.1686
     17 O          -2.9951  -17.1186   18.5071 O.2     1  UNL1       -0.1686
     18 O          -4.4129  -16.9735   24.5253 O.3     1  UNL1       -0.4537
     19 C          -5.8132  -16.4428   24.6115 C.ar    1  UNL1        0.1482
     20 C          -6.3329  -15.9055   25.9119 C.ar    1  UNL1        0.0671
     21 C          -7.7333  -15.3748   25.9981 C.ar    1  UNL1        0.1439
     22 F          -8.2530  -14.8375   27.2986 F       1  UNL1       -0.2040
     23 C          -8.6138  -15.3813   24.7838 C.ar    1  UNL1        0.0401
     24 C          -8.0941  -15.9185   23.4833 C.ar    1  UNL1        0.0737
     25 C          -6.6938  -16.4493   23.3971 C.ar    1  UNL1        0.0479
     26 C          -8.9747  -15.9250   22.2690 C.1     1  UNL1        0.1006
     27 N          -9.8553  -15.9314   21.0547 N.1     1  UNL1       -0.1908
@<TRIPOS>BOND
     1    14    15    1
     2    15    16    2
     3    15    17    2
     4    15     1    1
     5     1     2   ar
     6     2     3   ar
     7     3     4   ar
     8     4    18    1
     9    18    19    1
    10    19    20   ar
    11    20    21   ar
    12    21    22    1
    13    21    23   ar
    14    23    24   ar
    15    24    26    1
    16    26    27    3
    17    24    25   ar
    18     4     5   ar
    19     5     6   ar
    20     6     7    1
    21     7     8    1
    22     7     9    1
    23     9    10    1
    24     9    11    1
    25     9    12    1
    26     6     1   ar
    27    25    19   ar
    28    12     5    1
    29     8    13    1
@<TRIPOS>MOLECULE
*****
 27 29 0 0 0
SMALL
GASTEIGER

@<TRIPOS>ATOM
      1 C          -3.1113  -17.8181   21.7004 C.ar    1  UNL1        0.1041
      2 C          -3.0699  -16.6631   22.6565 C.ar    1  UNL1        0.0212
      3 C          -4.2734  -16.3358   23.4898 C.ar    1  UNL1        0.0385
      4 C          -5.5183  -17.1636   23.3671 C.ar    1  UNL1        0.1413
      5 C          -5.5596  -18.3186   22.4110 C.ar    1  UNL1        0.0176
      6 C          -4.3562  -18.6459   21.5776 C.ar    1  UNL1        0.0259
      7 C          -4.6906  -19.8358   20.7277 C.3     1  UNL1        0.1956
      8 O          -3.7755  -20.5008   19.7427 O.3     1  UNL1       -0.3752
      9 C          -6.1007  -20.2439   21.0358 C.3     1  UNL1        0.2958
     10 F          -5.8473  -21.3136   20.0153 F       1  UNL1       -0.2010
     11 F          -7.4579  -20.8756   21.1306 F       1  UNL1       -0.2010
     12 C          -6.6378  -19.3062   22.0761 C.3     1  UNL1        0.0986
     13 H          -2.9209  -20.0420   19.7345 H       1  UNL1        0.2110
     14 C          -0.7043  -18.4727   20.0336 C.3     1  UNL1        0.1816
     15 S          -1.9078  -18.1454   20.8670 S.O2    1  UNL1        0.0102
     16 O          -1.5626  -19.2640   21.8048 O.2     1  UNL1       -0.1686
     17 O          -2.2530  -17.0268   19.9291 O.2     1  UNL1       -0.1686
     18 O          -6.7217  -16.8363   24.2005 O.3     1  UNL1       -0.4537
     19 C          -8.0698  -16.7118   23.5547 C.ar    1  UNL1        0.1482
     20 C          -8.2437  -15.8455   22.3425 C.ar    1  UNL1        0.0671
     21 C          -9.5919  -15.7210   21.6968 C.ar    1  UNL1        0.1439
     22 F          -9.7657  -14.8547   20.4846 F       1  UNL1       -0.2040
     23 C         -10.7661  -16.4627   22.2631 C.ar    1  UNL1        0.0401
     24 C         -10.5923  -17.3290   23.4753 C.ar    1  UNL1        0.0737
     25 C          -9.2442  -17.4535   24.1211 C.ar    1  UNL1        0.0479
     26 C         -11.7667  -18.0708   24.0417 C.1     1  UNL1        0.1006
     27 N         -12.9410  -18.8125   24.6081 N.1     1  UNL1       -0.1908
@<TRIPOS>BOND
     1    14    15    1
     2    15    16    2
     3    15    17    2
     4    15     1    1
     5     1     2   ar
     6     2     3   ar
     7     3     4   ar
     8     4    18    1
     9    18    19    1
    10    19    20   ar
    11    20    21   ar
    12    21    22    1
    13    21    23   ar
    14    23    24   ar
    15    24    26    1
    16    26    27    3
    17    24    25   ar
    18     4     5   ar
    19     5     6   ar
    20     6     7    1
    21     7     8    1
    22     7     9    1
    23     9    10    1
    24     9    11    1
    25     9    12    1
    26     6     1   ar
    27    25    19   ar
    28    12     5    1
    29     8    13    1
