@<TRIPOS>MOLECULE
*****
 28 31 0 0 0
SMALL
GASTEIGER

@<TRIPOS>ATOM
      1 N          -7.1352  -20.5042   21.1170 N.am    1  UNL1       -0.2996
      2 C          -7.9954  -19.5469   20.3463 C.2     1  UNL1        0.2651
      3 O          -7.6995  -19.2682   18.9025 O.2     1  UNL1       -0.2684
      4 H          -7.3294  -20.6871   22.0646 H       1  UNL1        0.1498
      5 C          -9.1515  -18.8684   21.0195 C.ar    1  UNL1        0.1517
      6 N          -9.9935  -17.7735   20.4346 N.ar    1  UNL1       -0.2260
      7 C         -11.0308  -17.3941   21.4495 C.ar    1  UNL1        0.1239
      8 N         -10.8299  -18.2546   22.6616 N.ar    1  UNL1       -0.2921
      9 C         -11.5546  -18.3261   23.9730 C.ar    1  UNL1        0.0811
     10 C         -11.1177  -19.3088   25.0186 C.ar    1  UNL1        0.0191
     11 C          -9.9561  -20.2200   24.7529 C.ar    1  UNL1        0.0031
     12 C          -9.2315  -20.1484   23.4415 C.ar    1  UNL1        0.0193
     13 C          -9.6684  -19.1657   22.3959 C.ar    1  UNL1        0.0872
     14 C         -12.0842  -16.3395   21.2817 C.3     1  UNL1        0.0573
     15 C         -12.5383  -15.9449   19.9076 C.3     1  UNL1        0.0079
     16 C         -12.6835  -15.6794   22.4879 C.3     1  UNL1        0.0079
     17 C          -5.9792  -21.1826   20.4437 C.3     1  UNL1        0.0898
     18 N          -1.5342  -18.7247   19.9103 N.3     1  UNL1       -0.2726
     19 C          -1.8848  -19.6842   21.0087 C.3     1  UNL1        0.0721
     20 C          -3.2856  -20.1663   20.7733 C.3     1  UNL1        0.0191
     21 C          -4.6737  -20.4608   20.2871 C.3     1  UNL1        0.0224
     22 C          -3.8007  -19.5048   19.5295 C.3     1  UNL1        0.0191
     23 C          -2.7182  -18.6138   18.9961 C.3     1  UNL1        0.0721
     24 C          -0.2287  -18.0028   19.7536 C.3     1  UNL1        0.0747
     25 C          -0.1186  -16.5587   20.1441 C.3     1  UNL1        0.0494
     26 C          -0.8963  -16.0374   21.3161 C.3     1  UNL1        0.1437
     27 C          -3.1439  -16.6656   22.4579 C.3     1  UNL1        0.1741
     28 O          -2.3957  -16.0771   21.2987 O.3     1  UNL1       -0.3511
@<TRIPOS>BOND
     1    27    28    1
     2    28    26    1
     3    26    25    1
     4    25    24    1
     5    24    18    1
     6    18    19    1
     7    20    19    1
     8    20    21    1
     9    21    17    1
    10    17     1    1
    11     1     2   am
    12     2     3    2
    13     2     5    1
    14     5     6   ar
    15     6     7   ar
    16     7    14    1
    17    14    15    1
    18    14    16    1
    19     7     8   ar
    20     8     9   ar
    21     9    10   ar
    22    10    11   ar
    23    11    12   ar
    24    12    13   ar
    25    21    22    1
    26    22    23    1
    27    23    18    1
    28    22    20    1
    29    13     5   ar
    30    13     8   ar
    31     1     4    1
@<TRIPOS>MOLECULE
*****
 28 31 0 0 0
SMALL
GASTEIGER

@<TRIPOS>ATOM
      1 N          -7.0160  -20.4690   21.3746 N.am    1  UNL1       -0.2996
      2 C          -7.3826  -19.0252   21.1972 C.2     1  UNL1        0.2651
      3 O          -6.7057  -18.2040   20.1403 O.2     1  UNL1       -0.2684
      4 H          -7.4602  -21.0080   22.0683 H       1  UNL1        0.1498
      5 C          -8.4261  -18.4029   22.0769 C.ar    1  UNL1        0.1517
      6 N          -9.8786  -18.7748   22.1204 N.ar    1  UNL1       -0.2260
      7 C         -10.5504  -17.9011   23.1379 C.ar    1  UNL1        0.1239
      8 N          -9.5132  -16.9893   23.7233 N.ar    1  UNL1       -0.2921
      9 C          -9.5945  -15.9167   24.7687 C.ar    1  UNL1        0.0811
     10 C          -8.3630  -15.1542   25.1583 C.ar    1  UNL1        0.0191
     11 C          -7.0500  -15.4644   24.5025 C.ar    1  UNL1        0.0031
     12 C          -6.9687  -16.5369   23.4571 C.ar    1  UNL1        0.0193
     13 C          -8.2002  -17.2994   23.0675 C.ar    1  UNL1        0.0872
     14 C         -12.0043  -17.9336   23.5056 C.3     1  UNL1        0.0573
     15 C         -12.4710  -18.7912   24.6444 C.3     1  UNL1        0.0079
     16 C         -12.9915  -17.1086   22.7346 C.3     1  UNL1        0.0079
     17 C          -5.9725  -21.0913   20.4949 C.3     1  UNL1        0.0898
     18 N          -1.4475  -18.8018   19.8888 N.3     1  UNL1       -0.2726
     19 C          -1.8608  -19.6413   21.0612 C.3     1  UNL1        0.0721
     20 C          -3.2653  -20.1111   20.8226 C.3     1  UNL1        0.0191
     21 C          -4.6435  -20.4189   20.3169 C.3     1  UNL1        0.0224
     22 C          -3.7199  -19.5620   19.5029 C.3     1  UNL1        0.0191
     23 C          -2.5964  -18.7528   18.9257 C.3     1  UNL1        0.0721
     24 C          -0.1186  -18.1294   19.7108 C.3     1  UNL1        0.0747
     25 C           0.0384  -16.6767   20.0501 C.3     1  UNL1        0.0494
     26 C          -0.7578  -16.0783   21.1718 C.3     1  UNL1        0.1437
     27 C          -3.0174  -16.4998   22.3828 C.3     1  UNL1        0.1741
     28 O          -2.2564  -16.1370   21.1422 O.3     1  UNL1       -0.3511
@<TRIPOS>BOND
     1    27    28    1
     2    28    26    1
     3    26    25    1
     4    25    24    1
     5    24    18    1
     6    18    19    1
     7    20    19    1
     8    20    21    1
     9    21    17    1
    10    17     1    1
    11     1     2   am
    12     2     3    2
    13     2     5    1
    14     5     6   ar
    15     6     7   ar
    16     7    14    1
    17    14    15    1
    18    14    16    1
    19     7     8   ar
    20     8     9   ar
    21     9    10   ar
    22    10    11   ar
    23    11    12   ar
    24    12    13   ar
    25    21    22    1
    26    22    23    1
    27    23    18    1
    28    22    20    1
    29    13     5   ar
    30    13     8   ar
    31     1     4    1
@<TRIPOS>MOLECULE
*****
 28 31 0 0 0
SMALL
GASTEIGER

@<TRIPOS>ATOM
      1 N          -7.1884  -16.0730   24.3998 N.am    1  UNL1       -0.2996
      2 C          -7.9452  -15.7743   23.1395 C.2     1  UNL1        0.2651
      3 O          -7.3041  -14.9604   22.0549 O.2     1  UNL1       -0.2684
      4 H          -7.6091  -16.6072   25.1117 H       1  UNL1        0.1498
      5 C          -9.3429  -16.2896   22.9640 C.ar    1  UNL1        0.1517
      6 N         -10.1196  -17.0909   23.9664 N.ar    1  UNL1       -0.2260
      7 C         -11.4661  -17.3905   23.3772 C.ar    1  UNL1        0.1239
      8 N         -11.5216  -16.7744   22.0106 N.ar    1  UNL1       -0.2921
      9 C         -12.5975  -16.7451   20.9659 C.ar    1  UNL1        0.0811
     10 C         -12.3611  -16.0353   19.6658 C.ar    1  UNL1        0.0191
     11 C         -11.0490  -15.3549   19.4104 C.ar    1  UNL1        0.0031
     12 C          -9.9731  -15.3842   20.4552 C.ar    1  UNL1        0.0193
     13 C         -10.2094  -16.0940   21.7553 C.ar    1  UNL1        0.0872
     14 C         -12.5642  -18.1695   24.0384 C.3     1  UNL1        0.0573
     15 C         -13.9976  -17.8674   23.7151 C.3     1  UNL1        0.0079
     16 C         -12.2293  -19.2505   25.0227 C.3     1  UNL1        0.0079
     17 C          -5.7906  -15.5578   24.5753 C.3     1  UNL1        0.0898
     18 N          -1.9777  -17.5237   21.8038 N.3     1  UNL1       -0.2726
     19 C          -2.9202  -18.2953   22.6792 C.3     1  UNL1        0.0721
     20 C          -3.8767  -17.3218   23.3017 C.3     1  UNL1        0.0191
     21 C          -4.6708  -16.1352   23.7614 C.3     1  UNL1        0.0224
     22 C          -3.5253  -15.9486   22.8111 C.3     1  UNL1        0.0191
     23 C          -2.3516  -16.0734   21.8853 C.3     1  UNL1        0.0721
     24 C          -0.8579  -18.1011   20.9898 C.3     1  UNL1        0.0747
     25 C          -0.7558  -17.7884   19.5263 C.3     1  UNL1        0.0494
     26 C          -1.9011  -18.1040   18.6104 C.3     1  UNL1        0.1437
     27 C          -4.2700  -18.8057   19.4141 C.3     1  UNL1        0.1741
     28 O          -3.3007  -17.7364   19.0056 O.3     1  UNL1       -0.3511
@<TRIPOS>BOND
     1    27    28    1
     2    28    26    1
     3    26    25    1
     4    25    24    1
     5    24    18    1
     6    18    19    1
     7    20    19    1
     8    20    21    1
     9    21    17    1
    10    17     1    1
    11     1     2   am
    12     2     3    2
    13     2     5    1
    14     5     6   ar
    15     6     7   ar
    16     7    14    1
    17    14    15    1
    18    14    16    1
    19     7     8   ar
    20     8     9   ar
    21     9    10   ar
    22    10    11   ar
    23    11    12   ar
    24    12    13   ar
    25    21    22    1
    26    22    23    1
    27    23    18    1
    28    22    20    1
    29    13     5   ar
    30    13     8   ar
    31     1     4    1
@<TRIPOS>MOLECULE
*****
 28 31 0 0 0
SMALL
GASTEIGER

@<TRIPOS>ATOM
      1 N           6.5274   -5.1042   25.2121 N.am    1  UNL1       -0.2996
      2 C           7.0478   -4.1842   24.1477 C.2     1  UNL1        0.2651
      3 O           8.4706   -3.7117   24.1949 O.2     1  UNL1       -0.2684
      4 H           5.5935   -5.4143   25.1812 H       1  UNL1        0.1498
      5 C           6.1454   -3.7368   23.0362 C.ar    1  UNL1        0.1517
      6 N           6.1505   -4.2614   21.6310 N.ar    1  UNL1       -0.2260
      7 C           5.0876   -3.5350   20.8612 C.ar    1  UNL1        0.1239
      8 N           4.4256   -2.5614   21.7906 N.ar    1  UNL1       -0.2921
      9 C           3.3119   -1.5775   21.5866 C.ar    1  UNL1        0.0811
     10 C           2.8520   -0.7183   22.7268 C.ar    1  UNL1        0.0191
     11 C           3.5058   -0.8430   24.0711 C.ar    1  UNL1        0.0031
     12 C           4.6194   -1.8269   24.2752 C.ar    1  UNL1        0.0193
     13 C           5.0793   -2.6861   23.1349 C.ar    1  UNL1        0.0872
     14 C           4.7466   -3.7452   19.4156 C.3     1  UNL1        0.0573
     15 C           3.7446   -4.7913   19.0259 C.3     1  UNL1        0.0079
     16 C           5.4075   -2.9095   18.3599 C.3     1  UNL1        0.0079
     17 C           7.4299   -5.5516   26.3236 C.3     1  UNL1        0.0898
     18 N           6.5279   -4.0294   31.1146 N.3     1  UNL1       -0.2726
     19 C           6.9053   -5.4166   30.6865 C.3     1  UNL1        0.0721
     20 C           7.0726   -5.4123   29.1959 C.3     1  UNL1        0.0191
     21 C           7.1650   -5.1046   27.7307 C.3     1  UNL1        0.0224
     22 C           6.7985   -4.0225   28.7026 C.3     1  UNL1        0.0191
     23 C           6.4618   -3.1678   29.8885 C.3     1  UNL1        0.0721
     24 C           6.2629   -3.5823   32.5217 C.3     1  UNL1        0.0747
     25 C           5.8651   -2.1621   32.7950 C.3     1  UNL1        0.0494
     26 C           4.5877   -1.8682   33.5245 C.3     1  UNL1        0.1437
     27 C           3.4201   -0.8749   31.4269 C.3     1  UNL1        0.1741
     28 O           3.5725   -0.9459   32.9175 O.3     1  UNL1       -0.3511
@<TRIPOS>BOND
     1    27    28    1
     2    28    26    1
     3    26    25    1
     4    25    24    1
     5    24    18    1
     6    18    19    1
     7    20    19    1
     8    20    21    1
     9    21    17    1
    10    17     1    1
    11     1     2   am
    12     2     3    2
    13     2     5    1
    14     5     6   ar
    15     6     7   ar
    16     7    14    1
    17    14    15    1
    18    14    16    1
    19     7     8   ar
    20     8     9   ar
    21     9    10   ar
    22    10    11   ar
    23    11    12   ar
    24    12    13   ar
    25    21    22    1
    26    22    23    1
    27    23    18    1
    28    22    20    1
    29    13     5   ar
    30    13     8   ar
    31     1     4    1
@<TRIPOS>MOLECULE
*****
 28 31 0 0 0
SMALL
GASTEIGER

@<TRIPOS>ATOM
      1 N           4.1933   -2.0685   26.3350 N.am    1  UNL1       -0.2996
      2 C           5.6736   -2.1735   26.5539 C.2     1  UNL1        0.2651
      3 O           6.6106   -1.2977   25.7762 O.2     1  UNL1       -0.2684
      4 H           3.5783   -2.6434   26.8454 H       1  UNL1        0.1498
      5 C           6.2168   -3.1542   27.5504 C.ar    1  UNL1        0.1517
      6 N           6.3123   -2.9438   29.0325 N.ar    1  UNL1       -0.2260
      7 C           6.9143   -4.1771   29.6379 C.ar    1  UNL1        0.1239
      8 N           7.1908   -5.1498   28.5300 N.ar    1  UNL1       -0.2921
      9 C           7.7793   -6.5295   28.5292 C.ar    1  UNL1        0.0811
     10 C           7.9368   -7.2769   27.2384 C.ar    1  UNL1        0.0191
     11 C           7.5057   -6.6447   25.9482 C.ar    1  UNL1        0.0031
     12 C           6.9171   -5.2651   25.9490 C.ar    1  UNL1        0.0193
     13 C           6.7597   -4.5176   27.2398 C.ar    1  UNL1        0.0872
     14 C           7.1912   -4.3989   31.0954 C.3     1  UNL1        0.0573
     15 C           6.9379   -5.7432   31.7109 C.3     1  UNL1        0.0079
     16 C           7.7214   -3.2765   31.9373 C.3     1  UNL1        0.0079
     17 C           3.6502   -1.0878   25.3384 C.3     1  UNL1        0.0898
     18 N           3.9458   -2.0975   20.3406 N.3     1  UNL1       -0.2726
     19 C           3.1113   -1.0248   20.9756 C.3     1  UNL1        0.0721
     20 C           3.3280   -1.0859   22.4586 C.3     1  UNL1        0.0191
     21 C           3.7370   -1.3843   23.8706 C.3     1  UNL1        0.0224
     22 C           4.2964   -2.1963   22.7402 C.3     1  UNL1        0.0191
     23 C           4.6782   -2.8215   21.4312 C.3     1  UNL1        0.0721
     24 C           4.0326   -2.3940   18.8728 C.3     1  UNL1        0.0747
     25 C           5.2235   -3.1225   18.3240 C.3     1  UNL1        0.0494
     26 C           6.5021   -2.3818   18.0657 C.3     1  UNL1        0.1437
     27 C           7.0284    0.1335   17.6832 C.3     1  UNL1        0.1741
     28 O           6.5031   -1.1759   17.1737 O.3     1  UNL1       -0.3511
@<TRIPOS>BOND
     1    27    28    1
     2    28    26    1
     3    26    25    1
     4    25    24    1
     5    24    18    1
     6    18    19    1
     7    20    19    1
     8    20    21    1
     9    21    17    1
    10    17     1    1
    11     1     2   am
    12     2     3    2
    13     2     5    1
    14     5     6   ar
    15     6     7   ar
    16     7    14    1
    17    14    15    1
    18    14    16    1
    19     7     8   ar
    20     8     9   ar
    21     9    10   ar
    22    10    11   ar
    23    11    12   ar
    24    12    13   ar
    25    21    22    1
    26    22    23    1
    27    23    18    1
    28    22    20    1
    29    13     5   ar
    30    13     8   ar
    31     1     4    1
@<TRIPOS>MOLECULE
*****
 28 31 0 0 0
SMALL
GASTEIGER

@<TRIPOS>ATOM
      1 N           5.5308   -0.6263   32.2077 N.am    1  UNL1       -0.2996
      2 C           4.1080   -1.1006   32.2366 C.2     1  UNL1        0.2651
      3 O           3.7485   -2.3480   32.9881 O.2     1  UNL1       -0.2684
      4 H           5.7668    0.1924   31.7145 H       1  UNL1        0.1498
      5 C           3.0448   -0.3276   31.5141 C.ar    1  UNL1        0.1517
      6 N           2.4182   -0.7031   30.2040 N.ar    1  UNL1       -0.2260
      7 C           1.4078    0.3492   29.8551 C.ar    1  UNL1        0.1239
      8 N           1.4099    1.3750   30.9495 N.ar    1  UNL1       -0.2921
      9 C           0.6212    2.6358   31.1448 C.ar    1  UNL1        0.0811
     10 C           0.8444    3.4784   32.3656 C.ar    1  UNL1        0.0191
     11 C           1.8561    3.0602   33.3909 C.ar    1  UNL1        0.0031
     12 C           2.6448    1.7993   33.1956 C.ar    1  UNL1        0.0193
     13 C           2.4217    0.9567   31.9749 C.ar    1  UNL1        0.0872
     14 C           0.5464    0.3717   28.6273 C.3     1  UNL1        0.0573
     15 C          -0.8074   -0.2741   28.6489 C.3     1  UNL1        0.0079
     16 C           1.0386    1.0400   27.3779 C.3     1  UNL1        0.0079
     17 C           6.5940   -1.3994   32.9302 C.3     1  UNL1        0.0898
     18 N           8.4876   -5.6730   30.8724 N.3     1  UNL1       -0.2726
     19 C           7.0943   -5.4891   31.3966 C.3     1  UNL1        0.0721
     20 C           6.9727   -4.0838   31.9069 C.3     1  UNL1        0.0191
     21 C           7.1501   -2.6545   32.3259 C.3     1  UNL1        0.0224
     22 C           8.2908   -3.3991   31.6980 C.3     1  UNL1        0.0191
     23 C           9.2271   -4.3813   31.0586 C.3     1  UNL1        0.0721
     24 C           9.0438   -6.9281   30.2680 C.3     1  UNL1        0.0747
     25 C           8.8914   -7.1840   28.7979 C.3     1  UNL1        0.0494
     26 C           7.8468   -6.4475   28.0127 C.3     1  UNL1        0.1437
     27 C           7.0889   -3.9634   27.9425 C.3     1  UNL1        0.1741
     28 O           8.0866   -5.0275   27.5929 O.3     1  UNL1       -0.3511
@<TRIPOS>BOND
     1    27    28    1
     2    28    26    1
     3    26    25    1
     4    25    24    1
     5    24    18    1
     6    18    19    1
     7    20    19    1
     8    20    21    1
     9    21    17    1
    10    17     1    1
    11     1     2   am
    12     2     3    2
    13     2     5    1
    14     5     6   ar
    15     6     7   ar
    16     7    14    1
    17    14    15    1
    18    14    16    1
    19     7     8   ar
    20     8     9   ar
    21     9    10   ar
    22    10    11   ar
    23    11    12   ar
    24    12    13   ar
    25    21    22    1
    26    22    23    1
    27    23    18    1
    28    22    20    1
    29    13     5   ar
    30    13     8   ar
    31     1     4    1
@<TRIPOS>MOLECULE
*****
 28 31 0 0 0
SMALL
GASTEIGER

@<TRIPOS>ATOM
      1 N           6.2314   -3.9781   24.8478 N.am    1  UNL1       -0.2996
      2 C           6.4209   -4.1809   23.3736 C.2     1  UNL1        0.2651
      3 O           7.2894   -5.2979   22.8759 O.2     1  UNL1       -0.2684
      4 H           5.6613   -3.2449   25.1745 H       1  UNL1        0.1498
      5 C           5.7419   -3.2667   22.3973 C.ar    1  UNL1        0.1517
      6 N           4.3733   -2.6723   22.5511 N.ar    1  UNL1       -0.2260
      7 C           4.0979   -1.8246   21.3447 C.ar    1  UNL1        0.1239
      8 N           5.2963   -1.8950   20.4453 N.ar    1  UNL1       -0.2921
      9 C           5.5935   -1.2628   19.1179 C.ar    1  UNL1        0.0811
     10 C           6.9069   -1.5218   18.4412 C.ar    1  UNL1        0.0191
     11 C           7.9229   -2.4131   19.0918 C.ar    1  UNL1        0.0031
     12 C           7.6257   -3.0453   20.4191 C.ar    1  UNL1        0.0193
     13 C           6.3123   -2.7863   21.0958 C.ar    1  UNL1        0.0872
     14 C           2.8442   -1.0436   21.0835 C.3     1  UNL1        0.0573
     15 C           2.0601   -1.2819   19.8270 C.3     1  UNL1        0.0079
     16 C           2.3745   -0.0242   22.0786 C.3     1  UNL1        0.0079
     17 C           6.9104   -4.8923   25.8241 C.3     1  UNL1        0.0898
     18 N           6.5661   -3.9831   30.8380 N.3     1  UNL1       -0.2726
     19 C           6.9784   -5.2780   30.2030 C.3     1  UNL1        0.0721
     20 C           6.9398   -5.0973   28.7144 C.3     1  UNL1        0.0191
     21 C           6.8093   -4.6253   27.2966 C.3     1  UNL1        0.0224
     22 C           6.5036   -3.6907   28.4293 C.3     1  UNL1        0.0191
     23 C           6.2727   -3.0021   29.7418 C.3     1  UNL1        0.0721
     24 C           6.4650   -3.7160   32.3105 C.3     1  UNL1        0.0747
     25 C           5.8426   -2.4422   32.8007 C.3     1  UNL1        0.0494
     26 C           4.3902   -2.4127   33.1747 C.3     1  UNL1        0.1437
     27 C           3.3008   -0.9096   31.3570 C.3     1  UNL1        0.1741
     28 O           3.5437   -1.2319   32.8017 O.3     1  UNL1       -0.3511
@<TRIPOS>BOND
     1    27    28    1
     2    28    26    1
     3    26    25    1
     4    25    24    1
     5    24    18    1
     6    18    19    1
     7    20    19    1
     8    20    21    1
     9    21    17    1
    10    17     1    1
    11     1     2   am
    12     2     3    2
    13     2     5    1
    14     5     6   ar
    15     6     7   ar
    16     7    14    1
    17    14    15    1
    18    14    16    1
    19     7     8   ar
    20     8     9   ar
    21     9    10   ar
    22    10    11   ar
    23    11    12   ar
    24    12    13   ar
    25    21    22    1
    26    22    23    1
    27    23    18    1
    28    22    20    1
    29    13     5   ar
    30    13     8   ar
    31     1     4    1
@<TRIPOS>MOLECULE
*****
 28 31 0 0 0
SMALL
GASTEIGER

@<TRIPOS>ATOM
      1 N          -0.5319    1.8632   21.3475 N.am    1  UNL1       -0.2996
      2 C          -1.2438    3.0844   21.8498 C.2     1  UNL1        0.2651
      3 O          -0.5584    4.0099   22.8107 O.2     1  UNL1       -0.2684
      4 H          -0.9818    1.2557   20.7168 H       1  UNL1        0.1498
      5 C          -2.6410    3.3799   21.3909 C.ar    1  UNL1        0.1517
      6 N          -3.1009    3.4681   19.9659 N.ar    1  UNL1       -0.2260
      7 C          -4.5677    3.7818   19.9709 C.ar    1  UNL1        0.1239
      8 N          -5.0143    3.8874   21.3990 N.ar    1  UNL1       -0.2921
      9 C          -6.3515    4.1777   22.0136 C.ar    1  UNL1        0.0811
     10 C          -6.4978    4.2195   23.5058 C.ar    1  UNL1        0.0191
     11 C          -5.3070    3.9711   24.3834 C.ar    1  UNL1        0.0031
     12 C          -3.9698    3.6809   23.7688 C.ar    1  UNL1        0.0193
     13 C          -3.8235    3.6390   22.2766 C.ar    1  UNL1        0.0872
     14 C          -5.4356    3.9588   18.7603 C.3     1  UNL1        0.0573
     15 C          -6.7562    3.2525   18.6745 C.3     1  UNL1        0.0079
     16 C          -4.9830    4.8421   17.6357 C.3     1  UNL1        0.0079
     17 C           0.8653    1.5677   21.8064 C.3     1  UNL1        0.0898
     18 N           3.7303   -1.8054   19.2572 N.3     1  UNL1       -0.2726
     19 C           3.1147   -0.5622   18.6867 C.3     1  UNL1        0.0721
     20 C           2.3607    0.1275   19.7847 C.3     1  UNL1        0.0191
     21 C           1.7067    0.5770   21.0576 C.3     1  UNL1        0.0224
     22 C           2.5102   -0.6894   21.0338 C.3     1  UNL1        0.0191
     23 C           3.3567   -1.8841   20.7078 C.3     1  UNL1        0.0721
     24 C           4.5717   -2.7961   18.5085 C.3     1  UNL1        0.0747
     25 C           6.0399   -2.9027   18.7970 C.3     1  UNL1        0.0494
     26 C           6.9678   -1.7996   18.3820 C.3     1  UNL1        0.1437
     27 C           6.4122    0.3653   17.0574 C.3     1  UNL1        0.1741
     28 O           6.7571   -1.0944   17.0749 O.3     1  UNL1       -0.3511
@<TRIPOS>BOND
     1    27    28    1
     2    28    26    1
     3    26    25    1
     4    25    24    1
     5    24    18    1
     6    18    19    1
     7    20    19    1
     8    20    21    1
     9    21    17    1
    10    17     1    1
    11     1     2   am
    12     2     3    2
    13     2     5    1
    14     5     6   ar
    15     6     7   ar
    16     7    14    1
    17    14    15    1
    18    14    16    1
    19     7     8   ar
    20     8     9   ar
    21     9    10   ar
    22    10    11   ar
    23    11    12   ar
    24    12    13   ar
    25    21    22    1
    26    22    23    1
    27    23    18    1
    28    22    20    1
    29    13     5   ar
    30    13     8   ar
    31     1     4    1
@<TRIPOS>MOLECULE
*****
 28 31 0 0 0
SMALL
GASTEIGER

@<TRIPOS>ATOM
      1 N           2.1549    2.3102   19.6775 N.am    1  UNL1       -0.2996
      2 C           1.9025    1.0035   18.9853 C.2     1  UNL1        0.2651
      3 O           0.6863    0.8338   18.1239 O.2     1  UNL1       -0.2684
      4 H           2.9531    2.4216   20.2429 H       1  UNL1        0.1498
      5 C           2.8662   -0.1334   19.1547 C.ar    1  UNL1        0.1517
      6 N           2.5824   -1.4344   19.8453 N.ar    1  UNL1       -0.2260
      7 C           3.8238   -2.2739   19.7806 C.ar    1  UNL1        0.1239
      8 N           4.8748   -1.4918   19.0500 N.ar    1  UNL1       -0.2921
      9 C           6.2942   -1.8133   18.6871 C.ar    1  UNL1        0.0811
     10 C           7.1218   -0.8119   17.9373 C.ar    1  UNL1        0.0191
     11 C           6.5300    0.5110   17.5505 C.ar    1  UNL1        0.0031
     12 C           5.1106    0.8325   17.9134 C.ar    1  UNL1        0.0193
     13 C           4.2830   -0.1689   18.6632 C.ar    1  UNL1        0.0872
     14 C           3.9857   -3.6534   20.3470 C.3     1  UNL1        0.0573
     15 C           3.6418   -4.8518   19.5129 C.3     1  UNL1        0.0079
     16 C           4.4916   -3.8346   21.7474 C.3     1  UNL1        0.0079
     17 C           1.1912    3.4471   19.5081 C.3     1  UNL1        0.0898
     18 N          -3.3484    3.3159   21.8447 N.3     1  UNL1       -0.2726
     19 C          -2.0188    3.5090   22.5116 C.3     1  UNL1        0.0721
     20 C          -0.9593    3.4805   21.4501 C.3     1  UNL1        0.0191
     21 C          -0.1421    3.4086   20.1944 C.3     1  UNL1        0.0224
     22 C          -1.6341    3.2699   20.1272 C.3     1  UNL1        0.0191
     23 C          -3.1107    3.1681   20.3710 C.3     1  UNL1        0.0721
     24 C          -4.6817    3.2774   22.5308 C.3     1  UNL1        0.0747
     25 C          -4.7532    3.2151   24.0278 C.3     1  UNL1        0.0494
     26 C          -5.7424    4.0664   24.7675 C.3     1  UNL1        0.1437
     27 C          -4.2868    4.2595   26.9108 C.3     1  UNL1        0.1741
     28 O          -5.3097    4.8382   25.9787 O.3     1  UNL1       -0.3511
@<TRIPOS>BOND
     1    27    28    1
     2    28    26    1
     3    26    25    1
     4    25    24    1
     5    24    18    1
     6    18    19    1
     7    20    19    1
     8    20    21    1
     9    21    17    1
    10    17     1    1
    11     1     2   am
    12     2     3    2
    13     2     5    1
    14     5     6   ar
    15     6     7   ar
    16     7    14    1
    17    14    15    1
    18    14    16    1
    19     7     8   ar
    20     8     9   ar
    21     9    10   ar
    22    10    11   ar
    23    11    12   ar
    24    12    13   ar
    25    21    22    1
    26    22    23    1
    27    23    18    1
    28    22    20    1
    29    13     5   ar
    30    13     8   ar
    31     1     4    1
