@<TRIPOS>MOLECULE
*****
 25 28 0 0 0
SMALL
GASTEIGER

@<TRIPOS>ATOM
      1 C          -8.1751  -15.1072   25.4173 C.3     1  UNL1        0.1363
      2 N          -7.0696  -15.7992   24.6763 N.ar    1  UNL1       -0.2667
      3 C          -7.3569  -16.4945   23.3787 C.ar    1  UNL1        0.2036
      4 N          -6.2514  -17.1864   22.6377 N.ar    1  UNL1       -0.2147
      5 C          -4.8586  -17.1831   23.1943 C.ar    1  UNL1        0.0911
      6 C          -4.5712  -16.4879   24.4920 C.ar    1  UNL1        0.0801
      7 C          -5.6767  -15.7959   25.2330 C.ar    1  UNL1        0.2645
      8 O          -5.3893  -15.1006   26.5307 O.2     1  UNL1       -0.2668
      9 C          -3.7531  -17.8751   22.4534 C.ar    1  UNL1        0.0485
     10 C          -3.7842  -19.3647   22.2798 C.ar    1  UNL1        0.0244
     11 C          -2.6787  -20.0567   21.5388 C.ar    1  UNL1        0.0991
     12 N          -1.5421  -19.2591   20.9714 N.ar    1  UNL1       -0.2400
     13 C          -1.5111  -17.7695   21.1449 C.ar    1  UNL1        0.1285
     14 C          -2.6166  -17.0775   21.8859 C.ar    1  UNL1        0.1606
     15 F          -2.5855  -15.5879   22.0594 F       1  UNL1       -0.2025
     16 N          -8.7498  -16.4978   22.8219 N.pl3   1  UNL1       -0.2744
     17 C          -9.0296  -15.8520   21.4973 C.3     1  UNL1        0.1256
     18 C         -10.4225  -15.8553   20.9405 C.3     1  UNL1        0.1635
     19 O         -11.5356  -16.5044   21.7085 O.3     1  UNL1       -0.3527
     20 C         -11.2557  -17.1502   23.0332 C.3     1  UNL1        0.1350
     21 C          -9.8629  -17.1469   23.5899 C.3     1  UNL1        0.1230
     22 C         -12.3688  -17.7993   23.8011 C.3     1  UNL1        0.0289
     23 C         -12.4455  -18.8010   24.9151 C.3     1  UNL1        0.0025
     24 C         -13.9429  -18.7173   24.8872 C.3     1  UNL1        0.0002
     25 C         -13.8662  -17.7157   23.7733 C.3     1  UNL1        0.0025
@<TRIPOS>BOND
     1     1     2    1
     2     2     3   ar
     3     3    16    1
     4    16    17    1
     5    17    18    1
     6    18    19    1
     7    19    20    1
     8    20    22    1
     9    22    23    1
    10    23    24    1
    11    24    25    1
    12    20    21    1
    13     3     4   ar
    14     4     5   ar
    15     5     9    1
    16     9    10   ar
    17    10    11   ar
    18    11    12   ar
    19    12    13   ar
    20    13    14   ar
    21    14    15    1
    22     5     6   ar
    23     6     7   ar
    24     7     8    2
    25     7     2   ar
    26    21    16    1
    27    14     9   ar
    28    25    22    1
@<TRIPOS>MOLECULE
*****
 25 28 0 0 0
SMALL
GASTEIGER

@<TRIPOS>ATOM
      1 C          -7.9589  -15.2901   25.3317 C.3     1  UNL1        0.1363
      2 N          -6.8446  -15.9415   24.5674 N.ar    1  UNL1       -0.2667
      3 C          -7.1545  -16.9684   23.5188 C.ar    1  UNL1        0.2036
      4 N          -6.0402  -17.6197   22.7545 N.ar    1  UNL1       -0.2147
      5 C          -4.6161  -17.2441   23.0387 C.ar    1  UNL1        0.0911
      6 C          -4.3063  -16.2172   24.0872 C.ar    1  UNL1        0.0801
      7 C          -5.4205  -15.5659   24.8515 C.ar    1  UNL1        0.2645
      8 O          -5.1106  -14.5390   25.9001 O.2     1  UNL1       -0.2668
      9 C          -3.5019  -17.8955   22.2744 C.ar    1  UNL1        0.0485
     10 C          -3.4996  -19.3818   22.0723 C.ar    1  UNL1        0.0244
     11 C          -2.3854  -20.0331   21.3080 C.ar    1  UNL1        0.0991
     12 N          -1.2734  -19.1981   20.7457 N.ar    1  UNL1       -0.2400
     13 C          -1.2756  -17.7118   20.9477 C.ar    1  UNL1        0.1285
     14 C          -2.3899  -17.0605   21.7120 C.ar    1  UNL1        0.1606
     15 F          -2.3921  -15.5741   21.9140 F       1  UNL1       -0.2025
     16 N          -8.5787  -17.3440   23.2346 N.pl3   1  UNL1       -0.2744
     17 C          -9.2708  -18.3626   24.0909 C.3     1  UNL1        0.1256
     18 C         -10.6950  -18.7382   23.8066 C.3     1  UNL1        0.1635
     19 O         -11.4269  -18.0951   22.6661 O.3     1  UNL1       -0.3527
     20 C         -10.7347  -17.0764   21.8099 C.3     1  UNL1        0.1350
     21 C          -9.3106  -16.7009   22.0941 C.3     1  UNL1        0.1230
     22 C         -11.4666  -16.4334   20.6694 C.3     1  UNL1        0.0289
     23 C         -11.0592  -15.6846   19.4350 C.3     1  UNL1        0.0025
     24 C         -12.5017  -15.5239   19.0565 C.3     1  UNL1        0.0002
     25 C         -12.9091  -16.2726   20.2907 C.3     1  UNL1        0.0025
@<TRIPOS>BOND
     1     1     2    1
     2     2     3   ar
     3     3    16    1
     4    16    17    1
     5    17    18    1
     6    18    19    1
     7    19    20    1
     8    20    22    1
     9    22    23    1
    10    23    24    1
    11    24    25    1
    12    20    21    1
    13     3     4   ar
    14     4     5   ar
    15     5     9    1
    16     9    10   ar
    17    10    11   ar
    18    11    12   ar
    19    12    13   ar
    20    13    14   ar
    21    14    15    1
    22     5     6   ar
    23     6     7   ar
    24     7     8    2
    25     7     2   ar
    26    21    16    1
    27    14     9   ar
    28    25    22    1
@<TRIPOS>MOLECULE
*****
 25 28 0 0 0
SMALL
GASTEIGER

@<TRIPOS>ATOM
      1 C         -10.1085  -19.2305   20.5049 C.3     1  UNL1        0.1363
      2 N          -8.6101  -19.1730   20.4666 N.ar    1  UNL1       -0.2667
      3 C          -7.8686  -18.2914   21.4273 C.ar    1  UNL1        0.2036
      4 N          -6.3702  -18.2339   21.3890 N.ar    1  UNL1       -0.2147
      5 C          -5.6133  -19.0579   20.3900 C.ar    1  UNL1        0.0911
      6 C          -6.3548  -19.9394   19.4293 C.ar    1  UNL1        0.0801
      7 C          -7.8532  -19.9970   19.4676 C.ar    1  UNL1        0.2645
      8 O          -8.5947  -20.8786   18.5068 O.2     1  UNL1       -0.2668
      9 C          -4.1149  -19.0003   20.3517 C.ar    1  UNL1        0.0485
     10 C          -3.4149  -18.4929   19.1260 C.ar    1  UNL1        0.0244
     11 C          -1.9165  -18.4353   19.0877 C.ar    1  UNL1        0.0991
     12 N          -1.1181  -18.8852   20.2751 N.ar    1  UNL1       -0.2400
     13 C          -1.8180  -19.3926   21.5009 C.ar    1  UNL1        0.1285
     14 C          -3.3165  -19.4502   21.5392 C.ar    1  UNL1        0.1606
     15 F          -4.0164  -19.9576   22.7650 F       1  UNL1       -0.2025
     16 N          -8.6255  -17.4674   22.4264 N.pl3   1  UNL1       -0.2744
     17 C         -10.0581  -17.1052   22.1684 C.3     1  UNL1        0.1256
     18 C         -10.8150  -16.2811   23.1675 C.3     1  UNL1        0.1635
     19 O         -10.1393  -15.8193   24.4245 O.3     1  UNL1       -0.3527
     20 C          -8.7066  -16.1815   24.6825 C.3     1  UNL1        0.1350
     21 C          -7.9498  -17.0055   23.6834 C.3     1  UNL1        0.1230
     22 C          -8.0309  -15.7196   25.9395 C.3     1  UNL1        0.0289
     23 C          -8.4971  -15.3070   27.3042 C.3     1  UNL1        0.0025
     24 C          -7.0753  -15.0664   27.7171 C.3     1  UNL1        0.0002
     25 C          -6.6091  -15.4790   26.3525 C.3     1  UNL1        0.0025
@<TRIPOS>BOND
     1     1     2    1
     2     2     3   ar
     3     3    16    1
     4    16    17    1
     5    17    18    1
     6    18    19    1
     7    19    20    1
     8    20    22    1
     9    22    23    1
    10    23    24    1
    11    24    25    1
    12    20    21    1
    13     3     4   ar
    14     4     5   ar
    15     5     9    1
    16     9    10   ar
    17    10    11   ar
    18    11    12   ar
    19    12    13   ar
    20    13    14   ar
    21    14    15    1
    22     5     6   ar
    23     6     7   ar
    24     7     8    2
    25     7     2   ar
    26    21    16    1
    27    14     9   ar
    28    25    22    1
@<TRIPOS>MOLECULE
*****
 25 28 0 0 0
SMALL
GASTEIGER

@<TRIPOS>ATOM
      1 C          -4.6345  -16.6119   23.5030 C.3     1  UNL1        0.1363
      2 N          -6.1207  -16.8136   23.5203 N.ar    1  UNL1       -0.2667
      3 C          -6.7427  -17.8808   22.6693 C.ar    1  UNL1        0.2036
      4 N          -8.2290  -18.0825   22.6866 N.ar    1  UNL1       -0.2147
      5 C          -9.0933  -17.2170   23.5548 C.ar    1  UNL1        0.0911
      6 C          -8.4713  -16.1498   24.4058 C.ar    1  UNL1        0.0801
      7 C          -6.9850  -15.9481   24.3885 C.ar    1  UNL1        0.2645
      8 O          -6.3630  -14.8808   25.2395 O.2     1  UNL1       -0.2668
      9 C         -10.5796  -17.4186   23.5721 C.ar    1  UNL1        0.0485
     10 C         -11.4626  -16.5629   22.7131 C.ar    1  UNL1        0.0244
     11 C         -12.9489  -16.7646   22.7303 C.ar    1  UNL1        0.0991
     12 N         -13.5521  -17.8220   23.6066 N.ar    1  UNL1       -0.2400
     13 C         -12.6691  -18.6777   24.4656 C.ar    1  UNL1        0.1285
     14 C         -11.1828  -18.4760   24.4484 C.ar    1  UNL1        0.1606
     15 F         -10.2998  -19.3318   25.3075 F       1  UNL1       -0.2025
     16 N          -5.8784  -18.7464   21.8011 N.pl3   1  UNL1       -0.2744
     17 C          -6.3580  -20.1043   21.3817 C.3     1  UNL1        0.1256
     18 C          -5.4937  -20.9699   20.5135 C.3     1  UNL1        0.1635
     19 O          -4.1499  -20.4775   20.0645 O.3     1  UNL1       -0.3527
     20 C          -3.6703  -19.1194   20.4839 C.3     1  UNL1        0.1350
     21 C          -4.5346  -18.2539   21.3521 C.3     1  UNL1        0.1230
     22 C          -2.3265  -18.6270   20.0350 C.3     1  UNL1        0.0289
     23 C          -1.7556  -18.1371   18.7372 C.3     1  UNL1        0.0025
     24 C          -0.4260  -17.9305   19.4001 C.3     1  UNL1        0.0002
     25 C          -0.9968  -18.4204   20.6978 C.3     1  UNL1        0.0025
@<TRIPOS>BOND
     1     1     2    1
     2     2     3   ar
     3     3    16    1
     4    16    17    1
     5    17    18    1
     6    18    19    1
     7    19    20    1
     8    20    22    1
     9    22    23    1
    10    23    24    1
    11    24    25    1
    12    20    21    1
    13     3     4   ar
    14     4     5   ar
    15     5     9    1
    16     9    10   ar
    17    10    11   ar
    18    11    12   ar
    19    12    13   ar
    20    13    14   ar
    21    14    15    1
    22     5     6   ar
    23     6     7   ar
    24     7     8    2
    25     7     2   ar
    26    21    16    1
    27    14     9   ar
    28    25    22    1
@<TRIPOS>MOLECULE
*****
 25 28 0 0 0
SMALL
GASTEIGER

@<TRIPOS>ATOM
      1 C          -4.6514  -16.6122   23.4867 C.3     1  UNL1        0.1363
      2 N          -6.1357  -16.8273   23.5085 N.ar    1  UNL1       -0.2667
      3 C          -6.7507  -17.8999   22.6594 C.ar    1  UNL1        0.2036
      4 N          -8.2351  -18.1150   22.6812 N.ar    1  UNL1       -0.2147
      5 C          -9.1044  -17.2574   23.5522 C.ar    1  UNL1        0.0911
      6 C          -8.4894  -16.1847   24.4014 C.ar    1  UNL1        0.0801
      7 C          -7.0051  -15.9697   24.3796 C.ar    1  UNL1        0.2645
      8 O          -6.3901  -14.8969   25.2288 O.2     1  UNL1       -0.2668
      9 C         -10.5888  -17.4725   23.5741 C.ar    1  UNL1        0.0485
     10 C         -11.1864  -18.4841   24.5065 C.ar    1  UNL1        0.0244
     11 C         -12.6707  -18.6991   24.5283 C.ar    1  UNL1        0.0991
     12 N         -13.5574  -17.9026   23.6178 N.ar    1  UNL1       -0.2400
     13 C         -12.9598  -16.8910   22.6853 C.ar    1  UNL1        0.1285
     14 C         -11.4755  -16.6759   22.6635 C.ar    1  UNL1        0.1606
     15 F         -10.8779  -15.6643   21.7310 F       1  UNL1       -0.2025
     16 N          -5.8814  -18.7576   21.7883 N.pl3   1  UNL1       -0.2744
     17 C          -6.3564  -20.1137   21.3579 C.3     1  UNL1        0.1256
     18 C          -5.4870  -20.9714   20.4868 C.3     1  UNL1        0.1635
     19 O          -4.1427  -20.4729   20.0462 O.3     1  UNL1       -0.3527
     20 C          -3.6677  -19.1167   20.4766 C.3     1  UNL1        0.1350
     21 C          -4.5370  -18.2591   21.3477 C.3     1  UNL1        0.1230
     22 C          -2.3233  -18.6181   20.0360 C.3     1  UNL1        0.0289
     23 C          -1.7483  -18.1197   18.7432 C.3     1  UNL1        0.0025
     24 C          -0.4221  -17.9131   19.4128 C.3     1  UNL1        0.0002
     25 C          -0.9970  -18.4115   20.7055 C.3     1  UNL1        0.0025
@<TRIPOS>BOND
     1     1     2    1
     2     2     3   ar
     3     3    16    1
     4    16    17    1
     5    17    18    1
     6    18    19    1
     7    19    20    1
     8    20    22    1
     9    22    23    1
    10    23    24    1
    11    24    25    1
    12    20    21    1
    13     3     4   ar
    14     4     5   ar
    15     5     9    1
    16     9    10   ar
    17    10    11   ar
    18    11    12   ar
    19    12    13   ar
    20    13    14   ar
    21    14    15    1
    22     5     6   ar
    23     6     7   ar
    24     7     8    2
    25     7     2   ar
    26    21    16    1
    27    14     9   ar
    28    25    22    1
@<TRIPOS>MOLECULE
*****
 25 28 0 0 0
SMALL
GASTEIGER

@<TRIPOS>ATOM
      1 C         -11.3377   -6.9237   18.7531 C.3     1  UNL1        0.1363
      2 N         -11.6370   -5.4648   18.5746 N.ar    1  UNL1       -0.2667
      3 C         -12.9662   -5.0330   18.0301 C.ar    1  UNL1        0.2036
      4 N         -13.2655   -3.5740   17.8516 N.ar    1  UNL1       -0.2147
      5 C         -12.2355   -2.5468   18.2177 C.ar    1  UNL1        0.0911
      6 C         -10.9062   -2.9787   18.7622 C.ar    1  UNL1        0.0801
      7 C         -10.6070   -4.4376   18.9406 C.ar    1  UNL1        0.2645
      8 O          -9.2776   -4.8694   19.4852 O.2     1  UNL1       -0.2668
      9 C         -12.5348   -1.0879   18.0392 C.ar    1  UNL1        0.0485
     10 C         -11.6098   -0.2257   17.2324 C.ar    1  UNL1        0.0244
     11 C         -11.9091    1.2332   17.0539 C.ar    1  UNL1        0.0991
     12 N         -13.1334    1.8301   17.6822 N.ar    1  UNL1       -0.2400
     13 C         -14.0584    0.9679   18.4891 C.ar    1  UNL1        0.1285
     14 C         -13.7591   -0.4911   18.6675 C.ar    1  UNL1        0.1606
     15 F         -14.6842   -1.3532   19.4744 F       1  UNL1       -0.2025
     16 N         -13.9963   -6.0601   17.6640 N.pl3   1  UNL1       -0.2744
     17 C         -13.9068   -6.7766   16.3493 C.3     1  UNL1        0.1256
     18 C         -14.9369   -7.8038   15.9832 C.3     1  UNL1        0.1635
     19 O         -16.0564   -8.1144   16.9320 O.3     1  UNL1       -0.3527
     20 C         -16.1459   -7.3979   18.2468 C.3     1  UNL1        0.1350
     21 C         -15.1159   -6.3708   18.6128 C.3     1  UNL1        0.1230
     22 C         -17.2655   -7.7085   19.1955 C.3     1  UNL1        0.0289
     23 C         -18.4157   -6.9347   19.7685 C.3     1  UNL1        0.0025
     24 C         -18.8487   -8.1478   20.5372 C.3     1  UNL1        0.0002
     25 C         -17.6986   -8.9215   19.9643 C.3     1  UNL1        0.0025
@<TRIPOS>BOND
     1     1     2    1
     2     2     3   ar
     3     3    16    1
     4    16    17    1
     5    17    18    1
     6    18    19    1
     7    19    20    1
     8    20    22    1
     9    22    23    1
    10    23    24    1
    11    24    25    1
    12    20    21    1
    13     3     4   ar
    14     4     5   ar
    15     5     9    1
    16     9    10   ar
    17    10    11   ar
    18    11    12   ar
    19    12    13   ar
    20    13    14   ar
    21    14    15    1
    22     5     6   ar
    23     6     7   ar
    24     7     8    2
    25     7     2   ar
    26    21    16    1
    27    14     9   ar
    28    25    22    1
@<TRIPOS>MOLECULE
*****
 25 28 0 0 0
SMALL
GASTEIGER

@<TRIPOS>ATOM
      1 C         -11.1076   -2.1436   18.5863 C.3     1  UNL1        0.1363
      2 N         -11.9357   -3.3937   18.6252 N.ar    1  UNL1       -0.2667
      3 C         -13.3973   -3.3358   18.2929 C.ar    1  UNL1        0.2036
      4 N         -14.2254   -4.5858   18.3318 N.ar    1  UNL1       -0.2147
      5 C         -13.5921   -5.8938   18.7031 C.ar    1  UNL1        0.0911
      6 C         -12.1305   -5.9518   19.0354 C.ar    1  UNL1        0.0801
      7 C         -11.3024   -4.7017   18.9965 C.ar    1  UNL1        0.2645
      8 O          -9.8407   -4.7597   19.3288 O.2     1  UNL1       -0.2668
      9 C         -14.4202   -7.1439   18.7420 C.ar    1  UNL1        0.0485
     10 C         -15.6266   -7.2169   19.6303 C.ar    1  UNL1        0.0244
     11 C         -16.4548   -8.4670   19.6692 C.ar    1  UNL1        0.0991
     12 N         -16.0765   -9.6440   18.8198 N.ar    1  UNL1       -0.2400
     13 C         -14.8701   -9.5710   17.9315 C.ar    1  UNL1        0.1285
     14 C         -14.0419   -8.3209   17.8926 C.ar    1  UNL1        0.1606
     15 F         -12.8354   -8.2479   17.0042 F       1  UNL1       -0.2025
     16 N         -14.0308   -2.0277   17.9216 N.pl3   1  UNL1       -0.2744
     17 C         -13.9622   -1.5362   16.5061 C.3     1  UNL1        0.1256
     18 C         -14.5957   -0.2281   16.1348 C.3     1  UNL1        0.1635
     19 O         -15.2977    0.5884   17.1791 O.3     1  UNL1       -0.3527
     20 C         -15.3662    0.0968   18.5947 C.3     1  UNL1        0.1350
     21 C         -14.7327   -1.2112   18.9659 C.3     1  UNL1        0.1230
     22 C         -16.0681    0.9133   19.6390 C.3     1  UNL1        0.0289
     23 C         -16.1538    2.3758   19.9615 C.3     1  UNL1        0.0025
     24 C         -17.0609    2.0680   21.1159 C.3     1  UNL1        0.0002
     25 C         -16.9752    0.6057   20.7934 C.3     1  UNL1        0.0025
@<TRIPOS>BOND
     1     1     2    1
     2     2     3   ar
     3     3    16    1
     4    16    17    1
     5    17    18    1
     6    18    19    1
     7    19    20    1
     8    20    22    1
     9    22    23    1
    10    23    24    1
    11    24    25    1
    12    20    21    1
    13     3     4   ar
    14     4     5   ar
    15     5     9    1
    16     9    10   ar
    17    10    11   ar
    18    11    12   ar
    19    12    13   ar
    20    13    14   ar
    21    14    15    1
    22     5     6   ar
    23     6     7   ar
    24     7     8    2
    25     7     2   ar
    26    21    16    1
    27    14     9   ar
    28    25    22    1
@<TRIPOS>MOLECULE
*****
 25 28 0 0 0
SMALL
GASTEIGER

@<TRIPOS>ATOM
      1 C          -8.2924  -20.3463   21.7367 C.3     1  UNL1        0.1363
      2 N          -6.9137  -19.8537   21.4099 N.ar    1  UNL1       -0.2667
      3 C          -6.4700  -18.5001   21.8797 C.ar    1  UNL1        0.2036
      4 N          -5.0914  -18.0075   21.5530 N.ar    1  UNL1       -0.2147
      5 C          -4.1565  -18.8685   20.7563 C.ar    1  UNL1        0.0911
      6 C          -4.6003  -20.2221   20.2865 C.ar    1  UNL1        0.0801
      7 C          -5.9789  -20.7147   20.6132 C.ar    1  UNL1        0.2645
      8 O          -6.4226  -22.0684   20.1433 O.2     1  UNL1       -0.2668
      9 C          -2.7779  -18.3759   20.4296 C.ar    1  UNL1        0.0485
     10 C          -2.3396  -18.2678   18.9992 C.ar    1  UNL1        0.0244
     11 C          -0.9610  -17.7752   18.6724 C.ar    1  UNL1        0.0991
     12 N          -0.0207  -17.3907   19.7760 N.ar    1  UNL1       -0.2400
     13 C          -0.4590  -17.4989   21.2064 C.ar    1  UNL1        0.1285
     14 C          -1.8376  -17.9915   21.5332 C.ar    1  UNL1        0.1606
     15 F          -2.2760  -18.0997   22.9637 F       1  UNL1       -0.2025
     16 N          -7.4049  -17.6391   22.6764 N.pl3   1  UNL1       -0.2744
     17 C          -6.8635  -16.5143   23.5082 C.3     1  UNL1        0.1256
     18 C          -7.7984  -15.6532   24.3049 C.3     1  UNL1        0.1635
     19 O          -9.2746  -15.9170   24.2697 O.3     1  UNL1       -0.3527
     20 C          -9.8159  -17.0418   23.4379 C.3     1  UNL1        0.1350
     21 C          -8.8811  -17.9028   22.6413 C.3     1  UNL1        0.1230
     22 C         -11.2922  -17.3055   23.4028 C.3     1  UNL1        0.0289
     23 C         -12.4745  -16.6358   22.7674 C.3     1  UNL1        0.0025
     24 C         -13.3798  -17.6785   23.3532 C.3     1  UNL1        0.0002
     25 C         -12.1976  -18.3482   23.9885 C.3     1  UNL1        0.0025
@<TRIPOS>BOND
     1     1     2    1
     2     2     3   ar
     3     3    16    1
     4    16    17    1
     5    17    18    1
     6    18    19    1
     7    19    20    1
     8    20    22    1
     9    22    23    1
    10    23    24    1
    11    24    25    1
    12    20    21    1
    13     3     4   ar
    14     4     5   ar
    15     5     9    1
    16     9    10   ar
    17    10    11   ar
    18    11    12   ar
    19    12    13   ar
    20    13    14   ar
    21    14    15    1
    22     5     6   ar
    23     6     7   ar
    24     7     8    2
    25     7     2   ar
    26    21    16    1
    27    14     9   ar
    28    25    22    1
@<TRIPOS>MOLECULE
*****
 25 28 0 0 0
SMALL
GASTEIGER

@<TRIPOS>ATOM
      1 C          -8.1321  -15.4302   25.4531 C.3     1  UNL1        0.1363
      2 N          -6.9170  -15.8848   24.7002 N.ar    1  UNL1       -0.2667
      3 C          -7.0648  -16.7943   23.5166 C.ar    1  UNL1        0.2036
      4 N          -5.8497  -17.2490   22.7637 N.ar    1  UNL1       -0.2147
      5 C          -4.4868  -16.7941   23.1944 C.ar    1  UNL1        0.0911
      6 C          -4.3390  -15.8846   24.3780 C.ar    1  UNL1        0.0801
      7 C          -5.5541  -15.4299   25.1309 C.ar    1  UNL1        0.2645
      8 O          -5.4062  -14.5204   26.3145 O.2     1  UNL1       -0.2668
      9 C          -3.2717  -17.2487   22.4415 C.ar    1  UNL1        0.0485
     10 C          -2.3291  -16.2381   21.8583 C.ar    1  UNL1        0.0244
     11 C          -1.1140  -16.6928   21.1054 C.ar    1  UNL1        0.0991
     12 N          -0.8415  -18.1580   20.9357 N.ar    1  UNL1       -0.2400
     13 C          -1.7842  -19.1686   21.5188 C.ar    1  UNL1        0.1285
     14 C          -2.9993  -18.7139   22.2717 C.ar    1  UNL1        0.1606
     15 F          -3.9419  -19.7246   22.8549 F       1  UNL1       -0.2025
     16 N          -8.4278  -17.2493   23.0859 N.pl3   1  UNL1       -0.2744
     17 C          -9.6165  -16.9917   23.9636 C.3     1  UNL1        0.1256
     18 C         -10.9795  -17.4466   23.5329 C.3     1  UNL1        0.1635
     19 O         -11.1536  -18.1591   22.2245 O.3     1  UNL1       -0.3527
     20 C          -9.9647  -18.4167   21.3467 C.3     1  UNL1        0.1350
     21 C          -8.6019  -17.9617   21.7775 C.3     1  UNL1        0.1230
     22 C         -10.1388  -19.1291   20.0383 C.3     1  UNL1        0.0289
     23 C         -11.2637  -19.2886   19.0588 C.3     1  UNL1        0.0025
     24 C         -10.3850  -20.1367   18.1878 C.3     1  UNL1        0.0002
     25 C          -9.2603  -19.9773   19.1672 C.3     1  UNL1        0.0025
@<TRIPOS>BOND
     1     1     2    1
     2     2     3   ar
     3     3    16    1
     4    16    17    1
     5    17    18    1
     6    18    19    1
     7    19    20    1
     8    20    22    1
     9    22    23    1
    10    23    24    1
    11    24    25    1
    12    20    21    1
    13     3     4   ar
    14     4     5   ar
    15     5     9    1
    16     9    10   ar
    17    10    11   ar
    18    11    12   ar
    19    12    13   ar
    20    13    14   ar
    21    14    15    1
    22     5     6   ar
    23     6     7   ar
    24     7     8    2
    25     7     2   ar
    26    21    16    1
    27    14     9   ar
    28    25    22    1
