@<TRIPOS>MOLECULE
*****
 38 42 0 0 0
SMALL
GASTEIGER

@<TRIPOS>ATOM
      1 C          -1.4503    3.1230   26.3463 C.3     1  UNL1        0.1083
      2 C          -2.6405    3.9456   26.7422 C.3     1  UNL1        0.0456
      3 C          -3.5064    4.5680   25.6873 C.3     1  UNL1        0.0902
      4 N          -3.1822    4.3677   24.2365 N.pl3   1  UNL1       -0.3181
      5 C          -1.9921    3.5450   23.8406 C.ar    1  UNL1        0.1311
      6 C          -1.4281    3.1757   22.5007 C.ar    1  UNL1        0.1034
      7 C          -0.2136    2.3250   22.7274 C.ar    1  UNL1        0.1080
      8 N          -0.0269    2.1686   24.2075 N.ar    1  UNL1       -0.1681
      9 N          -1.1261    2.9227   24.8955 N.ar    1  UNL1       -0.2397
     10 H          -3.7506    4.7762   23.5442 H       1  UNL1        0.1482
     11 C           2.0136    0.6333   30.5657 C.2     1  UNL1        0.2492
     12 O           2.0416   -0.8574   30.7296 O.2     1  UNL1       -0.2699
     13 N           1.1477    1.2557   29.5108 N.am    1  UNL1       -0.2761
     14 C           1.1197    2.7465   29.3469 C.3     1  UNL1        0.0938
     15 C           0.2537    3.3689   28.2920 C.3     1  UNL1        0.0235
     16 C          -0.5843    2.5006   27.4011 C.3     1  UNL1        0.0260
     17 C          -0.5563    1.0098   27.5651 C.3     1  UNL1        0.0235
     18 C           0.3096    0.3874   28.6199 C.3     1  UNL1        0.0938
     19 C           2.3957    1.8044   32.8532 C.2     1  UNL1        0.0048
     20 C           2.8516    1.5017   31.4565 C.2     1  UNL1        0.0579
     21 C           0.6607    1.7344   21.6611 C.ar    1  UNL1        0.0198
     22 C           0.0853    0.7662   20.6705 C.ar    1  UNL1        0.0047
     23 C           0.9597    0.1757   19.6043 C.ar    1  UNL1        0.0375
     24 C           2.4094    0.5533   19.5288 C.ar    1  UNL1        0.1453
     25 C           2.9848    1.5215   20.5194 C.ar    1  UNL1        0.0375
     26 C           2.1104    2.1121   21.5856 C.ar    1  UNL1        0.0047
     27 O           3.2837   -0.0373   18.4625 O.3     1  UNL1       -0.4535
     28 C           3.8946   -1.3930   18.6592 C.ar    1  UNL1        0.1453
     29 C           5.2042   -1.7271   18.0087 C.ar    1  UNL1        0.0375
     30 C           5.8151   -3.0829   18.2055 C.ar    1  UNL1        0.0031
     31 C           5.1162   -4.1046   19.0527 C.ar    1  UNL1        0.0002
     32 C           3.8066   -3.7705   19.7032 C.ar    1  UNL1        0.0031
     33 C           3.1957   -2.4147   19.5065 C.ar    1  UNL1        0.0375
     34 C          -1.9815    3.5851   21.1680 C.2     1  UNL1        0.2470
     35 N          -3.1526    2.8514   20.5847 N.am    1  UNL1       -0.3252
     36 O          -1.3639    4.7282   20.4184 O.2     1  UNL1       -0.2702
     37 H          -3.5580    2.1011   21.0766 H       1  UNL1        0.1453
     38 H          -3.5158    3.1201   19.7100 H       1  UNL1        0.1453
@<TRIPOS>BOND
     1    19    20    2
     2    20    11    1
     3    11    12    2
     4    11    13   am
     5    13    14    1
     6    14    15    1
     7    15    16    1
     8     1    16    1
     9     1     2    1
    10     2     3    1
    11     3     4    1
    12     4     5    1
    13     5     6   ar
    14     6    34    1
    15    34    35   am
    16    34    36    2
    17     6     7   ar
    18     7    21    1
    19    21    22   ar
    20    22    23   ar
    21    23    24   ar
    22    24    27    1
    23    27    28    1
    24    28    29   ar
    25    29    30   ar
    26    30    31   ar
    27    31    32   ar
    28    32    33   ar
    29    24    25   ar
    30    25    26   ar
    31     7     8   ar
    32     8     9   ar
    33    16    17    1
    34    17    18    1
    35    18    13    1
    36     9     1    1
    37     9     5   ar
    38    26    21   ar
    39    33    28   ar
    40     4    10    1
    41    35    37    1
    42    35    38    1
@<TRIPOS>MOLECULE
*****
 38 42 0 0 0
SMALL
GASTEIGER

@<TRIPOS>ATOM
      1 C           0.9782    0.9296   21.5536 C.3     1  UNL1        0.1083
      2 C           0.3114    1.6208   20.4014 C.3     1  UNL1        0.0456
      3 C          -0.6707    2.7255   20.6562 C.3     1  UNL1        0.0902
      4 N          -0.9860    3.1391   22.0632 N.pl3   1  UNL1       -0.3181
      5 C          -0.3192    2.4479   23.2154 C.ar    1  UNL1        0.1311
      6 C          -0.4296    2.6367   24.6993 C.ar    1  UNL1        0.1034
      7 C           0.4843    1.6487   25.3616 C.ar    1  UNL1        0.1080
      8 N           1.1595    0.8492   24.2871 N.ar    1  UNL1       -0.1681
      9 N           0.6629    1.3431   22.9605 N.ar    1  UNL1       -0.2397
     10 H          -1.6305    3.8642   22.2304 H       1  UNL1        0.1482
     11 C           4.9067   -3.4896   20.5346 C.2     1  UNL1        0.2492
     12 O           5.7736   -3.9944   21.6498 O.2     1  UNL1       -0.2699
     13 N           3.9246   -2.3849   20.7893 N.am    1  UNL1       -0.2761
     14 C           3.0577   -1.8801   19.6741 C.3     1  UNL1        0.0938
     15 C           2.0756   -0.7752   19.9289 C.3     1  UNL1        0.0235
     16 C           1.9604   -0.1753   21.2988 C.3     1  UNL1        0.0260
     17 C           2.8273   -0.6800   22.4140 C.3     1  UNL1        0.0235
     18 C           3.8094   -1.7848   22.1593 C.3     1  UNL1        0.0938
     19 C           4.2997   -5.3639   18.8408 C.2     1  UNL1        0.0048
     20 C           5.0219   -4.0896   19.1647 C.2     1  UNL1        0.0579
     21 C           0.6872    1.4884   26.8392 C.ar    1  UNL1        0.0198
     22 C           1.9582    1.9647   27.4777 C.ar    1  UNL1        0.0047
     23 C           2.1611    1.8044   28.9552 C.ar    1  UNL1        0.0375
     24 C           1.0930    1.1677   29.7942 C.ar    1  UNL1        0.1453
     25 C          -0.1779    0.6914   29.1558 C.ar    1  UNL1        0.0375
     26 C          -0.3808    0.8518   27.6782 C.ar    1  UNL1        0.0047
     27 O           1.2960    1.0074   31.2718 O.3     1  UNL1       -0.4535
     28 C           1.2043    2.2012   32.1753 C.ar    1  UNL1        0.1453
     29 C           2.0177    2.2530   33.4346 C.ar    1  UNL1        0.0375
     30 C           1.9260    3.4468   34.3381 C.ar    1  UNL1        0.0031
     31 C           1.0210    4.5889   33.9824 C.ar    1  UNL1        0.0002
     32 C           0.2076    4.5372   32.7231 C.ar    1  UNL1        0.0031
     33 C           0.2993    3.3433   31.8196 C.ar    1  UNL1        0.0375
     34 C          -1.3009    3.6379   25.3982 C.2     1  UNL1        0.2470
     35 N          -2.7933    3.5465   25.2782 N.am    1  UNL1       -0.3252
     36 O          -0.6799    4.7305   26.2171 O.2     1  UNL1       -0.2702
     37 H          -3.2009    2.8294   24.7408 H       1  UNL1        0.1453
     38 H          -3.3652    4.2036   25.7369 H       1  UNL1        0.1453
@<TRIPOS>BOND
     1    19    20    2
     2    20    11    1
     3    11    12    2
     4    11    13   am
     5    13    14    1
     6    14    15    1
     7    15    16    1
     8     1    16    1
     9     1     2    1
    10     2     3    1
    11     3     4    1
    12     4     5    1
    13     5     6   ar
    14     6    34    1
    15    34    35   am
    16    34    36    2
    17     6     7   ar
    18     7    21    1
    19    21    22   ar
    20    22    23   ar
    21    23    24   ar
    22    24    27    1
    23    27    28    1
    24    28    29   ar
    25    29    30   ar
    26    30    31   ar
    27    31    32   ar
    28    32    33   ar
    29    24    25   ar
    30    25    26   ar
    31     7     8   ar
    32     8     9   ar
    33    16    17    1
    34    17    18    1
    35    18    13    1
    36     9     1    1
    37     9     5   ar
    38    26    21   ar
    39    33    28   ar
    40     4    10    1
    41    35    37    1
    42    35    38    1
@<TRIPOS>MOLECULE
*****
 38 42 0 0 0
SMALL
GASTEIGER

@<TRIPOS>ATOM
      1 C         -18.1919    1.3797   21.3630 C.3     1  UNL1        0.1083
      2 C         -19.6905    1.3400   21.4138 C.3     1  UNL1        0.0456
      3 C         -20.4312    0.1867   20.8048 C.3     1  UNL1        0.0902
      4 N         -19.6734   -0.9270   20.1450 N.pl3   1  UNL1       -0.3181
      5 C         -18.1748   -0.8874   20.0942 C.ar    1  UNL1        0.1311
      6 C         -17.1647   -1.8335   19.5158 C.ar    1  UNL1        0.1034
      7 C         -15.7997   -1.2648   19.7673 C.ar    1  UNL1        0.1080
      8 N         -15.9661    0.0327   20.5012 N.ar    1  UNL1       -0.1681
      9 N         -17.4341    0.2660   20.7032 N.ar    1  UNL1       -0.2397
     10 H         -20.1596   -1.6841   19.7453 H       1  UNL1        0.1482
     11 C         -15.2285    5.9933   23.7989 C.2     1  UNL1        0.2492
     12 O         -14.5178    6.9774   22.9178 O.2     1  UNL1       -0.2699
     13 N         -15.9694    4.8399   23.1900 N.am    1  UNL1       -0.2761
     14 C         -16.6801    3.8558   24.0711 C.3     1  UNL1        0.0938
     15 C         -17.4209    2.7024   23.4621 C.3     1  UNL1        0.0235
     16 C         -17.4510    2.5331   21.9720 C.3     1  UNL1        0.0260
     17 C         -16.7403    3.5173   21.0909 C.3     1  UNL1        0.0235
     18 C         -15.9995    4.6706   21.6998 C.3     1  UNL1        0.0938
     19 C         -14.1752    5.4311   26.1064 C.2     1  UNL1        0.0048
     20 C         -15.1984    6.1626   25.2890 C.2     1  UNL1        0.0579
     21 C         -14.4969   -1.8850   19.3570 C.ar    1  UNL1        0.0198
     22 C         -13.7587   -1.3579   18.1623 C.ar    1  UNL1        0.0047
     23 C         -12.4560   -1.9780   17.7520 C.ar    1  UNL1        0.0375
     24 C         -11.8915   -3.1252   18.5365 C.ar    1  UNL1        0.1453
     25 C         -12.6296   -3.6522   19.7311 C.ar    1  UNL1        0.0375
     26 C         -13.9323   -3.0321   20.1414 C.ar    1  UNL1        0.0047
     27 O         -10.5887   -3.7453   18.1261 O.3     1  UNL1       -0.4535
     28 C         -10.4634   -5.2374   18.0371 C.ar    1  UNL1        0.1453
     29 C          -9.5888   -5.9758   19.0066 C.ar    1  UNL1        0.0375
     30 C          -9.4635   -7.4679   18.9176 C.ar    1  UNL1        0.0031
     31 C         -10.2128   -8.2216   17.8590 C.ar    1  UNL1        0.0002
     32 C         -11.0874   -7.4832   16.8896 C.ar    1  UNL1        0.0031
     33 C         -11.2127   -5.9911   16.9786 C.ar    1  UNL1        0.0375
     34 C         -17.4667   -3.1220   18.8098 C.2     1  UNL1        0.2470
     35 N         -17.3825   -4.4222   19.5532 N.am    1  UNL1       -0.3252
     36 O         -17.8529   -3.1106   17.3604 O.2     1  UNL1       -0.2702
     37 H         -17.1290   -4.4297   20.5045 H       1  UNL1        0.1453
     38 H         -17.5807   -5.2679   19.0898 H       1  UNL1        0.1453
@<TRIPOS>BOND
     1    19    20    2
     2    20    11    1
     3    11    12    2
     4    11    13   am
     5    13    14    1
     6    14    15    1
     7    15    16    1
     8     1    16    1
     9     1     2    1
    10     2     3    1
    11     3     4    1
    12     4     5    1
    13     5     6   ar
    14     6    34    1
    15    34    35   am
    16    34    36    2
    17     6     7   ar
    18     7    21    1
    19    21    22   ar
    20    22    23   ar
    21    23    24   ar
    22    24    27    1
    23    27    28    1
    24    28    29   ar
    25    29    30   ar
    26    30    31   ar
    27    31    32   ar
    28    32    33   ar
    29    24    25   ar
    30    25    26   ar
    31     7     8   ar
    32     8     9   ar
    33    16    17    1
    34    17    18    1
    35    18    13    1
    36     9     1    1
    37     9     5   ar
    38    26    21   ar
    39    33    28   ar
    40     4    10    1
    41    35    37    1
    42    35    38    1
@<TRIPOS>MOLECULE
*****
 38 42 0 0 0
SMALL
GASTEIGER

@<TRIPOS>ATOM
      1 C           3.2299   -1.9116   20.1680 C.3     1  UNL1        0.1083
      2 C           3.4542   -2.9228   19.0830 C.3     1  UNL1        0.0456
      3 C           4.3370   -4.1091   19.3344 C.3     1  UNL1        0.0902
      4 N           4.9955   -4.2843   20.6707 N.pl3   1  UNL1       -0.3181
      5 C           4.7712   -3.2731   21.7556 C.ar    1  UNL1        0.1311
      6 C           5.2823   -3.1807   23.1628 C.ar    1  UNL1        0.1034
      7 C           4.7155   -1.9371   23.7812 C.ar    1  UNL1        0.1080
      8 N           3.8540   -1.2610   22.7561 N.ar    1  UNL1       -0.1681
      9 N           3.8884   -2.0868   21.5043 N.ar    1  UNL1       -0.2397
     10 H           5.5749   -5.0630   20.8356 H       1  UNL1        0.1482
     11 C          -0.3013    2.8340   19.1628 C.2     1  UNL1        0.2492
     12 O          -1.5485    3.0260   19.9738 O.2     1  UNL1       -0.2699
     13 N           0.5815    1.6476   19.4141 N.am    1  UNL1       -0.2761
     14 C           1.8286    1.4556   18.6031 C.3     1  UNL1        0.0938
     15 C           2.7115    0.2692   18.8544 C.3     1  UNL1        0.0235
     16 C           2.3471   -0.7252   19.9166 C.3     1  UNL1        0.0260
     17 C           1.0999   -0.5332   20.7277 C.3     1  UNL1        0.0235
     18 C           0.2171    0.6532   20.4764 C.3     1  UNL1        0.0938
     19 C          -0.8671    4.0702   16.9488 C.2     1  UNL1        0.0048
     20 C           0.0630    3.8283   18.1005 C.2     1  UNL1        0.0579
     21 C           4.9662   -1.4545   25.1791 C.ar    1  UNL1        0.0198
     22 C           3.9111   -1.6244   26.2317 C.ar    1  UNL1        0.0047
     23 C           4.1618   -1.1417   27.6296 C.ar    1  UNL1        0.0375
     24 C           5.4676   -0.4892   27.9749 C.ar    1  UNL1        0.1453
     25 C           6.5226   -0.3192   26.9223 C.ar    1  UNL1        0.0375
     26 C           6.2719   -0.8019   25.5244 C.ar    1  UNL1        0.0047
     27 O           5.7183   -0.0065   29.3729 O.3     1  UNL1       -0.4535
     28 C           5.5236   -0.9364   30.5336 C.ar    1  UNL1        0.1453
     29 C           4.4966   -0.6236   31.5812 C.ar    1  UNL1        0.0375
     30 C           4.3020   -1.5535   32.7420 C.ar    1  UNL1        0.0031
     31 C           5.1343   -2.7963   32.8551 C.ar    1  UNL1        0.0002
     32 C           6.1613   -3.1091   31.8075 C.ar    1  UNL1        0.0031
     33 C           6.3559   -2.1791   30.6467 C.ar    1  UNL1        0.0375
     34 C           6.1994   -4.1598   23.8338 C.2     1  UNL1        0.2470
     35 N           6.1876   -4.2961   25.3276 N.am    1  UNL1       -0.3252
     36 O           7.1282   -5.0027   23.0112 O.2     1  UNL1       -0.2702
     37 H           5.5780   -3.7429   25.8676 H       1  UNL1        0.1453
     38 H           6.7895   -4.9388   25.7680 H       1  UNL1        0.1453
@<TRIPOS>BOND
     1    19    20    2
     2    20    11    1
     3    11    12    2
     4    11    13   am
     5    13    14    1
     6    14    15    1
     7    15    16    1
     8     1    16    1
     9     1     2    1
    10     2     3    1
    11     3     4    1
    12     4     5    1
    13     5     6   ar
    14     6    34    1
    15    34    35   am
    16    34    36    2
    17     6     7   ar
    18     7    21    1
    19    21    22   ar
    20    22    23   ar
    21    23    24   ar
    22    24    27    1
    23    27    28    1
    24    28    29   ar
    25    29    30   ar
    26    30    31   ar
    27    31    32   ar
    28    32    33   ar
    29    24    25   ar
    30    25    26   ar
    31     7     8   ar
    32     8     9   ar
    33    16    17    1
    34    17    18    1
    35    18    13    1
    36     9     1    1
    37     9     5   ar
    38    26    21   ar
    39    33    28   ar
    40     4    10    1
    41    35    37    1
    42    35    38    1
@<TRIPOS>MOLECULE
*****
 38 42 0 0 0
SMALL
GASTEIGER

@<TRIPOS>ATOM
      1 C          -0.0678    2.1143   21.6177 C.3     1  UNL1        0.1083
      2 C          -0.8719    2.8546   20.5904 C.3     1  UNL1        0.0456
      3 C          -1.9183    3.8383   21.0233 C.3     1  UNL1        0.0902
      4 N          -2.1606    4.0817   22.4834 N.pl3   1  UNL1       -0.3181
      5 C          -1.3565    3.3414   23.5107 C.ar    1  UNL1        0.1311
      6 C          -1.3714    3.3725   25.0103 C.ar    1  UNL1        0.1034
      7 C          -0.3342    2.4080   25.5043 C.ar    1  UNL1        0.1080
      8 N           0.3217    1.7808   24.3100 N.ar    1  UNL1       -0.1681
      9 N          -0.3101    2.3577   23.0779 N.ar    1  UNL1       -0.2397
     10 H          -2.8473    4.7274   22.7675 H       1  UNL1        0.1482
     11 C           4.1179   -1.8205   19.8864 C.2     1  UNL1        0.2492
     12 O           5.5637   -1.5590   20.1883 O.2     1  UNL1       -0.2699
     13 N           3.0715   -0.8369   20.3192 N.am    1  UNL1       -0.2761
     14 C           1.6256   -1.0984   20.0174 C.3     1  UNL1        0.0938
     15 C           0.5792   -0.1147   20.4502 C.3     1  UNL1        0.0235
     16 C           0.9786    1.1306   21.1849 C.3     1  UNL1        0.0260
     17 C           2.4244    1.3921   21.4867 C.3     1  UNL1        0.0235
     18 C           3.4709    0.4085   21.0540 C.3     1  UNL1        0.0938
     19 C           4.6829   -4.2085   19.0330 C.2     1  UNL1        0.0048
     20 C           3.7184   -3.0658   19.1518 C.2     1  UNL1        0.0579
     21 C          -0.0098    2.1211   26.9405 C.ar    1  UNL1        0.0198
     22 C          -0.6577    0.9624   27.6387 C.ar    1  UNL1        0.0047
     23 C          -0.3334    0.6755   29.0748 C.ar    1  UNL1        0.0375
     24 C           0.6389    1.5474   29.8127 C.ar    1  UNL1        0.1453
     25 C           1.2868    2.7061   29.1145 C.ar    1  UNL1        0.0375
     26 C           0.9624    2.9930   27.6784 C.ar    1  UNL1        0.0047
     27 O           0.9632    1.2605   31.2489 O.3     1  UNL1       -0.4535
     28 C           2.3157    0.7290   31.6206 C.ar    1  UNL1        0.1453
     29 C           2.9548   -0.3432   30.7888 C.ar    1  UNL1        0.0375
     30 C           4.3073   -0.8747   31.1606 C.ar    1  UNL1        0.0031
     31 C           5.0208   -0.3339   32.3642 C.ar    1  UNL1        0.0002
     32 C           4.3817    0.7384   33.1959 C.ar    1  UNL1        0.0031
     33 C           3.0291    1.2698   32.8241 C.ar    1  UNL1        0.0375
     34 C          -2.2663    4.2194   25.8657 C.2     1  UNL1        0.2470
     35 N          -2.1697    5.7149   25.8013 N.am    1  UNL1       -0.3252
     36 O          -3.2579    3.5709   26.7856 O.2     1  UNL1       -0.2702
     37 H          -1.5189    6.1406   25.1976 H       1  UNL1        0.1453
     38 H          -2.7571    6.2708   26.3628 H       1  UNL1        0.1453
@<TRIPOS>BOND
     1    19    20    2
     2    20    11    1
     3    11    12    2
     4    11    13   am
     5    13    14    1
     6    14    15    1
     7    15    16    1
     8     1    16    1
     9     1     2    1
    10     2     3    1
    11     3     4    1
    12     4     5    1
    13     5     6   ar
    14     6    34    1
    15    34    35   am
    16    34    36    2
    17     6     7   ar
    18     7    21    1
    19    21    22   ar
    20    22    23   ar
    21    23    24   ar
    22    24    27    1
    23    27    28    1
    24    28    29   ar
    25    29    30   ar
    26    30    31   ar
    27    31    32   ar
    28    32    33   ar
    29    24    25   ar
    30    25    26   ar
    31     7     8   ar
    32     8     9   ar
    33    16    17    1
    34    17    18    1
    35    18    13    1
    36     9     1    1
    37     9     5   ar
    38    26    21   ar
    39    33    28   ar
    40     4    10    1
    41    35    37    1
    42    35    38    1
@<TRIPOS>MOLECULE
*****
 38 42 0 0 0
SMALL
GASTEIGER

@<TRIPOS>ATOM
      1 C           7.2906   -4.3138   23.4847 C.3     1  UNL1        0.1083
      2 C           8.4146   -5.0678   22.8383 C.3     1  UNL1        0.0456
      3 C           8.5742   -5.0432   21.3470 C.3     1  UNL1        0.0902
      4 N           7.6098   -4.2646   20.5022 N.pl3   1  UNL1       -0.3181
      5 C           6.4858   -3.5105   21.1487 C.ar    1  UNL1        0.1311
      6 C           5.3883   -2.6614   20.5790 C.ar    1  UNL1        0.1034
      7 C           4.5504   -2.1612   21.7182 C.ar    1  UNL1        0.1080
      8 N           5.1300   -2.7012   22.9920 N.ar    1  UNL1       -0.1681
      9 N           6.3262   -3.5351   22.6399 N.ar    1  UNL1       -0.2397
     10 H           7.7146   -4.2484   19.5235 H       1  UNL1        0.1482
     11 C           6.6519   -4.4121   29.4499 C.2     1  UNL1        0.2492
     12 O           6.5778   -5.7233   30.1747 O.2     1  UNL1       -0.2699
     13 N           6.8116   -4.3875   27.9586 N.am    1  UNL1       -0.2761
     14 C           6.8857   -3.0764   27.2338 C.3     1  UNL1        0.0938
     15 C           7.0453   -3.0518   25.7425 C.3     1  UNL1        0.0235
     16 C           7.1309   -4.3383   24.9761 C.3     1  UNL1        0.0260
     17 C           7.0568   -5.6495   25.7009 C.3     1  UNL1        0.0235
     18 C           6.8971   -5.6741   27.1921 C.3     1  UNL1        0.0938
     19 C           6.3363   -3.1494   31.6984 C.2     1  UNL1        0.0048
     20 C           6.5663   -3.1256   30.2163 C.2     1  UNL1        0.0579
     21 C           3.3446   -1.2763   21.6037 C.ar    1  UNL1        0.0198
     22 C           2.3867   -1.4577   20.4637 C.ar    1  UNL1        0.0047
     23 C           1.1810   -0.5728   20.3493 C.ar    1  UNL1        0.0375
     24 C           0.9331    0.4935   21.3747 C.ar    1  UNL1        0.1453
     25 C           1.8910    0.6749   22.5147 C.ar    1  UNL1        0.0375
     26 C           3.0967   -0.2100   22.6292 C.ar    1  UNL1        0.0047
     27 O          -0.2727    1.3784   21.2602 O.3     1  UNL1       -0.4535
     28 C          -0.3351    2.4260   20.1886 C.ar    1  UNL1        0.1453
     29 C           0.8517    2.6644   19.3027 C.ar    1  UNL1        0.0375
     30 C           0.7893    3.7120   18.2311 C.ar    1  UNL1        0.0031
     31 C          -0.4599    4.5214   18.0453 C.ar    1  UNL1        0.0002
     32 C          -1.6467    4.2831   18.9312 C.ar    1  UNL1        0.0031
     33 C          -1.5842    3.2354   20.0028 C.ar    1  UNL1        0.0375
     34 C           5.1676   -2.3646   19.1254 C.2     1  UNL1        0.2470
     35 N           4.5711   -3.4088   18.2288 N.am    1  UNL1       -0.3252
     36 O           5.5433   -1.0236   18.5682 O.2     1  UNL1       -0.2702
     37 H           4.3245   -4.2890   18.5945 H       1  UNL1        0.1453
     38 H           4.4262   -3.2140   17.2747 H       1  UNL1        0.1453
@<TRIPOS>BOND
     1    19    20    2
     2    20    11    1
     3    11    12    2
     4    11    13   am
     5    13    14    1
     6    14    15    1
     7    15    16    1
     8     1    16    1
     9     1     2    1
    10     2     3    1
    11     3     4    1
    12     4     5    1
    13     5     6   ar
    14     6    34    1
    15    34    35   am
    16    34    36    2
    17     6     7   ar
    18     7    21    1
    19    21    22   ar
    20    22    23   ar
    21    23    24   ar
    22    24    27    1
    23    27    28    1
    24    28    29   ar
    25    29    30   ar
    26    30    31   ar
    27    31    32   ar
    28    32    33   ar
    29    24    25   ar
    30    25    26   ar
    31     7     8   ar
    32     8     9   ar
    33    16    17    1
    34    17    18    1
    35    18    13    1
    36     9     1    1
    37     9     5   ar
    38    26    21   ar
    39    33    28   ar
    40     4    10    1
    41    35    37    1
    42    35    38    1
@<TRIPOS>MOLECULE
*****
 38 42 0 0 0
SMALL
GASTEIGER

@<TRIPOS>ATOM
      1 C           7.4280   -5.9016   25.9090 C.3     1  UNL1        0.1083
      2 C           7.6277   -7.3756   25.7159 C.3     1  UNL1        0.0456
      3 C           7.8231   -8.2681   26.9055 C.3     1  UNL1        0.0902
      4 N           7.8187   -7.6866   28.2882 N.pl3   1  UNL1       -0.3181
      5 C           7.6190   -6.2126   28.4813 C.ar    1  UNL1        0.1311
      6 C           7.5673   -5.3597   29.7141 C.ar    1  UNL1        0.1034
      7 C           7.3400   -3.9401   29.2865 C.ar    1  UNL1        0.1080
      8 N           7.2512   -3.9155   27.7893 N.ar    1  UNL1       -0.1681
      9 N           7.4236   -5.3201   27.2917 N.ar    1  UNL1       -0.2397
     10 H           7.9470   -8.2725   29.0689 H       1  UNL1        0.1482
     11 C           6.6463   -2.3312   21.1507 C.2     1  UNL1        0.2492
     12 O           5.6364   -1.2233   21.2022 O.2     1  UNL1       -0.2699
     13 N           6.8417   -3.2238   22.3402 N.am    1  UNL1       -0.2761
     14 C           7.8517   -4.3317   22.2887 C.3     1  UNL1        0.0938
     15 C           8.0471   -5.2243   23.4783 C.3     1  UNL1        0.0235
     16 C           7.2326   -5.0090   24.7194 C.3     1  UNL1        0.0260
     17 C           6.2226   -3.9011   24.7708 C.3     1  UNL1        0.0235
     18 C           6.0272   -3.0085   23.5813 C.3     1  UNL1        0.0938
     19 C           6.8531   -2.2974   18.5610 C.2     1  UNL1        0.0048
     20 C           7.4608   -2.5465   19.9096 C.2     1  UNL1        0.0579
     21 C           7.2222   -2.7533   30.1963 C.ar    1  UNL1        0.0198
     22 C           5.8683   -2.2413   30.5896 C.ar    1  UNL1        0.0047
     23 C           5.7505   -1.0545   31.4994 C.ar    1  UNL1        0.0375
     24 C           6.9867   -0.3798   32.0159 C.ar    1  UNL1        0.1453
     25 C           8.3406   -0.8918   31.6225 C.ar    1  UNL1        0.0375
     26 C           8.4583   -2.0786   30.7128 C.ar    1  UNL1        0.0047
     27 O           6.8689    0.8070   32.9257 O.3     1  UNL1       -0.4535
     28 C           6.1387    0.6825   34.2301 C.ar    1  UNL1        0.1453
     29 C           4.8182    1.3684   34.4188 C.ar    1  UNL1        0.0375
     30 C           4.0880    1.2439   35.7232 C.ar    1  UNL1        0.0031
     31 C           4.6785    0.4335   36.8388 C.ar    1  UNL1        0.0002
     32 C           5.9990   -0.2524   36.6501 C.ar    1  UNL1        0.0031
     33 C           6.7292   -0.1279   35.3456 C.ar    1  UNL1        0.0375
     34 C           7.7168   -5.8419   31.1266 C.2     1  UNL1        0.2470
     35 N           6.5959   -5.6544   32.1056 N.am    1  UNL1       -0.3252
     36 O           8.9870   -6.5115   31.5602 O.2     1  UNL1       -0.2702
     37 H           5.7621   -5.2149   31.8211 H       1  UNL1        0.1453
     38 H           6.6940   -5.9709   33.0327 H       1  UNL1        0.1453
@<TRIPOS>BOND
     1    19    20    2
     2    20    11    1
     3    11    12    2
     4    11    13   am
     5    13    14    1
     6    14    15    1
     7    15    16    1
     8     1    16    1
     9     1     2    1
    10     2     3    1
    11     3     4    1
    12     4     5    1
    13     5     6   ar
    14     6    34    1
    15    34    35   am
    16    34    36    2
    17     6     7   ar
    18     7    21    1
    19    21    22   ar
    20    22    23   ar
    21    23    24   ar
    22    24    27    1
    23    27    28    1
    24    28    29   ar
    25    29    30   ar
    26    30    31   ar
    27    31    32   ar
    28    32    33   ar
    29    24    25   ar
    30    25    26   ar
    31     7     8   ar
    32     8     9   ar
    33    16    17    1
    34    17    18    1
    35    18    13    1
    36     9     1    1
    37     9     5   ar
    38    26    21   ar
    39    33    28   ar
    40     4    10    1
    41    35    37    1
    42    35    38    1
@<TRIPOS>MOLECULE
*****
 38 42 0 0 0
SMALL
GASTEIGER

@<TRIPOS>ATOM
      1 C           5.2376   -1.4446   32.4216 C.3     1  UNL1        0.1083
      2 C           5.7280   -1.3410   33.8353 C.3     1  UNL1        0.0456
      3 C           5.1010   -0.3555   34.7763 C.3     1  UNL1        0.0902
      4 N           3.9836    0.5265   34.3036 N.pl3   1  UNL1       -0.3181
      5 C           3.4932    0.4229   32.8898 C.ar    1  UNL1        0.1311
      6 C           2.4166    1.1549   32.1447 C.ar    1  UNL1        0.1034
      7 C           2.3782    0.6217   30.7432 C.ar    1  UNL1        0.1080
      8 N           3.4311   -0.4397   30.6221 N.ar    1  UNL1       -0.1681
      9 N           4.1202   -0.5626   31.9488 N.ar    1  UNL1       -0.2397
     10 H           3.5720    1.1733   34.9212 H       1  UNL1        0.1482
     11 C           7.7456   -5.3868   28.6573 C.2     1  UNL1        0.2492
     12 O           8.1922   -6.7267   29.1626 O.2     1  UNL1       -0.2699
     13 N           7.1186   -4.4013   29.5983 N.am    1  UNL1       -0.2761
     14 C           6.6720   -3.0614   29.0930 C.3     1  UNL1        0.0938
     15 C           6.0450   -2.0758   30.0341 C.3     1  UNL1        0.0235
     16 C           5.8646   -2.4301   31.4805 C.3     1  UNL1        0.0260
     17 C           6.3112   -3.7700   31.9858 C.3     1  UNL1        0.0235
     18 C           6.9382   -4.7555   31.0448 C.3     1  UNL1        0.0938
     19 C           6.9361   -5.5137   26.1918 C.2     1  UNL1        0.0048
     20 C           7.9260   -5.0325   27.2110 C.2     1  UNL1        0.0579
     21 C           1.4499    1.0712   29.6540 C.ar    1  UNL1        0.0198
     22 C           1.6339    2.4182   29.0201 C.ar    1  UNL1        0.0047
     23 C           0.7056    2.8676   27.9310 C.ar    1  UNL1        0.0375
     24 C          -0.4067    1.9700   27.4757 C.ar    1  UNL1        0.1453
     25 C          -0.5907    0.6231   28.1096 C.ar    1  UNL1        0.0375
     26 C           0.3376    0.1737   29.1987 C.ar    1  UNL1        0.0047
     27 O          -1.3350    2.4195   26.3865 O.3     1  UNL1       -0.4535
     28 C          -0.8676    2.4340   24.9613 C.ar    1  UNL1        0.1453
     29 C          -1.4646    3.4049   23.9861 C.ar    1  UNL1        0.0375
     30 C          -0.9972    3.4195   22.5609 C.ar    1  UNL1        0.0031
     31 C           0.0672    2.4631   22.1108 C.ar    1  UNL1        0.0002
     32 C           0.6642    1.4922   23.0860 C.ar    1  UNL1        0.0031
     33 C           0.1967    1.4777   24.5113 C.ar    1  UNL1        0.0375
     34 C           1.5334    2.2311   32.7031 C.2     1  UNL1        0.2470
     35 N           0.1544    2.4326   32.1484 N.am    1  UNL1       -0.3252
     36 O           2.0292    3.1057   33.8163 O.2     1  UNL1       -0.2702
     37 H          -0.1710    1.8586   31.4178 H       1  UNL1        0.1453
     38 H          -0.4252    3.1390   32.5149 H       1  UNL1        0.1453
@<TRIPOS>BOND
     1    19    20    2
     2    20    11    1
     3    11    12    2
     4    11    13   am
     5    13    14    1
     6    14    15    1
     7    15    16    1
     8     1    16    1
     9     1     2    1
    10     2     3    1
    11     3     4    1
    12     4     5    1
    13     5     6   ar
    14     6    34    1
    15    34    35   am
    16    34    36    2
    17     6     7   ar
    18     7    21    1
    19    21    22   ar
    20    22    23   ar
    21    23    24   ar
    22    24    27    1
    23    27    28    1
    24    28    29   ar
    25    29    30   ar
    26    30    31   ar
    27    31    32   ar
    28    32    33   ar
    29    24    25   ar
    30    25    26   ar
    31     7     8   ar
    32     8     9   ar
    33    16    17    1
    34    17    18    1
    35    18    13    1
    36     9     1    1
    37     9     5   ar
    38    26    21   ar
    39    33    28   ar
    40     4    10    1
    41    35    37    1
    42    35    38    1
@<TRIPOS>MOLECULE
*****
 38 42 0 0 0
SMALL
GASTEIGER

@<TRIPOS>ATOM
      1 C           0.8271    1.4506   21.0667 C.3     1  UNL1        0.1083
      2 C           0.1086    2.0341   19.8864 C.3     1  UNL1        0.0456
      3 C           0.5660    1.7104   18.4950 C.3     1  UNL1        0.0902
      4 N           1.7417    0.8032   18.2839 N.pl3   1  UNL1       -0.3181
      5 C           2.4601    0.2196   19.4643 C.ar    1  UNL1        0.1311
      6 C           3.6415   -0.6990   19.5666 C.ar    1  UNL1        0.1034
      7 C           3.9143   -0.9430   21.0213 C.ar    1  UNL1        0.1080
      8 N           2.9016   -0.1752   21.8180 N.ar    1  UNL1       -0.1681
      9 N           2.0028    0.5433   20.8557 N.ar    1  UNL1       -0.2397
     10 H           2.0419    0.5907   17.3707 H       1  UNL1        0.1482
     11 C          -1.0022    2.7454   26.6325 C.2     1  UNL1        0.2492
     12 O          -1.9682    3.8697   26.8619 O.2     1  UNL1       -0.2699
     13 N          -0.5449    2.4217   25.2411 N.am    1  UNL1       -0.2761
     14 C           0.4212    1.2974   25.0116 C.3     1  UNL1        0.0938
     15 C           0.8785    0.9737   23.6202 C.3     1  UNL1        0.0235
     16 C           0.3698    1.7743   22.4582 C.3     1  UNL1        0.0260
     17 C          -0.5963    2.8986   22.6877 C.3     1  UNL1        0.0235
     18 C          -1.0536    3.2223   24.0790 C.3     1  UNL1        0.0938
     19 C          -1.2379    0.7237   28.2472 C.2     1  UNL1        0.0048
     20 C          -0.4935    1.9448   27.7944 C.2     1  UNL1        0.0579
     21 C           5.0080   -1.8038   21.5810 C.ar    1  UNL1        0.0198
     22 C           6.3410   -1.2014   21.9128 C.ar    1  UNL1        0.0047
     23 C           7.4345   -2.0621   22.4724 C.ar    1  UNL1        0.0375
     24 C           7.1951   -3.5252   22.7002 C.ar    1  UNL1        0.1453
     25 C           5.8621   -4.1276   22.3684 C.ar    1  UNL1        0.0375
     26 C           4.7685   -3.2669   21.8087 C.ar    1  UNL1        0.0047
     27 O           8.2887   -4.3860   23.2599 O.3     1  UNL1       -0.4535
     28 C           7.9697   -5.4285   24.2901 C.ar    1  UNL1        0.1453
     29 C           8.4387   -6.8403   24.0987 C.ar    1  UNL1        0.0375
     30 C           8.1197   -7.8828   25.1289 C.ar    1  UNL1        0.0031
     31 C           7.3317   -7.5134   26.3507 C.ar    1  UNL1        0.0002
     32 C           6.8627   -6.1016   26.5421 C.ar    1  UNL1        0.0031
     33 C           7.1818   -5.0591   25.5118 C.ar    1  UNL1        0.0375
     34 C           4.4144   -1.2728   18.4163 C.2     1  UNL1        0.2470
     35 N           4.3381   -2.7412   18.1195 N.am    1  UNL1       -0.3252
     36 O           5.2635   -0.3783   17.5626 O.2     1  UNL1       -0.2702
     37 H           3.7808   -3.3283   18.6798 H       1  UNL1        0.1453
     38 H           4.8453   -3.1178   17.3645 H       1  UNL1        0.1453
@<TRIPOS>BOND
     1    19    20    2
     2    20    11    1
     3    11    12    2
     4    11    13   am
     5    13    14    1
     6    14    15    1
     7    15    16    1
     8     1    16    1
     9     1     2    1
    10     2     3    1
    11     3     4    1
    12     4     5    1
    13     5     6   ar
    14     6    34    1
    15    34    35   am
    16    34    36    2
    17     6     7   ar
    18     7    21    1
    19    21    22   ar
    20    22    23   ar
    21    23    24   ar
    22    24    27    1
    23    27    28    1
    24    28    29   ar
    25    29    30   ar
    26    30    31   ar
    27    31    32   ar
    28    32    33   ar
    29    24    25   ar
    30    25    26   ar
    31     7     8   ar
    32     8     9   ar
    33    16    17    1
    34    17    18    1
    35    18    13    1
    36     9     1    1
    37     9     5   ar
    38    26    21   ar
    39    33    28   ar
    40     4    10    1
    41    35    37    1
    42    35    38    1
