@<TRIPOS>MOLECULE
*****
 40 44 0 0 0
SMALL
GASTEIGER

@<TRIPOS>ATOM
      1 C           6.6450   -2.3696   25.3504 C.ar    1  UNL1        0.0782
      2 N           5.7846   -1.1874   25.6851 N.ar    1  UNL1       -0.2480
      3 C           4.6518   -0.8039   24.7796 C.ar    1  UNL1        0.0812
      4 C           3.7914    0.3783   25.1143 C.ar    1  UNL1        0.0214
      5 C           2.6587    0.7618   24.2088 C.ar    1  UNL1        0.0312
      6 C           2.3864   -0.0370   22.9687 C.ar    1  UNL1        0.1402
      7 F           1.2536    0.3465   22.0633 F       1  UNL1       -0.2042
      8 C           3.2468   -1.2192   22.6341 C.ar    1  UNL1        0.0313
      9 C           4.3795   -1.6026   23.5395 C.ar    1  UNL1        0.0243
     10 C           5.2400   -2.7849   23.2049 C.ar    1  UNL1        0.0577
     11 C           6.3727   -3.1683   24.1103 C.ar    1  UNL1        0.0372
     12 C           4.9677   -3.5837   21.9648 C.2     1  UNL1        0.2493
     13 O           4.1225   -4.8206   22.0399 O.2     1  UNL1       -0.2699
     14 N           5.5406   -3.1455   20.6495 N.am    1  UNL1       -0.2710
     15 C           6.4019   -2.0046   20.1951 C.3     1  UNL1        0.1247
     16 C           6.3508   -2.5258   18.7895 C.3     1  UNL1        0.1500
     17 O           6.9236   -2.0877   17.4743 O.3     1  UNL1       -0.3810
     18 C           5.4895   -3.6667   19.2440 C.3     1  UNL1        0.1247
     19 H           7.4405   -1.2767   17.6009 H       1  UNL1        0.2105
     20 C           7.2332   -4.3506   23.7757 C.ar    1  UNL1        0.0826
     21 C           8.2039   -4.2727   22.6347 C.ar    1  UNL1        0.0192
     22 C           9.0643   -5.4549   22.3001 C.ar    1  UNL1        0.0031
     23 C           8.9541   -6.7149   23.1064 C.ar    1  UNL1        0.0207
     24 C           7.9835   -6.7928   24.2473 C.ar    1  UNL1        0.0988
     25 N           7.1230   -5.6106   24.5820 N.ar    1  UNL1       -0.2438
     26 C           9.0525   -1.9625   26.2385 C.3     1  UNL1        0.0278
     27 C           7.7778   -2.7530   26.2559 C.3     1  UNL1        0.1110
     28 N           7.6360   -3.9271   27.1786 N.pl3   1  UNL1       -0.3141
     29 H           7.8556   -4.8325   26.8605 H       1  UNL1        0.1485
     30 C           7.1596   -3.7215   28.5860 C.ar    1  UNL1        0.1429
     31 N           6.6094   -2.3903   29.0047 N.ar    1  UNL1       -0.2084
     32 C           6.1330   -2.1848   30.4121 C.ar    1  UNL1        0.2012
     33 N           6.2067   -3.3104   31.4008 N.ar    1  UNL1       -0.2087
     34 C           6.7568   -4.6416   30.9821 C.ar    1  UNL1        0.1396
     35 N           6.8305   -5.7672   31.9708 N.pl3   1  UNL1       -0.3420
     36 C           7.2333   -4.8472   29.5747 C.ar    1  UNL1        0.1308
     37 H           6.5178   -5.6323   32.8945 H       1  UNL1        0.1437
     38 H           7.1916   -6.6409   31.6960 H       1  UNL1        0.1437
     39 C           7.7834   -6.1783   29.1560 C.1     1  UNL1        0.1061
     40 N           8.3335   -7.5095   28.7373 N.1     1  UNL1       -0.1906
@<TRIPOS>BOND
     1    26    27    1
     2    27    28    1
     3    28    30    1
     4    30    31   ar
     5    31    32   ar
     6    32    33   ar
     7    33    34   ar
     8    34    35    1
     9    34    36   ar
    10    36    39    1
    11    39    40    3
    12    27     1    1
    13     1     2   ar
    14     2     3   ar
    15     3     4   ar
    16     4     5   ar
    17     5     6   ar
    18     6     7    1
    19     6     8   ar
    20     8     9   ar
    21     9    10   ar
    22    10    12    1
    23    12    13    2
    24    12    14   am
    25    14    15    1
    26    15    16    1
    27    16    17    1
    28    16    18    1
    29    10    11   ar
    30    11    20    1
    31    20    21   ar
    32    21    22   ar
    33    22    23   ar
    34    23    24   ar
    35    24    25   ar
    36    36    30   ar
    37    11     1   ar
    38    25    20   ar
    39     9     3   ar
    40    18    14    1
    41    28    29    1
    42    35    37    1
    43    35    38    1
    44    17    19    1
@<TRIPOS>MOLECULE
*****
 40 44 0 0 0
SMALL
GASTEIGER

@<TRIPOS>ATOM
      1 C           2.6834    0.2672   24.3533 C.ar    1  UNL1        0.0782
      2 N           3.5031   -0.9672   24.1207 N.ar    1  UNL1       -0.2480
      3 C           3.5664   -1.5787   22.7524 C.ar    1  UNL1        0.0812
      4 C           4.3862   -2.8131   22.5198 C.ar    1  UNL1        0.0214
      5 C           4.4495   -3.4245   21.1516 C.ar    1  UNL1        0.0312
      6 C           3.6931   -2.8015   20.0160 C.ar    1  UNL1        0.1402
      7 F           3.7564   -3.4130   18.6477 F       1  UNL1       -0.2042
      8 C           2.8733   -1.5671   20.2486 C.ar    1  UNL1        0.0313
      9 C           2.8100   -0.9556   21.6168 C.ar    1  UNL1        0.0243
     10 C           1.9903    0.2789   21.8494 C.ar    1  UNL1        0.0577
     11 C           1.9270    0.8903   23.2177 C.ar    1  UNL1        0.0372
     12 C           1.2339    0.9019   20.7138 C.2     1  UNL1        0.2493
     13 O          -0.2117    0.5634   20.5003 O.2     1  UNL1       -0.2699
     14 N           1.9231    1.8635   19.7916 N.am    1  UNL1       -0.2710
     15 C           3.3095    2.4273   19.6903 C.3     1  UNL1        0.1247
     16 C           2.8978    3.2234   18.4875 C.3     1  UNL1        0.1500
     17 O           3.5870    4.1849   17.5653 O.3     1  UNL1       -0.3810
     18 C           1.5115    2.6596   18.5888 C.3     1  UNL1        0.1247
     19 H           4.5107    4.2921   17.8415 H       1  UNL1        0.2105
     20 C           1.1072    2.1248   23.4503 C.ar    1  UNL1        0.0826
     21 C           1.6757    3.4746   23.1266 C.ar    1  UNL1        0.0192
     22 C           0.8560    4.7091   23.3592 C.ar    1  UNL1        0.0031
     23 C          -0.5321    4.5937   23.9156 C.ar    1  UNL1        0.0207
     24 C          -1.1007    3.2439   24.2393 C.ar    1  UNL1        0.0988
     25 N          -0.2810    2.0095   24.0067 N.ar    1  UNL1       -0.2438
     26 C           3.7526    1.7287   26.2164 C.3     1  UNL1        0.0278
     27 C           2.6200    0.8787   25.7216 C.3     1  UNL1        0.1110
     28 N           1.4241    0.6403   26.5950 N.pl3   1  UNL1       -0.3141
     29 H           0.5352    0.5178   26.1899 H       1  UNL1        0.1485
     30 C           1.5825    0.5883   28.0857 C.ar    1  UNL1        0.1429
     31 N           2.2820   -0.5742   28.7256 N.ar    1  UNL1       -0.2084
     32 C           2.4404   -0.6262   30.2162 C.ar    1  UNL1        0.2012
     33 N           1.8994    0.4844   31.0671 N.ar    1  UNL1       -0.2087
     34 C           1.2000    1.6468   30.4274 C.ar    1  UNL1        0.1396
     35 N           0.6590    2.7574   31.2783 N.pl3   1  UNL1       -0.3420
     36 C           1.0415    1.6988   28.9366 C.ar    1  UNL1        0.1308
     37 H           0.7630    2.7233   32.2567 H       1  UNL1        0.1437
     38 H           0.1999    3.5204   30.8583 H       1  UNL1        0.1437
     39 C           0.3421    2.8613   28.2968 C.1     1  UNL1        0.1061
     40 N          -0.3573    4.0238   27.6570 N.1     1  UNL1       -0.1906
@<TRIPOS>BOND
     1    26    27    1
     2    27    28    1
     3    28    30    1
     4    30    31   ar
     5    31    32   ar
     6    32    33   ar
     7    33    34   ar
     8    34    35    1
     9    34    36   ar
    10    36    39    1
    11    39    40    3
    12    27     1    1
    13     1     2   ar
    14     2     3   ar
    15     3     4   ar
    16     4     5   ar
    17     5     6   ar
    18     6     7    1
    19     6     8   ar
    20     8     9   ar
    21     9    10   ar
    22    10    12    1
    23    12    13    2
    24    12    14   am
    25    14    15    1
    26    15    16    1
    27    16    17    1
    28    16    18    1
    29    10    11   ar
    30    11    20    1
    31    20    21   ar
    32    21    22   ar
    33    22    23   ar
    34    23    24   ar
    35    24    25   ar
    36    36    30   ar
    37    11     1   ar
    38    25    20   ar
    39     9     3   ar
    40    18    14    1
    41    28    29    1
    42    35    37    1
    43    35    38    1
    44    17    19    1
@<TRIPOS>MOLECULE
*****
 40 44 0 0 0
SMALL
GASTEIGER

@<TRIPOS>ATOM
      1 C           3.3228   -0.4971   24.6048 C.ar    1  UNL1        0.0782
      2 N           4.1289   -1.6884   24.1796 N.ar    1  UNL1       -0.2480
      3 C           4.0817   -2.1563   22.7551 C.ar    1  UNL1        0.0812
      4 C           4.8878   -3.3476   22.3299 C.ar    1  UNL1        0.0214
      5 C           4.8406   -3.8154   20.9055 C.ar    1  UNL1        0.0312
      6 C           3.9873   -3.0918   19.9063 C.ar    1  UNL1        0.1402
      7 F           3.9401   -3.5596   18.4819 F       1  UNL1       -0.2042
      8 C           3.1812   -1.9004   20.3316 C.ar    1  UNL1        0.0313
      9 C           3.2284   -1.4327   21.7559 C.ar    1  UNL1        0.0243
     10 C           2.4223   -0.2413   22.1812 C.ar    1  UNL1        0.0577
     11 C           2.4695    0.2265   23.6056 C.ar    1  UNL1        0.0372
     12 C           1.5690    0.4823   21.1821 C.2     1  UNL1        0.2493
     13 O           0.0961    0.2067   21.1144 O.2     1  UNL1       -0.2699
     14 N           2.1887    1.4815   20.2506 N.am    1  UNL1       -0.2710
     15 C           3.5765    2.0052   20.0274 C.3     1  UNL1        0.1247
     16 C           3.0649    2.8946   18.9332 C.3     1  UNL1        0.1500
     17 O           3.6845    3.8938   18.0017 O.3     1  UNL1       -0.3810
     18 C           1.6771    2.3709   19.1564 C.3     1  UNL1        0.1247
     19 H           4.6369    3.9515   18.1764 H       1  UNL1        0.2105
     20 C           1.6634    1.4179   24.0309 C.ar    1  UNL1        0.0826
     21 C           0.3309    1.2246   24.6921 C.ar    1  UNL1        0.0192
     22 C          -0.4752    2.4159   25.1174 C.ar    1  UNL1        0.0031
     23 C           0.0512    3.8005   24.8815 C.ar    1  UNL1        0.0207
     24 C           1.3837    3.9938   24.2203 C.ar    1  UNL1        0.0988
     25 N           2.1898    2.8025   23.7951 N.ar    1  UNL1       -0.2438
     26 C           4.0532    1.2613   26.3726 C.3     1  UNL1        0.0278
     27 C           3.3700   -0.0292   26.0292 C.3     1  UNL1        0.1110
     28 N           2.7340   -0.8519   27.1103 N.pl3   1  UNL1       -0.3141
     29 H           2.7118   -1.8332   27.0335 H       1  UNL1        0.1485
     30 C           2.1318   -0.1795   28.3082 C.ar    1  UNL1        0.1429
     31 N           0.7903    0.4832   28.2011 N.ar    1  UNL1       -0.2084
     32 C           0.1881    1.1556   29.3990 C.ar    1  UNL1        0.2012
     33 N           0.9273    1.1653   30.7042 N.ar    1  UNL1       -0.2087
     34 C           2.2687    0.5027   30.8114 C.ar    1  UNL1        0.1396
     35 N           3.0078    0.5125   32.1166 N.pl3   1  UNL1       -0.3420
     36 C           2.8709   -0.1697   29.6134 C.ar    1  UNL1        0.1308
     37 H           2.6126    0.9538   32.9029 H       1  UNL1        0.1437
     38 H           3.8883    0.0776   32.1870 H       1  UNL1        0.1437
     39 C           4.2123   -0.8323   29.7207 C.1     1  UNL1        0.1061
     40 N           5.5537   -1.4949   29.8279 N.1     1  UNL1       -0.1906
@<TRIPOS>BOND
     1    26    27    1
     2    27    28    1
     3    28    30    1
     4    30    31   ar
     5    31    32   ar
     6    32    33   ar
     7    33    34   ar
     8    34    35    1
     9    34    36   ar
    10    36    39    1
    11    39    40    3
    12    27     1    1
    13     1     2   ar
    14     2     3   ar
    15     3     4   ar
    16     4     5   ar
    17     5     6   ar
    18     6     7    1
    19     6     8   ar
    20     8     9   ar
    21     9    10   ar
    22    10    12    1
    23    12    13    2
    24    12    14   am
    25    14    15    1
    26    15    16    1
    27    16    17    1
    28    16    18    1
    29    10    11   ar
    30    11    20    1
    31    20    21   ar
    32    21    22   ar
    33    22    23   ar
    34    23    24   ar
    35    24    25   ar
    36    36    30   ar
    37    11     1   ar
    38    25    20   ar
    39     9     3   ar
    40    18    14    1
    41    28    29    1
    42    35    37    1
    43    35    38    1
    44    17    19    1
@<TRIPOS>MOLECULE
*****
 40 44 0 0 0
SMALL
GASTEIGER

@<TRIPOS>ATOM
      1 C           4.8466   -3.1057   21.0347 C.ar    1  UNL1        0.0782
      2 N           5.6473   -4.0074   21.9267 N.ar    1  UNL1       -0.2480
      3 C           5.8569   -3.6442   23.3669 C.ar    1  UNL1        0.0812
      4 C           6.6576   -4.5459   24.2589 C.ar    1  UNL1        0.0214
      5 C           6.8671   -4.1828   25.6991 C.ar    1  UNL1        0.0312
      6 C           6.2758   -2.9179   26.2473 C.ar    1  UNL1        0.1402
      7 F           6.4853   -2.5547   27.6876 F       1  UNL1       -0.2042
      8 C           5.4751   -2.0162   25.3553 C.ar    1  UNL1        0.0313
      9 C           5.2656   -2.3794   23.9151 C.ar    1  UNL1        0.0243
     10 C           4.4648   -1.4776   23.0230 C.ar    1  UNL1        0.0577
     11 C           4.2554   -1.8408   21.5828 C.ar    1  UNL1        0.0372
     12 C           3.8736   -0.2128   23.5712 C.2     1  UNL1        0.2493
     13 O           2.4993   -0.2262   24.1721 O.2     1  UNL1       -0.2699
     14 N           4.6567    1.0656   23.5184 N.am    1  UNL1       -0.2710
     15 C           6.0128    1.4586   23.0120 C.3     1  UNL1        0.1247
     16 C           5.7641    2.8734   23.4438 C.3     1  UNL1        0.1500
     17 O           6.5471    4.1517   23.3911 O.3     1  UNL1       -0.3810
     18 C           4.4079    2.4804   23.9503 C.3     1  UNL1        0.1247
     19 H           7.4078    3.9867   22.9753 H       1  UNL1        0.2105
     20 C           3.4546   -0.9391   20.6907 C.ar    1  UNL1        0.0826
     21 C           1.9723   -1.1317   20.5655 C.ar    1  UNL1        0.0192
     22 C           1.1715   -0.2301   19.6735 C.ar    1  UNL1        0.0031
     23 C           1.8531    0.8642   18.9067 C.ar    1  UNL1        0.0207
     24 C           3.3354    1.0568   19.0319 C.ar    1  UNL1        0.0988
     25 N           4.1361    0.1551   19.9239 N.ar    1  UNL1       -0.2438
     26 C           3.2952   -3.9527   19.1305 C.3     1  UNL1        0.0278
     27 C           4.6371   -3.4689   19.5944 C.3     1  UNL1        0.1110
     28 N           5.7695   -3.3483   18.6181 N.pl3   1  UNL1       -0.3141
     29 H           6.1496   -4.1559   18.2029 H       1  UNL1        0.1485
     30 C           6.3226   -1.9970   18.2744 C.ar    1  UNL1        0.1429
     31 N           5.6416   -1.1482   17.2420 N.ar    1  UNL1       -0.2084
     32 C           6.1947    0.2030   16.8983 C.ar    1  UNL1        0.2012
     33 N           7.4289    0.7055   17.5870 N.ar    1  UNL1       -0.2087
     34 C           8.1100   -0.1433   18.6194 C.ar    1  UNL1        0.1396
     35 N           9.3442    0.3592   19.3080 N.pl3   1  UNL1       -0.3420
     36 C           7.5568   -1.4946   18.9631 C.ar    1  UNL1        0.1308
     37 H           9.7072    1.2461   19.0824 H       1  UNL1        0.1437
     38 H           9.7912   -0.1978   19.9856 H       1  UNL1        0.1437
     39 C           8.2379   -2.3433   19.9954 C.1     1  UNL1        0.1061
     40 N           8.9189   -3.1920   21.0278 N.1     1  UNL1       -0.1906
@<TRIPOS>BOND
     1    26    27    1
     2    27    28    1
     3    28    30    1
     4    30    31   ar
     5    31    32   ar
     6    32    33   ar
     7    33    34   ar
     8    34    35    1
     9    34    36   ar
    10    36    39    1
    11    39    40    3
    12    27     1    1
    13     1     2   ar
    14     2     3   ar
    15     3     4   ar
    16     4     5   ar
    17     5     6   ar
    18     6     7    1
    19     6     8   ar
    20     8     9   ar
    21     9    10   ar
    22    10    12    1
    23    12    13    2
    24    12    14   am
    25    14    15    1
    26    15    16    1
    27    16    17    1
    28    16    18    1
    29    10    11   ar
    30    11    20    1
    31    20    21   ar
    32    21    22   ar
    33    22    23   ar
    34    23    24   ar
    35    24    25   ar
    36    36    30   ar
    37    11     1   ar
    38    25    20   ar
    39     9     3   ar
    40    18    14    1
    41    28    29    1
    42    35    37    1
    43    35    38    1
    44    17    19    1
@<TRIPOS>MOLECULE
*****
 40 44 0 0 0
SMALL
GASTEIGER

@<TRIPOS>ATOM
      1 C           4.4509   -1.1864   23.4948 C.ar    1  UNL1        0.0782
      2 N           3.8447   -0.5682   24.7197 N.ar    1  UNL1       -0.2480
      3 C           2.6024    0.2645   24.6031 C.ar    1  UNL1        0.0812
      4 C           1.9963    0.8827   25.8279 C.ar    1  UNL1        0.0214
      5 C           0.7540    1.7153   25.7113 C.ar    1  UNL1        0.0312
      6 C           0.1180    1.9296   24.3699 C.ar    1  UNL1        0.1402
      7 F          -1.1243    2.7623   24.2533 F       1  UNL1       -0.2042
      8 C           0.7242    1.3114   23.1450 C.ar    1  UNL1        0.0313
      9 C           1.9664    0.4788   23.2616 C.ar    1  UNL1        0.0243
     10 C           2.5727   -0.1394   22.0368 C.ar    1  UNL1        0.0577
     11 C           3.8149   -0.9720   22.1534 C.ar    1  UNL1        0.0372
     12 C           1.9366    0.0749   20.6953 C.2     1  UNL1        0.2493
     13 O           0.8566   -0.8515   20.2207 O.2     1  UNL1       -0.2699
     14 N           2.3807    1.2157   19.8284 N.am    1  UNL1       -0.2710
     15 C           3.3953    2.3131   19.9568 C.3     1  UNL1        0.1247
     16 C           3.0086    2.8290   18.6024 C.3     1  UNL1        0.1500
     17 O           3.4526    3.9697   17.7355 O.3     1  UNL1       -0.3810
     18 C           1.9940    1.7317   18.4740 C.3     1  UNL1        0.1247
     19 H           4.1524    4.4663   18.1879 H       1  UNL1        0.2105
     20 C           4.4211   -1.5903   20.9285 C.ar    1  UNL1        0.0826
     21 C           3.9247   -2.9165   20.4337 C.ar    1  UNL1        0.0192
     22 C           4.5309   -3.5347   19.2089 C.ar    1  UNL1        0.0031
     23 C           5.6335   -2.8268   18.4788 C.ar    1  UNL1        0.0207
     24 C           6.1300   -1.5007   18.9736 C.ar    1  UNL1        0.0988
     25 N           5.5238   -0.8824   20.1984 N.ar    1  UNL1       -0.2438
     26 C           7.0291   -1.3550   23.7677 C.3     1  UNL1        0.0278
     27 C           5.6932   -2.0190   23.6114 C.3     1  UNL1        0.1110
     28 N           5.5995   -3.5155   23.5716 N.pl3   1  UNL1       -0.3141
     29 H           4.7711   -3.9646   23.8565 H       1  UNL1        0.1485
     30 C           6.7681   -4.3278   23.0978 C.ar    1  UNL1        0.1429
     31 N           7.1794   -4.2800   21.6560 N.ar    1  UNL1       -0.2084
     32 C           8.3480   -5.0923   21.1822 C.ar    1  UNL1        0.2012
     33 N           9.1054   -5.9523   22.1500 N.ar    1  UNL1       -0.2087
     34 C           8.6942   -6.0001   23.5917 C.ar    1  UNL1        0.1396
     35 N           9.4515   -6.8601   24.5596 N.pl3   1  UNL1       -0.3420
     36 C           7.5255   -5.1878   24.0657 C.ar    1  UNL1        0.1308
     37 H          10.2185   -7.3932   24.2486 H       1  UNL1        0.1437
     38 H           9.1816   -6.8914   25.5059 H       1  UNL1        0.1437
     39 C           7.1143   -5.2356   25.5074 C.1     1  UNL1        0.1061
     40 N           6.7030   -5.2833   26.9491 N.1     1  UNL1       -0.1906
@<TRIPOS>BOND
     1    26    27    1
     2    27    28    1
     3    28    30    1
     4    30    31   ar
     5    31    32   ar
     6    32    33   ar
     7    33    34   ar
     8    34    35    1
     9    34    36   ar
    10    36    39    1
    11    39    40    3
    12    27     1    1
    13     1     2   ar
    14     2     3   ar
    15     3     4   ar
    16     4     5   ar
    17     5     6   ar
    18     6     7    1
    19     6     8   ar
    20     8     9   ar
    21     9    10   ar
    22    10    12    1
    23    12    13    2
    24    12    14   am
    25    14    15    1
    26    15    16    1
    27    16    17    1
    28    16    18    1
    29    10    11   ar
    30    11    20    1
    31    20    21   ar
    32    21    22   ar
    33    22    23   ar
    34    23    24   ar
    35    24    25   ar
    36    36    30   ar
    37    11     1   ar
    38    25    20   ar
    39     9     3   ar
    40    18    14    1
    41    28    29    1
    42    35    37    1
    43    35    38    1
    44    17    19    1
@<TRIPOS>MOLECULE
*****
 40 44 0 0 0
SMALL
GASTEIGER

@<TRIPOS>ATOM
      1 C          -0.9595    2.4990   21.3037 C.ar    1  UNL1        0.0782
      2 N          -0.3889    1.3565   20.5168 N.ar    1  UNL1       -0.2480
      3 C           0.8079    0.6140   21.0330 C.ar    1  UNL1        0.0812
      4 C           1.3785   -0.5284   20.2462 C.ar    1  UNL1        0.0214
      5 C           2.5753   -1.2709   20.7623 C.ar    1  UNL1        0.0312
      6 C           3.2014   -0.8709   22.0654 C.ar    1  UNL1        0.1402
      7 F           4.3983   -1.6134   22.5816 F       1  UNL1       -0.2042
      8 C           2.6309    0.2716   22.8522 C.ar    1  UNL1        0.0313
      9 C           1.4341    1.0140   22.3360 C.ar    1  UNL1        0.0243
     10 C           0.8635    2.1565   23.1229 C.ar    1  UNL1        0.0577
     11 C          -0.3333    2.8990   22.6067 C.ar    1  UNL1        0.0372
     12 C           1.4896    2.5565   24.4259 C.2     1  UNL1        0.2493
     13 O           2.6892    3.4570   24.4364 O.2     1  UNL1       -0.2699
     14 N           0.9161    2.0561   25.7185 N.am    1  UNL1       -0.2710
     15 C          -0.2347    1.1713   26.0963 C.3     1  UNL1        0.1247
     16 C           0.1052    1.3484   27.5465 C.3     1  UNL1        0.1500
     17 O          -0.4683    0.8479   28.8391 O.3     1  UNL1       -0.3810
     18 C           1.2560    2.2331   27.1688 C.3     1  UNL1        0.1247
     19 H          -1.2346    0.2823   28.6553 H       1  UNL1        0.2105
     20 C          -0.9040    4.0415   23.3936 C.ar    1  UNL1        0.0826
     21 C          -2.0484    3.8066   24.3344 C.ar    1  UNL1        0.0192
     22 C          -2.6190    4.9490   25.1213 C.ar    1  UNL1        0.0031
     23 C          -2.0453    6.3264   24.9673 C.ar    1  UNL1        0.0207
     24 C          -0.9009    6.5612   24.0264 C.ar    1  UNL1        0.0988
     25 N          -0.3302    5.4188   23.2396 N.ar    1  UNL1       -0.2438
     26 C          -2.0127    4.6563   20.3104 C.3     1  UNL1        0.0278
     27 C          -2.1563    3.2415   20.7875 C.3     1  UNL1        0.1110
     28 N          -3.4966    2.5692   20.7484 N.pl3   1  UNL1       -0.3141
     29 H          -3.5729    1.6417   20.4271 H       1  UNL1        0.1485
     30 C          -4.7206    3.3099   21.1989 C.ar    1  UNL1        0.1429
     31 N          -5.0504    3.3954   22.6598 N.ar    1  UNL1       -0.2084
     32 C          -6.2744    4.1361   23.1103 C.ar    1  UNL1        0.2012
     33 N          -7.1687    4.7915   22.1000 N.ar    1  UNL1       -0.2087
     34 C          -6.8390    4.7061   20.6392 C.ar    1  UNL1        0.1396
     35 N          -7.7333    5.3615   19.6289 N.pl3   1  UNL1       -0.3420
     36 C          -5.6149    3.9653   20.1886 C.ar    1  UNL1        0.1308
     37 H          -8.5366    5.8477   19.9246 H       1  UNL1        0.1437
     38 H          -7.5169    5.3055   18.6701 H       1  UNL1        0.1437
     39 C          -5.2852    3.8800   18.7279 C.1     1  UNL1        0.1061
     40 N          -4.9555    3.7946   17.2671 N.1     1  UNL1       -0.1906
@<TRIPOS>BOND
     1    26    27    1
     2    27    28    1
     3    28    30    1
     4    30    31   ar
     5    31    32   ar
     6    32    33   ar
     7    33    34   ar
     8    34    35    1
     9    34    36   ar
    10    36    39    1
    11    39    40    3
    12    27     1    1
    13     1     2   ar
    14     2     3   ar
    15     3     4   ar
    16     4     5   ar
    17     5     6   ar
    18     6     7    1
    19     6     8   ar
    20     8     9   ar
    21     9    10   ar
    22    10    12    1
    23    12    13    2
    24    12    14   am
    25    14    15    1
    26    15    16    1
    27    16    17    1
    28    16    18    1
    29    10    11   ar
    30    11    20    1
    31    20    21   ar
    32    21    22   ar
    33    22    23   ar
    34    23    24   ar
    35    24    25   ar
    36    36    30   ar
    37    11     1   ar
    38    25    20   ar
    39     9     3   ar
    40    18    14    1
    41    28    29    1
    42    35    37    1
    43    35    38    1
    44    17    19    1
@<TRIPOS>MOLECULE
*****
 40 44 0 0 0
SMALL
GASTEIGER

@<TRIPOS>ATOM
      1 C           5.8358   -1.9519   29.1169 C.ar    1  UNL1        0.0782
      2 N           6.0117   -2.2726   30.5716 N.ar    1  UNL1       -0.2480
      3 C           5.3254   -1.4378   31.6119 C.ar    1  UNL1        0.0812
      4 C           5.5013   -1.7585   33.0666 C.ar    1  UNL1        0.0214
      5 C           4.8151   -0.9237   34.1069 C.ar    1  UNL1        0.0312
      6 C           3.9529    0.2316   33.6925 C.ar    1  UNL1        0.1402
      7 F           3.2667    1.0664   34.7329 F       1  UNL1       -0.2042
      8 C           3.7770    0.5523   32.2378 C.ar    1  UNL1        0.0313
      9 C           4.4632   -0.2824   31.1975 C.ar    1  UNL1        0.0243
     10 C           4.2874    0.0382   29.7427 C.ar    1  UNL1        0.0577
     11 C           4.9736   -0.7965   28.7025 C.ar    1  UNL1        0.0372
     12 C           3.4252    1.1936   29.3283 C.2     1  UNL1        0.2493
     13 O           4.0334    2.5505   29.1312 O.2     1  UNL1       -0.2699
     14 N           1.9547    0.9920   29.1110 N.am    1  UNL1       -0.2710
     15 C           1.0186   -0.1761   29.2069 C.3     1  UNL1        0.1247
     16 C          -0.1248    0.7071   28.8036 C.3     1  UNL1        0.1500
     17 O          -1.5952    0.5056   28.5862 O.3     1  UNL1       -0.3810
     18 C           0.8113    1.8752   28.7076 C.3     1  UNL1        0.1247
     19 H          -1.8228   -0.4222   28.7546 H       1  UNL1        0.2105
     20 C           4.7977   -0.4759   27.2477 C.ar    1  UNL1        0.0826
     21 C           3.7346   -1.1709   26.4497 C.ar    1  UNL1        0.0192
     22 C           3.5586   -0.8503   24.9950 C.ar    1  UNL1        0.0031
     23 C           4.4459    0.1653   24.3382 C.ar    1  UNL1        0.0207
     24 C           5.5090    0.8602   25.1362 C.ar    1  UNL1        0.0988
     25 N           5.6849    0.5397   26.5909 N.ar    1  UNL1       -0.2438
     26 C           7.8318   -2.3381   27.4992 C.3     1  UNL1        0.0278
     27 C           6.5220   -2.7867   28.0765 C.3     1  UNL1        0.1110
     28 N           5.8986   -4.0700   27.6135 N.pl3   1  UNL1       -0.3141
     29 H           4.9212   -4.1831   27.6484 H       1  UNL1        0.1485
     30 C           6.7642   -5.1809   27.0974 C.ar    1  UNL1        0.1429
     31 N           6.9574   -5.3568   25.6203 N.ar    1  UNL1       -0.2084
     32 C           7.8230   -6.4678   25.1042 C.ar    1  UNL1        0.2012
     33 N           8.4955   -7.4029   26.0651 N.ar    1  UNL1       -0.2087
     34 C           8.3024   -7.2270   27.5422 C.ar    1  UNL1        0.1396
     35 N           8.9749   -8.1621   28.5031 N.pl3   1  UNL1       -0.3420
     36 C           7.4367   -6.1160   28.0583 C.ar    1  UNL1        0.1308
     37 H           9.5430   -8.8912   28.1643 H       1  UNL1        0.1437
     38 H           8.8481   -8.0466   29.4725 H       1  UNL1        0.1437
     39 C           7.2435   -5.9401   29.5354 C.1     1  UNL1        0.1061
     40 N           7.0504   -5.7643   31.0124 N.1     1  UNL1       -0.1906
@<TRIPOS>BOND
     1    26    27    1
     2    27    28    1
     3    28    30    1
     4    30    31   ar
     5    31    32   ar
     6    32    33   ar
     7    33    34   ar
     8    34    35    1
     9    34    36   ar
    10    36    39    1
    11    39    40    3
    12    27     1    1
    13     1     2   ar
    14     2     3   ar
    15     3     4   ar
    16     4     5   ar
    17     5     6   ar
    18     6     7    1
    19     6     8   ar
    20     8     9   ar
    21     9    10   ar
    22    10    12    1
    23    12    13    2
    24    12    14   am
    25    14    15    1
    26    15    16    1
    27    16    17    1
    28    16    18    1
    29    10    11   ar
    30    11    20    1
    31    20    21   ar
    32    21    22   ar
    33    22    23   ar
    34    23    24   ar
    35    24    25   ar
    36    36    30   ar
    37    11     1   ar
    38    25    20   ar
    39     9     3   ar
    40    18    14    1
    41    28    29    1
    42    35    37    1
    43    35    38    1
    44    17    19    1
@<TRIPOS>MOLECULE
*****
 40 44 0 0 0
SMALL
GASTEIGER

@<TRIPOS>ATOM
      1 C           5.6860   -2.3248   25.8054 C.ar    1  UNL1        0.0782
      2 N           6.1701   -3.5753   26.4774 N.ar    1  UNL1       -0.2480
      3 C           6.8853   -4.6261   25.6809 C.ar    1  UNL1        0.0812
      4 C           7.3694   -5.8767   26.3530 C.ar    1  UNL1        0.0214
      5 C           8.0846   -6.9274   25.5564 C.ar    1  UNL1        0.0312
      6 C           8.3156   -6.7276   24.0879 C.ar    1  UNL1        0.1402
      7 F           9.0308   -7.7784   23.2913 F       1  UNL1       -0.2042
      8 C           7.8315   -5.4770   23.4158 C.ar    1  UNL1        0.0313
      9 C           7.1163   -4.4263   24.2123 C.ar    1  UNL1        0.0243
     10 C           6.6322   -3.1757   23.5403 C.ar    1  UNL1        0.0577
     11 C           5.9170   -2.1249   24.3368 C.ar    1  UNL1        0.0372
     12 C           6.8632   -2.9758   22.0717 C.2     1  UNL1        0.2493
     13 O           8.1460   -2.3652   21.5906 O.2     1  UNL1       -0.2699
     14 N           5.8114   -3.3867   21.0843 N.am    1  UNL1       -0.2710
     15 C           4.4497   -4.0081   21.1820 C.3     1  UNL1        0.1247
     16 C           4.3240   -3.9678   19.6878 C.3     1  UNL1        0.1500
     17 O           3.2723   -4.3786   18.7004 O.3     1  UNL1       -0.3810
     18 C           5.6857   -3.3463   19.5901 C.3     1  UNL1        0.1247
     19 H           2.5127   -4.7525   19.1739 H       1  UNL1        0.2105
     20 C           5.4329   -0.8743   23.6648 C.ar    1  UNL1        0.0826
     21 C           4.0431   -0.8144   23.1036 C.ar    1  UNL1        0.0192
     22 C           3.5589    0.4362   22.4316 C.ar    1  UNL1        0.0031
     23 C           4.4645    1.6268   22.3207 C.ar    1  UNL1        0.0207
     24 C           5.8543    1.5668   22.8819 C.ar    1  UNL1        0.0988
     25 N           6.3385    0.3163   23.5539 N.ar    1  UNL1       -0.2438
     26 C           5.7302   -0.1027   27.1510 C.3     1  UNL1        0.0278
     27 C           4.9708   -1.2740   26.6019 C.3     1  UNL1        0.1110
     28 N           3.4963   -1.3944   26.8493 N.pl3   1  UNL1       -0.3141
     29 H           2.9332   -1.9091   26.2270 H       1  UNL1        0.1485
     30 C           2.8797   -0.7307   28.0448 C.ar    1  UNL1        0.1429
     31 N           3.1813   -1.2390   29.4235 N.ar    1  UNL1       -0.2084
     32 C           2.5647   -0.5753   30.6191 C.ar    1  UNL1        0.2012
     33 N           1.6467    0.5968   30.4359 N.ar    1  UNL1       -0.2087
     34 C           1.3451    1.1051   29.0573 C.ar    1  UNL1        0.1396
     35 N           0.4271    2.2771   28.8742 N.pl3   1  UNL1       -0.3420
     36 C           1.9617    0.4413   27.8617 C.ar    1  UNL1        0.1308
     37 H           0.0224    2.7127   29.6588 H       1  UNL1        0.1437
     38 H           0.2292    2.6107   27.9693 H       1  UNL1        0.1437
     39 C           1.6602    0.9496   26.4831 C.1     1  UNL1        0.1061
     40 N           1.3587    1.4579   25.1044 N.1     1  UNL1       -0.1906
@<TRIPOS>BOND
     1    26    27    1
     2    27    28    1
     3    28    30    1
     4    30    31   ar
     5    31    32   ar
     6    32    33   ar
     7    33    34   ar
     8    34    35    1
     9    34    36   ar
    10    36    39    1
    11    39    40    3
    12    27     1    1
    13     1     2   ar
    14     2     3   ar
    15     3     4   ar
    16     4     5   ar
    17     5     6   ar
    18     6     7    1
    19     6     8   ar
    20     8     9   ar
    21     9    10   ar
    22    10    12    1
    23    12    13    2
    24    12    14   am
    25    14    15    1
    26    15    16    1
    27    16    17    1
    28    16    18    1
    29    10    11   ar
    30    11    20    1
    31    20    21   ar
    32    21    22   ar
    33    22    23   ar
    34    23    24   ar
    35    24    25   ar
    36    36    30   ar
    37    11     1   ar
    38    25    20   ar
    39     9     3   ar
    40    18    14    1
    41    28    29    1
    42    35    37    1
    43    35    38    1
    44    17    19    1
@<TRIPOS>MOLECULE
*****
 40 44 0 0 0
SMALL
GASTEIGER

@<TRIPOS>ATOM
      1 C          -0.8859    2.9410   22.5589 C.ar    1  UNL1        0.0782
      2 N          -1.4621    3.1431   23.9290 N.ar    1  UNL1       -0.2480
      3 C          -0.7571    2.5837   25.1291 C.ar    1  UNL1        0.0812
      4 C          -1.3333    2.7858   26.4992 C.ar    1  UNL1        0.0214
      5 C          -0.6283    2.2265   27.6992 C.ar    1  UNL1        0.0312
      6 C           0.6528    1.4651   27.5292 C.ar    1  UNL1        0.1402
      7 F           1.3578    0.9058   28.7293 F       1  UNL1       -0.2042
      8 C           1.2290    1.2630   26.1591 C.ar    1  UNL1        0.0313
      9 C           0.5240    1.8223   24.9591 C.ar    1  UNL1        0.0243
     10 C           1.1002    1.6202   23.5889 C.ar    1  UNL1        0.0577
     11 C           0.3952    2.1795   22.3889 C.ar    1  UNL1        0.0372
     12 C           2.3814    0.8588   23.4189 C.2     1  UNL1        0.2493
     13 O           2.3500   -0.6283   23.2258 O.2     1  UNL1       -0.2699
     14 N           3.6939    1.5847   23.4420 N.am    1  UNL1       -0.2710
     15 C           4.1118    3.0158   23.6065 C.3     1  UNL1        0.1247
     16 C           5.5501    2.6110   23.4745 C.3     1  UNL1        0.1500
     17 O           6.8626    3.3368   23.4976 O.3     1  UNL1       -0.3810
     18 C           5.1322    1.1798   23.3100 C.3     1  UNL1        0.1247
     19 H           6.7056    4.2847   23.6304 H       1  UNL1        0.2105
     20 C           0.9714    1.9775   21.0187 C.ar    1  UNL1        0.0826
     21 C           0.5181    0.8212   20.1776 C.ar    1  UNL1        0.0192
     22 C           1.0942    0.6191   18.8075 C.ar    1  UNL1        0.0031
     23 C           2.1236    1.5732   18.2786 C.ar    1  UNL1        0.0207
     24 C           2.5769    2.7295   19.1197 C.ar    1  UNL1        0.0988
     25 N           2.0008    2.9316   20.4898 N.ar    1  UNL1       -0.2438
     26 C          -1.0707    4.7399   20.6936 C.3     1  UNL1        0.0278
     27 C          -1.5909    3.5003   21.3588 C.3     1  UNL1        0.1110
     28 N          -2.8161    2.8199   20.8240 N.pl3   1  UNL1       -0.3141
     29 H          -2.7263    2.0400   20.2300 H       1  UNL1        0.1485
     30 C          -4.1779    3.3280   21.1942 C.ar    1  UNL1        0.1429
     31 N          -4.5685    3.4435   22.6379 N.ar    1  UNL1       -0.2084
     32 C          -5.9303    3.9515   23.0082 C.ar    1  UNL1        0.2012
     33 N          -6.9018    4.3440   21.9347 N.ar    1  UNL1       -0.2087
     34 C          -6.5114    4.2285   20.4911 C.ar    1  UNL1        0.1396
     35 N          -7.4828    4.6210   19.4177 N.pl3   1  UNL1       -0.3420
     36 C          -5.1494    3.7204   20.1208 C.ar    1  UNL1        0.1308
     37 H          -8.3767    4.9544   19.6607 H       1  UNL1        0.1437
     38 H          -7.2265    4.5451   18.4701 H       1  UNL1        0.1437
     39 C          -4.7590    3.6049   18.6772 C.1     1  UNL1        0.1061
     40 N          -4.3685    3.4894   17.2335 N.1     1  UNL1       -0.1906
@<TRIPOS>BOND
     1    26    27    1
     2    27    28    1
     3    28    30    1
     4    30    31   ar
     5    31    32   ar
     6    32    33   ar
     7    33    34   ar
     8    34    35    1
     9    34    36   ar
    10    36    39    1
    11    39    40    3
    12    27     1    1
    13     1     2   ar
    14     2     3   ar
    15     3     4   ar
    16     4     5   ar
    17     5     6   ar
    18     6     7    1
    19     6     8   ar
    20     8     9   ar
    21     9    10   ar
    22    10    12    1
    23    12    13    2
    24    12    14   am
    25    14    15    1
    26    15    16    1
    27    16    17    1
    28    16    18    1
    29    10    11   ar
    30    11    20    1
    31    20    21   ar
    32    21    22   ar
    33    22    23   ar
    34    23    24   ar
    35    24    25   ar
    36    36    30   ar
    37    11     1   ar
    38    25    20   ar
    39     9     3   ar
    40    18    14    1
    41    28    29    1
    42    35    37    1
    43    35    38    1
    44    17    19    1
