@<TRIPOS>MOLECULE
*****
 34 38 0 0 0
SMALL
GASTEIGER

@<TRIPOS>ATOM
      1 C         -10.2068  -16.5046   22.6940 C.3     1  UNL1        0.0904
      2 C          -9.4181  -15.6787   21.7216 C.3     1  UNL1        0.0386
      3 C         -10.0061  -15.3259   20.3875 C.3     1  UNL1        0.0594
      4 C         -10.9517  -15.2221   19.2277 C.3     1  UNL1        0.0174
      5 C         -12.2019  -15.9721   19.5805 C.3     1  UNL1        0.0174
      6 C         -12.0290  -16.5394   20.9583 C.3     1  UNL1        0.0594
      7 C         -11.5835  -16.9777   22.3325 C.3     1  UNL1        0.0386
      8 N         -10.6719  -16.1400   21.4570 N.3     1  UNL1       -0.2750
      9 C          -7.8752  -14.8448   24.2621 C.3     1  UNL1        0.0738
     10 C          -8.5470  -16.0946   24.7489 C.ar    1  UNL1        0.1433
     11 N          -8.2651  -16.8007   26.0419 N.ar    1  UNL1       -0.1337
     12 N          -9.1625  -18.0000   26.1202 N.ar    1  UNL1       -0.1337
     13 C          -9.9991  -18.0351   24.8758 C.ar    1  UNL1        0.1425
     14 N          -9.6187  -16.8575   24.0282 N.ar    1  UNL1       -0.3039
     15 C         -11.0343  -19.0668   24.5380 C.3     1  UNL1        0.0588
     16 C         -10.6131  -20.4130   24.0278 C.3     1  UNL1        0.0080
     17 C         -12.4909  -18.7522   24.7105 C.3     1  UNL1        0.0080
     18 C         -10.0839  -16.4928   22.7911 C.3     1  UNL1        0.0741
     19 C          -9.3226  -17.7742   22.9599 C.3     1  UNL1        0.0419
     20 C          -8.3661  -18.2241   21.8957 C.3     1  UNL1        0.1014
     21 C          -8.8704  -18.9917   20.7098 C.ar    1  UNL1        0.0251
     22 C         -10.2762  -19.4726   20.5036 C.ar    1  UNL1        0.0043
     23 C         -10.3320  -20.1913   19.1882 C.ar    1  UNL1        0.0072
     24 C          -8.9607  -20.1546   18.5814 C.ar    1  UNL1        0.0352
     25 S          -8.0574  -19.4133   19.5218 S.2     1  UNL1       -0.0892
     26 N          -6.9051  -17.9064   22.0173 N.am    1  UNL1       -0.3017
     27 C          -5.9139  -19.0095   22.2424 C.2     1  UNL1        0.2222
     28 O          -6.3836  -20.4303   22.3459 O.2     1  UNL1       -0.2751
     29 H          -6.5968  -16.9739   21.9494 H       1  UNL1        0.1497
     30 C          -4.4530  -18.6918   22.3639 C.3     1  UNL1        0.0765
     31 C          -3.3453  -19.3189   21.5705 C.3     1  UNL1        0.0091
     32 C          -2.0510  -18.7058   22.0165 C.3     1  UNL1        0.0005
     33 C          -2.3587  -17.6998   23.0856 C.3     1  UNL1        0.0005
     34 C          -3.8433  -17.6911   23.3003 C.3     1  UNL1        0.0091
@<TRIPOS>BOND
     1     9    10    1
     2    10    11   ar
     3    11    12   ar
     4    12    13   ar
     5    13    15    1
     6    15    16    1
     7    15    17    1
     8    13    14   ar
     9     1    14    1
    10     1     2    1
    11     3     2    1
    12     3     4    1
    13     4     5    1
    14     6     5    1
    15     6     7    1
    16     6     8    1
    17     8    18    1
    18    18    19    1
    19    20    19    1
    20    20    26    1
    21    26    27   am
    22    27    28    2
    23    27    30    1
    24    30    31    1
    25    31    32    1
    26    32    33    1
    27    33    34    1
    28    20    21    1
    29    21    22   ar
    30    22    23   ar
    31    23    24   ar
    32    24    25   ar
    33    14    10   ar
    34     7     1    1
    35    34    30    1
    36    25    21   ar
    37     8     3    1
    38    26    29    1
@<TRIPOS>MOLECULE
*****
 34 38 0 0 0
SMALL
GASTEIGER

@<TRIPOS>ATOM
      1 C          -9.5610  -16.4375   22.9360 C.3     1  UNL1        0.0904
      2 C          -8.4948  -15.5176   22.4193 C.3     1  UNL1        0.0386
      3 C          -7.3415  -15.1370   23.2996 C.3     1  UNL1        0.0594
      4 C          -6.4192  -15.0353   24.4782 C.3     1  UNL1        0.0174
      5 C          -6.9845  -15.8777   25.5830 C.3     1  UNL1        0.0174
      6 C          -8.2561  -16.5001   25.0873 C.3     1  UNL1        0.0594
      7 C          -9.4738  -16.9768   24.3330 C.3     1  UNL1        0.0386
      8 N          -8.4767  -16.0423   23.6760 N.3     1  UNL1       -0.2750
      9 C         -10.2892  -15.1073   20.0463 C.3     1  UNL1        0.0738
     10 C         -11.0491  -16.2068   20.7275 C.ar    1  UNL1        0.1433
     11 N         -12.2771  -16.8878   20.2000 N.ar    1  UNL1       -0.1337
     12 N         -12.7013  -17.9201   21.2021 N.ar    1  UNL1       -0.1337
     13 C         -11.7355  -17.8771   22.3490 C.ar    1  UNL1        0.1425
     14 N         -10.7144  -16.8182   22.0557 N.ar    1  UNL1       -0.3039
     15 C         -11.7825  -18.7413   23.5742 C.3     1  UNL1        0.0588
     16 C         -12.7267  -18.4082   24.6911 C.3     1  UNL1        0.0080
     17 C         -10.8854  -19.9386   23.6825 C.3     1  UNL1        0.0080
     18 C          -9.6300  -16.4229   22.7957 C.3     1  UNL1        0.0741
     19 C          -9.7071  -17.8042   22.2159 C.3     1  UNL1        0.0419
     20 C          -8.6109  -18.3048   21.3227 C.3     1  UNL1        0.1014
     21 C          -8.9405  -19.1761   20.1470 C.ar    1  UNL1        0.0251
     22 C         -10.3063  -19.6676   19.7691 C.ar    1  UNL1        0.0043
     23 C         -10.1719  -20.5041   18.5313 C.ar    1  UNL1        0.0072
     24 C          -8.7229  -20.5296   18.1442 C.ar    1  UNL1        0.0352
     25 S          -7.9618  -19.7089   19.1428 S.2     1  UNL1       -0.0892
     26 N          -7.1851  -17.9342   21.6052 N.am    1  UNL1       -0.3017
     27 C          -6.2198  -18.9776   22.0843 C.2     1  UNL1        0.2222
     28 O          -6.6802  -20.3916   22.2809 O.2     1  UNL1       -0.2751
     29 H          -6.8829  -17.0062   21.4762 H       1  UNL1        0.1497
     30 C          -4.7940  -18.6069   22.3667 C.3     1  UNL1        0.0765
     31 C          -3.5807  -19.2313   21.7438 C.3     1  UNL1        0.0091
     32 C          -2.3680  -18.5571   22.3138 C.3     1  UNL1        0.0005
     33 C          -2.8318  -17.5160   23.2890 C.3     1  UNL1        0.0005
     34 C          -4.3312  -17.5468   23.3217 C.3     1  UNL1        0.0091
@<TRIPOS>BOND
     1     9    10    1
     2    10    11   ar
     3    11    12   ar
     4    12    13   ar
     5    13    15    1
     6    15    16    1
     7    15    17    1
     8    13    14   ar
     9     1    14    1
    10     1     2    1
    11     3     2    1
    12     3     4    1
    13     4     5    1
    14     6     5    1
    15     6     7    1
    16     6     8    1
    17     8    18    1
    18    18    19    1
    19    20    19    1
    20    20    26    1
    21    26    27   am
    22    27    28    2
    23    27    30    1
    24    30    31    1
    25    31    32    1
    26    32    33    1
    27    33    34    1
    28    20    21    1
    29    21    22   ar
    30    22    23   ar
    31    23    24   ar
    32    24    25   ar
    33    14    10   ar
    34     7     1    1
    35    34    30    1
    36    25    21   ar
    37     8     3    1
    38    26    29    1
@<TRIPOS>MOLECULE
*****
 34 38 0 0 0
SMALL
GASTEIGER

@<TRIPOS>ATOM
      1 C         -10.3542  -17.1520   22.5463 C.3     1  UNL1        0.0904
      2 C          -9.4313  -16.1216   21.9662 C.3     1  UNL1        0.0386
      3 C          -9.8043  -15.4083   20.7004 C.3     1  UNL1        0.0594
      4 C         -10.5549  -14.9704   19.4778 C.3     1  UNL1        0.0174
      5 C         -11.8359  -15.7484   19.4169 C.3     1  UNL1        0.0174
      6 C         -11.8770  -16.6671   20.6019 C.3     1  UNL1        0.0594
      7 C         -11.6501  -17.4691   21.8607 C.3     1  UNL1        0.0386
      8 N         -10.6214  -16.4570   21.3952 N.3     1  UNL1       -0.2750
      9 C         -11.3353  -20.1374   23.4261 C.3     1  UNL1        0.0738
     10 C         -10.4321  -19.2375   24.2165 C.ar    1  UNL1        0.1433
     11 N          -9.8214  -19.5519   25.5500 N.ar    1  UNL1       -0.1337
     12 N          -8.9930  -18.3740   25.9697 N.ar    1  UNL1       -0.1337
     13 C          -9.0917  -17.3316   24.8956 C.ar    1  UNL1        0.1425
     14 N          -9.9811  -17.8653   23.8121 N.ar    1  UNL1       -0.3039
     15 C          -8.4191  -15.9909   24.9037 C.3     1  UNL1        0.0588
     16 C          -7.0189  -15.8511   24.3841 C.3     1  UNL1        0.0080
     17 C          -9.1467  -14.7898   25.4312 C.3     1  UNL1        0.0080
     18 C         -10.2484  -17.1702   22.6609 C.3     1  UNL1        0.0741
     19 C          -9.5027  -18.4703   22.5974 C.3     1  UNL1        0.0419
     20 C          -8.4872  -18.7004   21.5178 C.3     1  UNL1        0.1014
     21 C          -8.8924  -19.3675   20.2369 C.ar    1  UNL1        0.0251
     22 C         -10.2932  -19.7148   19.8283 C.ar    1  UNL1        0.0043
     23 C         -10.2343  -20.3664   18.4785 C.ar    1  UNL1        0.0072
     24 C          -8.7970  -20.4219   18.0529 C.ar    1  UNL1        0.0352
     25 S          -7.9676  -19.8045   19.1396 S.2     1  UNL1       -0.0892
     26 N          -7.0664  -18.2634   21.7190 N.am    1  UNL1       -0.3017
     27 C          -6.0159  -19.2710   22.0808 C.2     1  UNL1        0.2222
     28 O          -6.3861  -20.7157   22.2416 O.2     1  UNL1       -0.2751
     29 H          -6.8234  -17.3152   21.6135 H       1  UNL1        0.1497
     30 C          -4.5951  -18.8340   22.2820 C.3     1  UNL1        0.0765
     31 C          -3.3879  -19.4268   21.6179 C.3     1  UNL1        0.0091
     32 C          -2.1788  -18.6866   22.1080 C.3     1  UNL1        0.0005
     33 C          -2.6388  -17.6363   23.0751 C.3     1  UNL1        0.0005
     34 C          -4.1322  -17.7274   23.1826 C.3     1  UNL1        0.0091
@<TRIPOS>BOND
     1     9    10    1
     2    10    11   ar
     3    11    12   ar
     4    12    13   ar
     5    13    15    1
     6    15    16    1
     7    15    17    1
     8    13    14   ar
     9     1    14    1
    10     1     2    1
    11     3     2    1
    12     3     4    1
    13     4     5    1
    14     6     5    1
    15     6     7    1
    16     6     8    1
    17     8    18    1
    18    18    19    1
    19    20    19    1
    20    20    26    1
    21    26    27   am
    22    27    28    2
    23    27    30    1
    24    30    31    1
    25    31    32    1
    26    32    33    1
    27    33    34    1
    28    20    21    1
    29    21    22   ar
    30    22    23   ar
    31    23    24   ar
    32    24    25   ar
    33    14    10   ar
    34     7     1    1
    35    34    30    1
    36    25    21   ar
    37     8     3    1
    38    26    29    1
@<TRIPOS>MOLECULE
*****
 34 38 0 0 0
SMALL
GASTEIGER

@<TRIPOS>ATOM
      1 C          -7.9697  -18.5049   21.7825 C.3     1  UNL1        0.0904
      2 C          -7.3624  -18.1822   20.4495 C.3     1  UNL1        0.0386
      3 C          -6.2116  -18.9941   19.9333 C.3     1  UNL1        0.0594
      4 C          -5.1286  -20.0263   19.8259 C.3     1  UNL1        0.0174
      5 C          -5.1655  -20.8677   21.0671 C.3     1  UNL1        0.0174
      6 C          -6.2713  -20.3556   21.9416 C.3     1  UNL1        0.0594
      7 C          -7.4263  -19.6396   22.5994 C.3     1  UNL1        0.0386
      8 N          -6.9179  -19.1976   21.2409 N.3     1  UNL1       -0.2750
      9 C          -8.3417  -15.2795   21.4540 C.3     1  UNL1        0.0738
     10 C          -9.2916  -16.2104   22.1478 C.ar    1  UNL1        0.1433
     11 N         -10.5791  -15.8223   22.8123 N.ar    1  UNL1       -0.1337
     12 N         -11.2038  -17.0649   23.3740 N.ar    1  UNL1       -0.1337
     13 C         -10.3024  -18.2210   23.0567 C.ar    1  UNL1        0.1425
     14 N          -9.1206  -17.6930   22.2988 N.ar    1  UNL1       -0.3039
     15 C         -10.5410  -19.6538   23.4314 C.3     1  UNL1        0.0588
     16 C         -11.0265  -20.6280   22.3994 C.3     1  UNL1        0.0080
     17 C         -10.2940  -20.1123   24.8381 C.3     1  UNL1        0.0080
     18 C          -8.0687  -18.3857   21.7571 C.3     1  UNL1        0.0741
     19 C          -8.0270  -17.8252   23.1478 C.3     1  UNL1        0.0419
     20 C          -6.8610  -16.9891   23.5848 C.3     1  UNL1        0.1014
     21 C          -6.9143  -16.2510   24.8896 C.ar    1  UNL1        0.0251
     22 C          -5.7815  -15.5012   25.5255 C.ar    1  UNL1        0.0043
     23 C          -6.2770  -14.9200   26.8165 C.ar    1  UNL1        0.0072
     24 C          -7.7161  -15.3107   26.9785 C.ar    1  UNL1        0.0352
     25 S          -8.1101  -16.1333   25.7876 S.2     1  UNL1       -0.0892
     26 N          -5.6413  -16.8909   22.7170 N.am    1  UNL1       -0.3017
     27 C          -4.3480  -17.5014   23.1692 C.2     1  UNL1        0.2222
     28 O          -4.2742  -18.2101   24.4892 O.2     1  UNL1       -0.2751
     29 H          -5.6897  -16.4257   21.8507 H       1  UNL1        0.1497
     30 C          -3.1284  -17.4032   22.3014 C.3     1  UNL1        0.0765
     31 C          -2.4004  -18.5529   21.6704 C.3     1  UNL1        0.0091
     32 C          -1.2448  -17.9982   20.8913 C.3     1  UNL1        0.0005
     33 C          -1.2586  -16.5058   21.0408 C.3     1  UNL1        0.0005
     34 C          -2.4228  -16.1380   21.9123 C.3     1  UNL1        0.0091
@<TRIPOS>BOND
     1     9    10    1
     2    10    11   ar
     3    11    12   ar
     4    12    13   ar
     5    13    15    1
     6    15    16    1
     7    15    17    1
     8    13    14   ar
     9     1    14    1
    10     1     2    1
    11     3     2    1
    12     3     4    1
    13     4     5    1
    14     6     5    1
    15     6     7    1
    16     6     8    1
    17     8    18    1
    18    18    19    1
    19    20    19    1
    20    20    26    1
    21    26    27   am
    22    27    28    2
    23    27    30    1
    24    30    31    1
    25    31    32    1
    26    32    33    1
    27    33    34    1
    28    20    21    1
    29    21    22   ar
    30    22    23   ar
    31    23    24   ar
    32    24    25   ar
    33    14    10   ar
    34     7     1    1
    35    34    30    1
    36    25    21   ar
    37     8     3    1
    38    26    29    1
@<TRIPOS>MOLECULE
*****
 34 38 0 0 0
SMALL
GASTEIGER

@<TRIPOS>ATOM
      1 C          -9.2368  -17.0566   23.9064 C.3     1  UNL1        0.0904
      2 C          -8.7090  -16.1269   22.8543 C.3     1  UNL1        0.0386
      3 C          -7.5021  -15.2823   23.1370 C.3     1  UNL1        0.0594
      4 C          -6.3272  -14.6601   23.8316 C.3     1  UNL1        0.0174
      5 C          -6.2398  -15.2461   25.2096 C.3     1  UNL1        0.0174
      6 C          -7.3607  -16.2304   25.3667 C.3     1  UNL1        0.0594
      7 C          -8.5577  -17.1418   25.2412 C.3     1  UNL1        0.0386
      8 N          -8.1408  -16.2528   24.0857 N.3     1  UNL1       -0.2750
      9 C          -9.7973  -20.0525   25.0728 C.3     1  UNL1        0.0738
     10 C         -10.7015  -19.2783   24.1599 C.ar    1  UNL1        0.1433
     11 N         -12.0220  -19.7452   23.6229 N.ar    1  UNL1       -0.1337
     12 N         -12.5804  -18.6568   22.7550 N.ar    1  UNL1       -0.1337
     13 C         -11.6051  -17.5172   22.7555 C.ar    1  UNL1        0.1425
     14 N         -10.4439  -17.9013   23.6238 N.ar    1  UNL1       -0.3039
     15 C         -11.7633  -16.2210   22.0174 C.3     1  UNL1        0.0588
     16 C         -11.1869  -16.0665   20.6412 C.3     1  UNL1        0.0080
     17 C         -12.4978  -15.0792   22.6554 C.3     1  UNL1        0.0080
     18 C          -9.3478  -17.0974   23.8031 C.3     1  UNL1        0.0741
     19 C          -9.1861  -18.4514   23.1781 C.3     1  UNL1        0.0419
     20 C          -8.2771  -18.6290   21.9983 C.3     1  UNL1        0.1014
     21 C          -8.8100  -19.2083   20.7214 C.ar    1  UNL1        0.0251
     22 C         -10.2487  -19.5092   20.4225 C.ar    1  UNL1        0.0043
     23 C         -10.3255  -20.0753   19.0355 C.ar    1  UNL1        0.0072
     24 C          -8.9341  -20.1243   18.4772 C.ar    1  UNL1        0.0352
     25 S          -7.9974  -19.5885   19.5191 S.2     1  UNL1       -0.0892
     26 N          -6.8350  -18.2274   22.0952 N.am    1  UNL1       -0.3017
     27 C          -5.7716  -19.2768   22.2286 C.2     1  UNL1        0.2222
     28 O          -6.1500  -20.7278   22.2650 O.2     1  UNL1       -0.2751
     29 H          -6.5866  -17.2751   22.0713 H       1  UNL1        0.1497
     30 C          -4.3296  -18.8751   22.3256 C.3     1  UNL1        0.0765
     31 C          -3.7825  -17.7444   23.1453 C.3     1  UNL1        0.0091
     32 C          -2.2963  -17.7041   22.9462 C.3     1  UNL1        0.0005
     33 C          -1.9249  -18.8100   22.0033 C.3     1  UNL1        0.0005
     34 C          -3.1816  -19.5337   21.6197 C.3     1  UNL1        0.0091
@<TRIPOS>BOND
     1     9    10    1
     2    10    11   ar
     3    11    12   ar
     4    12    13   ar
     5    13    15    1
     6    15    16    1
     7    15    17    1
     8    13    14   ar
     9     1    14    1
    10     1     2    1
    11     3     2    1
    12     3     4    1
    13     4     5    1
    14     6     5    1
    15     6     7    1
    16     6     8    1
    17     8    18    1
    18    18    19    1
    19    20    19    1
    20    20    26    1
    21    26    27   am
    22    27    28    2
    23    27    30    1
    24    30    31    1
    25    31    32    1
    26    32    33    1
    27    33    34    1
    28    20    21    1
    29    21    22   ar
    30    22    23   ar
    31    23    24   ar
    32    24    25   ar
    33    14    10   ar
    34     7     1    1
    35    34    30    1
    36    25    21   ar
    37     8     3    1
    38    26    29    1
@<TRIPOS>MOLECULE
*****
 34 38 0 0 0
SMALL
GASTEIGER

@<TRIPOS>ATOM
      1 C           4.3849   -1.0309   19.3147 C.3     1  UNL1        0.0904
      2 C           5.4273   -1.8354   18.5963 C.3     1  UNL1        0.0386
      3 C           5.2795   -3.3238   18.4827 C.3     1  UNL1        0.0594
      4 C           4.7407   -4.7178   18.6107 C.3     1  UNL1        0.0174
      5 C           3.4518   -4.6481   19.3747 C.3     1  UNL1        0.0174
      6 C           3.1939   -3.2111   19.7189 C.3     1  UNL1        0.0594
      7 C           3.1947   -1.7148   19.9195 C.3     1  UNL1        0.0386
      8 N           4.3236   -2.3926   19.1675 N.3     1  UNL1       -0.2750
      9 C           7.2009    0.6156   19.4072 C.3     1  UNL1        0.0738
     10 C           5.8270    1.2144   19.4708 C.ar    1  UNL1        0.1433
     11 N           5.5063    2.6750   19.5881 N.ar    1  UNL1       -0.1337
     12 N           4.0137    2.8208   19.6181 N.ar    1  UNL1       -0.1337
     13 C           3.4120    1.4504   19.5193 C.ar    1  UNL1        0.1425
     14 N           4.5326    0.4575   19.4283 N.ar    1  UNL1       -0.3039
     15 C           1.9468    1.1292   19.5127 C.3     1  UNL1        0.0588
     16 C           1.2781    0.7029   18.2395 C.3     1  UNL1        0.0080
     17 C           1.1501    1.2343   20.7794 C.3     1  UNL1        0.0080
     18 C           4.4714   -0.9042   19.2811 C.3     1  UNL1        0.0741
     19 C           4.2529   -0.2274   20.6018 C.3     1  UNL1        0.0419
     20 C           4.8998   -0.7731   21.8402 C.3     1  UNL1        0.1014
     21 C           4.3850   -0.3769   23.1922 C.ar    1  UNL1        0.0251
     22 C           2.9572   -0.4454   23.6469 C.ar    1  UNL1        0.0043
     23 C           2.8975    0.0466   25.0626 C.ar    1  UNL1        0.0072
     24 C           4.2883    0.4193   25.4829 C.ar    1  UNL1        0.0352
     25 S           5.2077    0.1576   24.3270 S.2     1  UNL1       -0.0892
     26 N           6.0617   -1.7152   21.7267 N.am    1  UNL1       -0.3017
     27 C           5.9327   -3.1273   22.2157 C.2     1  UNL1        0.2222
     28 O           4.6420   -3.5975   22.8183 O.2     1  UNL1       -0.2751
     29 H           6.9088   -1.4066   21.3312 H       1  UNL1        0.1497
     30 C           7.0945   -4.0693   22.1022 C.3     1  UNL1        0.0765
     31 C           7.8812   -4.3530   20.8570 C.3     1  UNL1        0.0091
     32 C           8.9465   -5.3520   21.1992 C.3     1  UNL1        0.0005
     33 C           8.8182   -5.6858   22.6560 C.3     1  UNL1        0.0005
     34 C           7.6736   -4.8930   23.2140 C.3     1  UNL1        0.0091
@<TRIPOS>BOND
     1     9    10    1
     2    10    11   ar
     3    11    12   ar
     4    12    13   ar
     5    13    15    1
     6    15    16    1
     7    15    17    1
     8    13    14   ar
     9     1    14    1
    10     1     2    1
    11     3     2    1
    12     3     4    1
    13     4     5    1
    14     6     5    1
    15     6     7    1
    16     6     8    1
    17     8    18    1
    18    18    19    1
    19    20    19    1
    20    20    26    1
    21    26    27   am
    22    27    28    2
    23    27    30    1
    24    30    31    1
    25    31    32    1
    26    32    33    1
    27    33    34    1
    28    20    21    1
    29    21    22   ar
    30    22    23   ar
    31    23    24   ar
    32    24    25   ar
    33    14    10   ar
    34     7     1    1
    35    34    30    1
    36    25    21   ar
    37     8     3    1
    38    26    29    1
@<TRIPOS>MOLECULE
*****
 34 38 0 0 0
SMALL
GASTEIGER

@<TRIPOS>ATOM
      1 C          -8.1769  -19.0337   21.9884 C.3     1  UNL1        0.0904
      2 C          -7.8511  -18.4271   20.6558 C.3     1  UNL1        0.0386
      3 C          -6.6707  -18.9232   19.8744 C.3     1  UNL1        0.0594
      4 C          -5.4537  -19.6999   19.4674 C.3     1  UNL1        0.0174
      5 C          -5.1484  -20.6867   20.5550 C.3     1  UNL1        0.0174
      6 C          -6.1767  -20.5199   21.6343 C.3     1  UNL1        0.0594
      7 C          -7.3223  -20.1363   22.5396 C.3     1  UNL1        0.0386
      8 N          -7.1175  -19.4299   21.2136 N.3     1  UNL1       -0.2750
      9 C          -9.5946  -20.5621   24.4991 C.3     1  UNL1        0.0738
     10 C         -10.0090  -19.2402   23.9238 C.ar    1  UNL1        0.1433
     11 N         -11.1477  -18.3887   24.4016 N.ar    1  UNL1       -0.1337
     12 N         -11.1998  -17.1600   23.5429 N.ar    1  UNL1       -0.1337
     13 C         -10.0934  -17.2520   22.5344 C.ar    1  UNL1        0.1425
     14 N          -9.3574  -18.5376   22.7698 N.ar    1  UNL1       -0.3039
     15 C          -9.7782  -16.2367   21.4762 C.3     1  UNL1        0.0588
     16 C          -8.6442  -15.2748   21.6737 C.3     1  UNL1        0.0080
     17 C         -10.5969  -16.1831   20.2204 C.3     1  UNL1        0.0080
     18 C          -8.2979  -18.9339   21.9950 C.3     1  UNL1        0.0741
     19 C          -8.1095  -18.4135   23.3892 C.3     1  UNL1        0.0419
     20 C          -7.0704  -17.3676   23.6652 C.3     1  UNL1        0.1014
     21 C          -7.2179  -16.4576   24.8485 C.ar    1  UNL1        0.0251
     22 C          -8.4192  -16.3602   25.7416 C.ar    1  UNL1        0.0043
     23 C          -8.1337  -15.3277   26.7914 C.ar    1  UNL1        0.0072
     24 C          -6.7560  -14.7869   26.5472 C.ar    1  UNL1        0.0352
     25 S          -6.1900  -15.4852   25.3464 S.2     1  UNL1       -0.0892
     26 N          -5.8836  -17.2316   22.7579 N.am    1  UNL1       -0.3017
     27 C          -4.5144  -17.5894   23.2552 C.2     1  UNL1        0.2222
     28 O          -4.3320  -18.0833   24.6598 O.2     1  UNL1       -0.2751
     29 H          -6.0033  -16.9074   21.8360 H       1  UNL1        0.1497
     30 C          -3.3277  -17.4533   22.3480 C.3     1  UNL1        0.0765
     31 C          -2.6252  -16.1743   22.0009 C.3     1  UNL1        0.0091
     32 C          -1.4984  -16.5029   21.0669 C.3     1  UNL1        0.0005
     33 C          -1.5044  -17.9851   20.8368 C.3     1  UNL1        0.0005
     34 C          -2.6350  -18.5725   21.6286 C.3     1  UNL1        0.0091
@<TRIPOS>BOND
     1     9    10    1
     2    10    11   ar
     3    11    12   ar
     4    12    13   ar
     5    13    15    1
     6    15    16    1
     7    15    17    1
     8    13    14   ar
     9     1    14    1
    10     1     2    1
    11     3     2    1
    12     3     4    1
    13     4     5    1
    14     6     5    1
    15     6     7    1
    16     6     8    1
    17     8    18    1
    18    18    19    1
    19    20    19    1
    20    20    26    1
    21    26    27   am
    22    27    28    2
    23    27    30    1
    24    30    31    1
    25    31    32    1
    26    32    33    1
    27    33    34    1
    28    20    21    1
    29    21    22   ar
    30    22    23   ar
    31    23    24   ar
    32    24    25   ar
    33    14    10   ar
    34     7     1    1
    35    34    30    1
    36    25    21   ar
    37     8     3    1
    38    26    29    1
@<TRIPOS>MOLECULE
*****
 34 38 0 0 0
SMALL
GASTEIGER

@<TRIPOS>ATOM
      1 C           3.3797   -0.6755   18.9149 C.3     1  UNL1        0.0904
      2 C           2.9924    0.6361   18.2986 C.3     1  UNL1        0.0386
      3 C           1.7125    1.3057   18.7028 C.3     1  UNL1        0.0594
      4 C           0.4050    1.5941   19.3792 C.3     1  UNL1        0.0174
      5 C           0.1134    0.4663   20.3241 C.3     1  UNL1        0.0174
      6 C           1.2405   -0.5191   20.2318 C.3     1  UNL1        0.0594
      7 C           2.4872   -1.3173   19.9354 C.3     1  UNL1        0.0386
      8 N           2.2288   -0.0003   19.2297 N.3     1  UNL1       -0.2750
      9 C           5.7302    0.6346   17.0687 C.3     1  UNL1        0.0738
     10 C           5.7401   -0.7430   17.6622 C.ar    1  UNL1        0.1433
     11 N           6.8321   -1.7603   17.5112 N.ar    1  UNL1       -0.1337
     12 N           6.4265   -2.9911   18.2665 N.ar    1  UNL1       -0.1337
     13 C           5.0840   -2.7346   18.8843 C.ar    1  UNL1        0.1425
     14 N           4.6597   -1.3452   18.5108 N.ar    1  UNL1       -0.3039
     15 C           4.3028   -3.6983   19.7275 C.3     1  UNL1        0.0588
     16 C           4.6186   -3.8451   21.1865 C.3     1  UNL1        0.0080
     17 C           3.2057   -4.5152   19.1118 C.3     1  UNL1        0.0080
     18 C           3.5088   -0.6700   18.8256 C.3     1  UNL1        0.0741
     19 C           4.6497   -0.7548   19.7957 C.3     1  UNL1        0.0419
     20 C           4.9465    0.3989   20.7071 C.3     1  UNL1        0.1014
     21 C           6.2580    1.1194   20.6023 C.ar    1  UNL1        0.0251
     22 C           6.4428    2.5704   20.2700 C.ar    1  UNL1        0.0043
     23 C           7.9140    2.8630   20.2738 C.ar    1  UNL1        0.0072
     24 C           8.6384    1.5929   20.6085 C.ar    1  UNL1        0.0352
     25 S           7.6149    0.5152   20.8115 S.2     1  UNL1       -0.0892
     26 N           3.9318    0.8323   21.7233 N.am    1  UNL1       -0.3017
     27 C           3.8224    0.1057   23.0310 C.2     1  UNL1        0.2222
     28 O           4.7276   -1.0543   23.3225 O.2     1  UNL1       -0.2751
     29 H           3.3377    1.5937   21.5321 H       1  UNL1        0.1497
     30 C           2.8078    0.5391   24.0472 C.3     1  UNL1        0.0765
     31 C           1.3846    0.9198   23.7653 C.3     1  UNL1        0.0091
     32 C           0.7355    1.2839   25.0677 C.3     1  UNL1        0.0005
     33 C           1.7575    1.1283   26.1545 C.3     1  UNL1        0.0005
     34 C           3.0383    0.6679   25.5238 C.3     1  UNL1        0.0091
@<TRIPOS>BOND
     1     9    10    1
     2    10    11   ar
     3    11    12   ar
     4    12    13   ar
     5    13    15    1
     6    15    16    1
     7    15    17    1
     8    13    14   ar
     9     1    14    1
    10     1     2    1
    11     3     2    1
    12     3     4    1
    13     4     5    1
    14     6     5    1
    15     6     7    1
    16     6     8    1
    17     8    18    1
    18    18    19    1
    19    20    19    1
    20    20    26    1
    21    26    27   am
    22    27    28    2
    23    27    30    1
    24    30    31    1
    25    31    32    1
    26    32    33    1
    27    33    34    1
    28    20    21    1
    29    21    22   ar
    30    22    23   ar
    31    23    24   ar
    32    24    25   ar
    33    14    10   ar
    34     7     1    1
    35    34    30    1
    36    25    21   ar
    37     8     3    1
    38    26    29    1
@<TRIPOS>MOLECULE
*****
 34 38 0 0 0
SMALL
GASTEIGER

@<TRIPOS>ATOM
      1 C           3.8960   -1.2358   18.7833 C.3     1  UNL1        0.0904
      2 C           5.0535   -1.9674   18.1710 C.3     1  UNL1        0.0386
      3 C           5.1653   -3.4555   18.3231 C.3     1  UNL1        0.0594
      4 C           4.8786   -4.8751   18.7133 C.3     1  UNL1        0.0174
      5 C           3.6066   -4.8895   19.5082 C.3     1  UNL1        0.0174
      6 C           3.1072   -3.4787   19.6092 C.3     1  UNL1        0.0594
      7 C           2.8503   -1.9923   19.5478 C.3     1  UNL1        0.0386
      8 N           4.0705   -2.5924   18.8768 N.3     1  UNL1       -0.2750
      9 C           1.1451    0.5100   18.9695 C.3     1  UNL1        0.0738
     10 C           2.5197    1.0548   18.7168 C.ar    1  UNL1        0.1433
     11 N           2.8712    2.4976   18.5054 N.ar    1  UNL1       -0.1337
     12 N           4.3528    2.5869   18.2892 N.ar    1  UNL1       -0.1337
     13 C           4.9171    1.1993   18.3670 C.ar    1  UNL1        0.1425
     14 N           3.7842    0.2524   18.6313 N.ar    1  UNL1       -0.3039
     15 C           6.3608    0.8243   18.2083 C.3     1  UNL1        0.0588
     16 C           6.9089    0.5099   16.8479 C.3     1  UNL1        0.0080
     17 C           7.2565    0.7638   19.4101 C.3     1  UNL1        0.0080
     18 C           3.9587   -1.1043   18.7247 C.3     1  UNL1        0.0741
     19 C           3.7482   -0.2406   19.9329 C.3     1  UNL1        0.0419
     20 C           4.4492   -0.5656   21.2184 C.3     1  UNL1        0.1014
     21 C           3.9418   -0.0023   22.5127 C.ar    1  UNL1        0.0251
     22 C           2.5092    0.0374   22.9556 C.ar    1  UNL1        0.0043
     23 C           2.4600    0.6845   24.3080 C.ar    1  UNL1        0.0072
     24 C           3.8621    1.0446   24.7009 C.ar    1  UNL1        0.0352
     25 S           4.7779    0.6202   23.5914 S.2     1  UNL1       -0.0892
     26 N           5.6579   -1.4540   21.2099 N.am    1  UNL1       -0.3017
     27 C           5.6447   -2.7458   21.9722 C.2     1  UNL1        0.2222
     28 O           4.4228   -3.1492   22.7431 O.2     1  UNL1       -0.2751
     29 H           6.4599   -1.1892   20.7039 H       1  UNL1        0.1497
     30 C           6.8533   -3.6341   21.9636 C.3     1  UNL1        0.0765
     31 C           7.7995   -3.8245   20.8154 C.3     1  UNL1        0.0091
     32 C           8.8589   -4.7961   21.2439 C.3     1  UNL1        0.0005
     33 C           8.5675   -5.2062   22.6570 C.3     1  UNL1        0.0005
     34 C           7.3280   -4.4880   23.1018 C.3     1  UNL1        0.0091
@<TRIPOS>BOND
     1     9    10    1
     2    10    11   ar
     3    11    12   ar
     4    12    13   ar
     5    13    15    1
     6    15    16    1
     7    15    17    1
     8    13    14   ar
     9     1    14    1
    10     1     2    1
    11     3     2    1
    12     3     4    1
    13     4     5    1
    14     6     5    1
    15     6     7    1
    16     6     8    1
    17     8    18    1
    18    18    19    1
    19    20    19    1
    20    20    26    1
    21    26    27   am
    22    27    28    2
    23    27    30    1
    24    30    31    1
    25    31    32    1
    26    32    33    1
    27    33    34    1
    28    20    21    1
    29    21    22   ar
    30    22    23   ar
    31    23    24   ar
    32    24    25   ar
    33    14    10   ar
    34     7     1    1
    35    34    30    1
    36    25    21   ar
    37     8     3    1
    38    26    29    1
