@<TRIPOS>MOLECULE
*****
 32 36 0 0 0
SMALL
GASTEIGER

@<TRIPOS>ATOM
      1 C          -4.2749  -16.7568   23.1124 C.ar    1  UNL1        0.1215
      2 N          -3.1208  -15.9300   22.6282 N.ar    1  UNL1       -0.2309
      3 C          -2.3467  -16.7492   21.6385 C.ar    1  UNL1        0.0983
      4 C          -1.1138  -16.4535   20.8368 C.ar    1  UNL1        0.0206
      5 C          -0.5566  -17.4909   19.9078 C.ar    1  UNL1        0.0016
      6 C          -1.2322  -18.8241   19.7804 C.ar    1  UNL1        0.0016
      7 C          -2.4650  -19.1198   20.5820 C.ar    1  UNL1        0.0188
      8 C          -3.0222  -18.0824   21.5111 C.ar    1  UNL1        0.0789
      9 N          -4.2139  -18.0871   22.4220 N.ar    1  UNL1       -0.3106
     10 N          -7.7893  -15.8544   24.7200 N.3     1  UNL1       -0.2646
     11 C          -7.3754  -15.4721   26.1101 C.3     1  UNL1        0.0725
     12 C          -5.9280  -15.5180   26.5010 C.3     1  UNL1        0.0178
     13 C          -4.8945  -15.9463   25.5018 C.3     1  UNL1        0.0103
     14 C          -5.3084  -16.3286   24.1117 C.3     1  UNL1        0.0729
     15 C          -6.7558  -16.2826   23.7208 C.3     1  UNL1        0.0800
     16 C          -9.2368  -15.8085   24.3290 C.3     1  UNL1        0.1587
     17 O         -10.0229  -18.2110   24.9288 O.2     1  UNL1       -0.2734
     18 C          -9.9531  -17.0722   23.9550 C.2     1  UNL1        0.2422
     19 N         -10.5997  -17.1971   22.6073 N.am    1  UNL1       -0.2733
     20 C         -11.3160  -18.4608   22.2333 C.3     1  UNL1        0.1255
     21 C         -11.9626  -18.5856   20.8856 C.3     1  UNL1        0.1636
     22 O         -11.8928  -17.4467   19.9119 O.3     1  UNL1       -0.3501
     23 C         -11.1765  -16.1830   20.2859 C.3     1  UNL1        0.1636
     24 C         -10.5300  -16.0582   21.6336 C.3     1  UNL1        0.1255
     25 C          -5.1758  -19.2227   22.6096 C.3     1  UNL1        0.1339
     26 C          -6.1408  -19.5765   21.5172 C.ar    1  UNL1        0.0006
     27 C          -5.8392  -20.7167   20.5903 C.ar    1  UNL1       -0.0001
     28 C          -6.8042  -21.0706   19.4978 C.ar    1  UNL1        0.0294
     29 C          -8.0708  -20.2843   19.3321 C.ar    1  UNL1        0.1401
     30 F          -9.0357  -20.6382   18.2396 F       1  UNL1       -0.2042
     31 C          -8.3723  -19.1441   20.2590 C.ar    1  UNL1        0.0294
     32 C          -7.4074  -18.7902   21.3515 C.ar    1  UNL1       -0.0001
@<TRIPOS>BOND
     1    17    18    2
     2    18    16    1
     3    16    10    1
     4    10    11    1
     5    11    12    1
     6    12    13    1
     7    13    14    1
     8    14     1    1
     9     1     2   ar
    10     2     3   ar
    11     3     4   ar
    12     4     5   ar
    13     5     6   ar
    14     6     7   ar
    15     7     8   ar
    16     8     9   ar
    17     9    25    1
    18    25    26    1
    19    26    27   ar
    20    27    28   ar
    21    28    29   ar
    22    29    30    1
    23    29    31   ar
    24    31    32   ar
    25    14    15    1
    26    18    19   am
    27    19    20    1
    28    20    21    1
    29    21    22    1
    30    22    23    1
    31    23    24    1
    32    15    10    1
    33    24    19    1
    34     9     1   ar
    35    32    26   ar
    36     8     3   ar
@<TRIPOS>MOLECULE
*****
 32 36 0 0 0
SMALL
GASTEIGER

@<TRIPOS>ATOM
      1 C          -4.0836  -16.7177   22.9893 C.ar    1  UNL1        0.1215
      2 N          -2.9426  -15.8804   22.4922 N.ar    1  UNL1       -0.2309
      3 C          -2.1391  -16.7119   21.5368 C.ar    1  UNL1        0.0983
      4 C          -0.9040  -16.4133   20.7398 C.ar    1  UNL1        0.0206
      5 C          -0.3132  -17.4659   19.8495 C.ar    1  UNL1        0.0016
      6 C          -0.9576  -18.8173   19.7560 C.ar    1  UNL1        0.0016
      7 C          -2.1927  -19.1159   20.5530 C.ar    1  UNL1        0.0188
      8 C          -2.7835  -18.0633   21.4434 C.ar    1  UNL1        0.0789
      9 N          -3.9852  -18.0668   22.3411 N.ar    1  UNL1       -0.3106
     10 N          -7.6140  -15.6945   24.4856 N.3     1  UNL1       -0.2646
     11 C          -7.2462  -15.4117   25.9120 C.3     1  UNL1        0.0725
     12 C          -5.8242  -15.5643   26.3642 C.3     1  UNL1        0.0178
     13 C          -4.7700  -15.9996   25.3900 C.3     1  UNL1        0.0103
     14 C          -5.1378  -16.2824   23.9635 C.3     1  UNL1        0.0729
     15 C          -6.5598  -16.1298   23.5114 C.3     1  UNL1        0.0800
     16 C          -9.0361  -15.5420   24.0333 C.3     1  UNL1        0.1587
     17 O          -9.7113  -15.8947   21.5495 O.2     1  UNL1       -0.2734
     18 C          -9.5762  -16.4236   22.9466 C.2     1  UNL1        0.2422
     19 N          -9.9812  -17.8342   23.2570 N.am    1  UNL1       -0.2733
     20 C         -10.5213  -18.7158   22.1703 C.3     1  UNL1        0.1255
     21 C         -10.9263  -20.1263   22.4807 C.3     1  UNL1        0.1636
     22 O         -10.7912  -20.6552   23.8778 O.3     1  UNL1       -0.3501
     23 C         -10.2511  -19.7736   24.9646 C.3     1  UNL1        0.1636
     24 C          -9.8461  -18.3631   24.6541 C.3     1  UNL1        0.1255
     25 C          -4.9238  -19.2175   22.5533 C.3     1  UNL1        0.1339
     26 C          -5.8821  -19.6134   21.4695 C.ar    1  UNL1        0.0006
     27 C          -7.0599  -18.7398   21.1538 C.ar    1  UNL1       -0.0001
     28 C          -8.0184  -19.1357   20.0699 C.ar    1  UNL1        0.0294
     29 C          -7.7989  -20.4052   19.3017 C.ar    1  UNL1        0.1401
     30 F          -8.7573  -20.8011   18.2179 F       1  UNL1       -0.2042
     31 C          -6.6211  -21.2788   19.6173 C.ar    1  UNL1        0.0294
     32 C          -5.6627  -20.8829   20.7012 C.ar    1  UNL1       -0.0001
@<TRIPOS>BOND
     1    17    18    2
     2    18    16    1
     3    16    10    1
     4    10    11    1
     5    11    12    1
     6    12    13    1
     7    13    14    1
     8    14     1    1
     9     1     2   ar
    10     2     3   ar
    11     3     4   ar
    12     4     5   ar
    13     5     6   ar
    14     6     7   ar
    15     7     8   ar
    16     8     9   ar
    17     9    25    1
    18    25    26    1
    19    26    27   ar
    20    27    28   ar
    21    28    29   ar
    22    29    30    1
    23    29    31   ar
    24    31    32   ar
    25    14    15    1
    26    18    19   am
    27    19    20    1
    28    20    21    1
    29    21    22    1
    30    22    23    1
    31    23    24    1
    32    15    10    1
    33    24    19    1
    34     9     1   ar
    35    32    26   ar
    36     8     3   ar
@<TRIPOS>MOLECULE
*****
 32 36 0 0 0
SMALL
GASTEIGER

@<TRIPOS>ATOM
      1 C           1.8821    4.2949   34.5181 C.ar    1  UNL1        0.1215
      2 N           0.9206    4.8954   33.5358 N.ar    1  UNL1       -0.2309
      3 C          -0.0084    5.7998   34.2900 C.ar    1  UNL1        0.0983
      4 C          -1.1570    6.6557   33.8450 C.ar    1  UNL1        0.0206
      5 C          -1.9183    7.4702   34.8486 C.ar    1  UNL1        0.0016
      6 C          -1.5310    7.4286   36.2971 C.ar    1  UNL1        0.0016
      7 C          -0.3824    6.5726   36.7421 C.ar    1  UNL1        0.0188
      8 C           0.3788    5.7582   35.7386 C.ar    1  UNL1        0.0789
      9 N           1.5472    4.8281   35.8795 N.ar    1  UNL1       -0.3106
     10 N           3.7738    1.0718   33.1828 N.3     1  UNL1       -0.2646
     11 C           5.1901    1.4016   33.5507 C.3     1  UNL1        0.0725
     12 C           5.5037    2.6958   34.2410 C.3     1  UNL1        0.0178
     13 C           4.4010    3.6602   34.5635 C.3     1  UNL1        0.0103
     14 C           2.9847    3.3304   34.1956 C.3     1  UNL1        0.0729
     15 C           2.6711    2.0362   33.5053 C.3     1  UNL1        0.0800
     16 C           3.4602   -0.2225   32.4924 C.3     1  UNL1        0.1587
     17 O           3.8430   -2.1897   34.1457 O.2     1  UNL1       -0.2734
     18 C           4.1937   -1.4736   32.8751 C.2     1  UNL1        0.2422
     19 N           5.2779   -2.0088   31.9873 N.am    1  UNL1       -0.2733
     20 C           6.0114   -3.2599   32.3700 C.3     1  UNL1        0.1255
     21 C           7.0955   -3.7950   31.4822 C.3     1  UNL1        0.1636
     22 O           7.4462   -3.0789   30.2117 O.3     1  UNL1       -0.3501
     23 C           6.7127   -1.8278   29.8290 C.3     1  UNL1        0.1636
     24 C           5.6285   -1.2927   30.7168 C.3     1  UNL1        0.1255
     25 C           2.2563    4.4906   37.1575 C.3     1  UNL1        0.1339
     26 C           1.9716    3.1925   37.8529 C.ar    1  UNL1        0.0006
     27 C           2.9306    2.0463   37.7237 C.ar    1  UNL1       -0.0001
     28 C           2.6459    0.7481   38.4191 C.ar    1  UNL1        0.0294
     29 C           1.4022    0.5960   39.2439 C.ar    1  UNL1        0.1401
     30 F           1.1176   -0.7022   39.9393 F       1  UNL1       -0.2042
     31 C           0.4433    1.7422   39.3732 C.ar    1  UNL1        0.0294
     32 C           0.7280    3.0404   38.6777 C.ar    1  UNL1       -0.0001
@<TRIPOS>BOND
     1    17    18    2
     2    18    16    1
     3    16    10    1
     4    10    11    1
     5    11    12    1
     6    12    13    1
     7    13    14    1
     8    14     1    1
     9     1     2   ar
    10     2     3   ar
    11     3     4   ar
    12     4     5   ar
    13     5     6   ar
    14     6     7   ar
    15     7     8   ar
    16     8     9   ar
    17     9    25    1
    18    25    26    1
    19    26    27   ar
    20    27    28   ar
    21    28    29   ar
    22    29    30    1
    23    29    31   ar
    24    31    32   ar
    25    14    15    1
    26    18    19   am
    27    19    20    1
    28    20    21    1
    29    21    22    1
    30    22    23    1
    31    23    24    1
    32    15    10    1
    33    24    19    1
    34     9     1   ar
    35    32    26   ar
    36     8     3   ar
@<TRIPOS>MOLECULE
*****
 32 36 0 0 0
SMALL
GASTEIGER

@<TRIPOS>ATOM
      1 C         -13.2161   -3.9764   18.6868 C.ar    1  UNL1        0.1215
      2 N         -11.8323   -3.8041   19.2393 N.ar    1  UNL1       -0.2309
      3 C         -11.0636   -5.0627   18.9651 C.ar    1  UNL1        0.0983
      4 C          -9.6536   -5.4663   19.2795 C.ar    1  UNL1        0.0206
      5 C          -9.1524   -6.8200   18.8720 C.ar    1  UNL1        0.0016
      6 C         -10.0612   -7.7702   18.1499 C.ar    1  UNL1        0.0016
      7 C         -11.4712   -7.3666   17.8355 C.ar    1  UNL1        0.0188
      8 C         -11.9724   -6.0129   18.2431 C.ar    1  UNL1        0.0789
      9 N         -13.3027   -5.3415   18.0711 N.ar    1  UNL1       -0.3106
     10 N         -16.8462   -2.3754   18.5914 N.3     1  UNL1       -0.2646
     11 C         -16.5266   -0.9326   18.8481 C.3     1  UNL1        0.0725
     12 C         -15.1034   -0.5043   19.0509 C.3     1  UNL1        0.0178
     13 C         -13.9999   -1.5189   18.9972 C.3     1  UNL1        0.0103
     14 C         -14.3196   -2.9618   18.7405 C.3     1  UNL1        0.0729
     15 C         -15.7428   -3.3900   18.5376 C.3     1  UNL1        0.0800
     16 C         -18.2694   -2.8037   18.3885 C.3     1  UNL1        0.1587
     17 O         -19.3053   -3.4562   20.6800 O.2     1  UNL1       -0.2734
     18 C         -18.8788   -3.8340   19.2925 C.2     1  UNL1        0.2422
     19 N         -19.0616   -5.2422   18.8090 N.am    1  UNL1       -0.2733
     20 C         -19.6709   -6.2724   19.7130 C.3     1  UNL1        0.1255
     21 C         -19.8536   -7.6805   19.2294 C.3     1  UNL1        0.1636
     22 O         -19.4271   -8.0583   17.8419 O.3     1  UNL1       -0.3501
     23 C         -18.8177   -7.0281   16.9379 C.3     1  UNL1        0.1636
     24 C         -18.6350   -5.6200   17.4214 C.3     1  UNL1        0.1255
     25 C         -14.5080   -5.9316   17.4010 C.3     1  UNL1        0.1339
     26 C         -15.1758   -7.1399   17.9874 C.ar    1  UNL1        0.0006
     27 C         -15.2390   -8.4169   17.2027 C.ar    1  UNL1       -0.0001
     28 C         -15.9067   -9.6253   17.7890 C.ar    1  UNL1        0.0294
     29 C         -16.5114   -9.5568   19.1601 C.ar    1  UNL1        0.1401
     30 F         -17.1792  -10.7652   19.7464 F       1  UNL1       -0.2042
     31 C         -16.4483   -8.2800   19.9447 C.ar    1  UNL1        0.0294
     32 C         -15.7805   -7.0716   19.3584 C.ar    1  UNL1       -0.0001
@<TRIPOS>BOND
     1    17    18    2
     2    18    16    1
     3    16    10    1
     4    10    11    1
     5    11    12    1
     6    12    13    1
     7    13    14    1
     8    14     1    1
     9     1     2   ar
    10     2     3   ar
    11     3     4   ar
    12     4     5   ar
    13     5     6   ar
    14     6     7   ar
    15     7     8   ar
    16     8     9   ar
    17     9    25    1
    18    25    26    1
    19    26    27   ar
    20    27    28   ar
    21    28    29   ar
    22    29    30    1
    23    29    31   ar
    24    31    32   ar
    25    14    15    1
    26    18    19   am
    27    19    20    1
    28    20    21    1
    29    21    22    1
    30    22    23    1
    31    23    24    1
    32    15    10    1
    33    24    19    1
    34     9     1   ar
    35    32    26   ar
    36     8     3   ar
