@<TRIPOS>MOLECULE
*****
 28 30 0 0 0
SMALL
GASTEIGER

@<TRIPOS>ATOM
      1 N          -8.2218  -17.1895   22.6500 N.pl3   1  UNL1       -0.3035
      2 C          -4.2776  -20.1779   20.8079 C.2     1  UNL1        0.4050
      3 O          -4.0697  -21.2214   19.7506 O.2     1  UNL1       -0.2262
      4 N          -5.6318  -19.5611   20.9969 N.am    1  UNL1       -0.2443
      5 C          -6.8662  -19.8852   20.2086 C.3     1  UNL1        0.0986
      6 C          -7.9866  -19.0363   20.7319 C.3     1  UNL1        0.0431
      7 C          -7.4448  -18.1875   21.8437 C.3     1  UNL1        0.0947
      8 C          -5.9895  -18.5118   22.0074 C.3     1  UNL1        0.1164
      9 C          -2.0962  -18.8067   21.1411 C.3     1  UNL1        0.2573
     10 O          -3.1313  -19.7512   21.6762 O.3     1  UNL1       -0.4304
     11 C          -9.6328  -17.4920   23.0599 C.ar    1  UNL1        0.0490
     12 C          -9.9098  -18.5977   24.0349 C.ar    1  UNL1        0.0153
     13 C         -11.3206  -18.9002   24.4448 C.ar    1  UNL1        0.0124
     14 C         -12.4544  -18.0970   23.8797 C.ar    1  UNL1        0.0791
     15 C         -12.1773  -16.9913   22.9047 C.ar    1  UNL1        0.0685
     16 CL        -13.3112  -16.1880   22.3396 Cl      1  UNL1       -0.0815
     17 C         -10.7665  -16.6888   22.4948 C.ar    1  UNL1        0.0266
     18 C         -13.8653  -18.3995   24.2896 C.1     1  UNL1        0.1013
     19 N         -15.2761  -18.7019   24.6995 N.1     1  UNL1       -0.1908
     20 C          -7.5881  -15.8891   23.0466 C.3     1  UNL1        0.1175
     21 C          -7.2067  -15.6460   24.4768 C.ar    1  UNL1       -0.0041
     22 C          -8.2723  -15.4570   25.5154 C.ar    1  UNL1        0.0267
     23 C          -7.8910  -15.2139   26.9456 C.ar    1  UNL1        0.1399
     24 F          -8.9566  -15.0249   27.9842 F       1  UNL1       -0.2042
     25 C          -6.4440  -15.1598   27.3371 C.ar    1  UNL1        0.0293
     26 C          -5.3784  -15.3488   26.2985 C.ar    1  UNL1       -0.0022
     27 C          -5.7597  -15.5919   24.8684 C.ar    1  UNL1       -0.0241
     28 C          -4.6941  -15.7809   23.8297 C.3     1  UNL1        0.0308
@<TRIPOS>BOND
     1     9    10    1
     2    10     2    1
     3     2     3    2
     4     2     4   am
     5     4     5    1
     6     5     6    1
     7     6     7    1
     8     7     1    1
     9     1    20    1
    10    20    21    1
    11    21    22   ar
    12    22    23   ar
    13    23    24    1
    14    23    25   ar
    15    25    26   ar
    16    26    27   ar
    17    27    28    1
    18     1    11    1
    19    11    12   ar
    20    12    13   ar
    21    13    14   ar
    22    14    18    1
    23    18    19    3
    24    14    15   ar
    25    15    16    1
    26    15    17   ar
    27     7     8    1
    28     8     4    1
    29    27    21   ar
    30    17    11   ar
@<TRIPOS>MOLECULE
*****
 28 30 0 0 0
SMALL
GASTEIGER

@<TRIPOS>ATOM
      1 N          -7.9855  -18.9488   21.7527 N.pl3   1  UNL1       -0.3035
      2 C          -2.7432  -19.5306   21.5079 C.2     1  UNL1        0.4050
      3 O          -1.7488  -20.3756   20.7683 O.2     1  UNL1       -0.2262
      4 N          -4.2114  -19.7069   21.2563 N.am    1  UNL1       -0.2443
      5 C          -4.8312  -20.6824   20.3000 C.3     1  UNL1        0.0986
      6 C          -6.3204  -20.5171   20.3696 C.3     1  UNL1        0.0431
      7 C          -6.6211  -19.4395   21.3689 C.3     1  UNL1        0.0947
      8 C          -5.3176  -18.9389   21.9169 C.3     1  UNL1        0.1164
      9 C          -2.1652  -17.0675   22.0985 C.3     1  UNL1        0.2573
     10 O          -2.2695  -18.5093   22.4990 O.3     1  UNL1       -0.4304
     11 C          -8.1589  -18.0916   22.9714 C.ar    1  UNL1        0.0490
     12 C          -8.9024  -18.6216   24.1615 C.ar    1  UNL1        0.0153
     13 C          -9.0758  -17.7645   25.3802 C.ar    1  UNL1        0.0124
     14 C          -8.5057  -16.3774   25.4088 C.ar    1  UNL1        0.0791
     15 C          -7.7623  -15.8474   24.2187 C.ar    1  UNL1        0.0685
     16 CL         -7.1923  -14.4601   24.2473 Cl      1  UNL1       -0.0815
     17 C          -7.5889  -16.7045   23.0000 C.ar    1  UNL1        0.0266
     18 C          -8.6791  -15.5202   26.6275 C.1     1  UNL1        0.1013
     19 N          -8.8526  -14.6630   27.8462 N.1     1  UNL1       -0.1908
     20 C          -9.1767  -19.3153   20.9179 C.3     1  UNL1        0.1175
     21 C         -10.3776  -18.4169   20.8894 C.ar    1  UNL1       -0.0041
     22 C         -10.4338  -17.2703   19.9240 C.ar    1  UNL1        0.0267
     23 C         -11.6347  -16.3719   19.8956 C.ar    1  UNL1        0.1399
     24 F         -11.6909  -15.2253   18.9301 F       1  UNL1       -0.2042
     25 C         -12.7794  -16.6202   20.8326 C.ar    1  UNL1        0.0293
     26 C         -12.7232  -17.7668   21.7981 C.ar    1  UNL1       -0.0022
     27 C         -11.5223  -18.6651   21.8265 C.ar    1  UNL1       -0.0241
     28 C         -11.4661  -19.8118   22.7919 C.3     1  UNL1        0.0308
@<TRIPOS>BOND
     1     9    10    1
     2    10     2    1
     3     2     3    2
     4     2     4   am
     5     4     5    1
     6     5     6    1
     7     6     7    1
     8     7     1    1
     9     1    20    1
    10    20    21    1
    11    21    22   ar
    12    22    23   ar
    13    23    24    1
    14    23    25   ar
    15    25    26   ar
    16    26    27   ar
    17    27    28    1
    18     1    11    1
    19    11    12   ar
    20    12    13   ar
    21    13    14   ar
    22    14    18    1
    23    18    19    3
    24    14    15   ar
    25    15    16    1
    26    15    17   ar
    27     7     8    1
    28     8     4    1
    29    27    21   ar
    30    17    11   ar
@<TRIPOS>MOLECULE
*****
 28 30 0 0 0
SMALL
GASTEIGER

@<TRIPOS>ATOM
      1 N          -7.6738  -18.5349   21.8385 N.pl3   1  UNL1       -0.3035
      2 C          -7.6951  -15.3447   26.0460 C.2     1  UNL1        0.4050
      3 O          -8.5193  -15.1348   27.2816 O.2     1  UNL1       -0.2262
      4 N          -8.0679  -16.4207   25.0696 N.am    1  UNL1       -0.2443
      5 C          -9.2310  -17.3598   25.1940 C.3     1  UNL1        0.0986
      6 C          -9.2249  -18.2660   23.9988 C.3     1  UNL1        0.0431
      7 C          -8.0581  -17.8871   23.1357 C.3     1  UNL1        0.0947
      8 C          -7.3430  -16.7467   23.7975 C.3     1  UNL1        0.1164
      9 C          -5.1168  -15.0429   25.9392 C.3     1  UNL1        0.2573
     10 O          -6.4983  -14.4786   25.7867 O.3     1  UNL1       -0.4304
     11 C          -6.2292  -18.6265   21.4450 C.ar    1  UNL1        0.0490
     12 C          -5.8561  -19.0427   20.0530 C.ar    1  UNL1        0.0153
     13 C          -4.4116  -19.1343   19.6594 C.ar    1  UNL1        0.0124
     14 C          -3.3402  -18.8098   20.6578 C.ar    1  UNL1        0.0791
     15 C          -3.7133  -18.3937   22.0498 C.ar    1  UNL1        0.0685
     16 CL         -2.6419  -18.0691   23.0482 Cl      1  UNL1       -0.0815
     17 C          -5.1578  -18.3020   22.4434 C.ar    1  UNL1        0.0266
     18 C          -1.8956  -18.9014   20.2642 C.1     1  UNL1        0.1013
     19 N          -0.4511  -18.9931   19.8707 N.1     1  UNL1       -0.1908
     20 C          -8.7340  -19.0911   20.9349 C.3     1  UNL1        0.1175
     21 C         -10.0685  -18.4128   20.8381 C.ar    1  UNL1       -0.0041
     22 C         -10.2109  -17.1476   20.0451 C.ar    1  UNL1        0.0267
     23 C         -11.5453  -16.4694   19.9484 C.ar    1  UNL1        0.1399
     24 F         -11.6879  -15.2041   19.1553 F       1  UNL1       -0.2042
     25 C         -12.7372  -17.0563   20.6447 C.ar    1  UNL1        0.0293
     26 C         -12.5947  -18.3215   21.4377 C.ar    1  UNL1       -0.0022
     27 C         -11.2604  -18.9997   21.5345 C.ar    1  UNL1       -0.0241
     28 C         -11.1178  -20.2650   22.3275 C.3     1  UNL1        0.0308
@<TRIPOS>BOND
     1     9    10    1
     2    10     2    1
     3     2     3    2
     4     2     4   am
     5     4     5    1
     6     5     6    1
     7     6     7    1
     8     7     1    1
     9     1    20    1
    10    20    21    1
    11    21    22   ar
    12    22    23   ar
    13    23    24    1
    14    23    25   ar
    15    25    26   ar
    16    26    27   ar
    17    27    28    1
    18     1    11    1
    19    11    12   ar
    20    12    13   ar
    21    13    14   ar
    22    14    18    1
    23    18    19    3
    24    14    15   ar
    25    15    16    1
    26    15    17   ar
    27     7     8    1
    28     8     4    1
    29    27    21   ar
    30    17    11   ar
@<TRIPOS>MOLECULE
*****
 28 30 0 0 0
SMALL
GASTEIGER

@<TRIPOS>ATOM
      1 N         -14.7580   -5.2481   19.0778 N.pl3   1  UNL1       -0.3035
      2 C         -17.8911   -9.4908   18.8259 C.2     1  UNL1        0.4050
      3 O         -18.0753  -10.6897   17.9435 O.2     1  UNL1       -0.2262
      4 N         -16.8242   -8.4846   18.5110 N.am    1  UNL1       -0.2443
      5 C         -15.8708   -8.5431   17.3544 C.3     1  UNL1        0.0986
      6 C         -14.9807   -7.3378   17.4260 C.3     1  UNL1        0.0431
      7 C         -15.3840   -6.5344   18.6268 C.3     1  UNL1        0.0947
      8 C         -16.5233   -7.2431   19.2973 C.3     1  UNL1        0.1164
      9 C         -20.1821   -8.8130   19.8465 C.3     1  UNL1        0.2573
     10 O         -18.7738   -9.2982   20.0233 O.3     1  UNL1       -0.4304
     11 C         -15.3827   -3.9374   18.7012 C.ar    1  UNL1        0.0490
     12 C         -15.9080   -3.7287   17.3118 C.ar    1  UNL1        0.0153
     13 C         -16.5327   -2.4180   16.9351 C.ar    1  UNL1        0.0124
     14 C         -16.6320   -1.3160   17.9478 C.ar    1  UNL1        0.0791
     15 C         -16.1066   -1.5247   19.3372 C.ar    1  UNL1        0.0685
     16 CL        -16.2059   -0.4226   20.3500 Cl      1  UNL1       -0.0815
     17 C         -15.4820   -2.8353   19.7139 C.ar    1  UNL1        0.0266
     18 C         -17.2567   -0.0053   17.5712 C.1     1  UNL1        0.1013
     19 N         -17.8813    1.3054   17.1945 N.1     1  UNL1       -0.1908
     20 C         -13.5073   -5.2725   19.9055 C.3     1  UNL1        0.1175
     21 C         -12.1715   -5.4314   19.2416 C.ar    1  UNL1       -0.0041
     22 C         -11.6367   -6.8024   18.9515 C.ar    1  UNL1        0.0267
     23 C         -10.3010   -6.9614   18.2877 C.ar    1  UNL1        0.1399
     24 F          -9.7660   -8.3324   17.9975 F       1  UNL1       -0.2042
     25 C          -9.5003   -5.7493   17.9139 C.ar    1  UNL1        0.0293
     26 C         -10.0352   -4.3783   18.2041 C.ar    1  UNL1       -0.0022
     27 C         -11.3708   -4.2194   18.8679 C.ar    1  UNL1       -0.0241
     28 C         -11.9058   -2.8483   19.1581 C.3     1  UNL1        0.0308
@<TRIPOS>BOND
     1     9    10    1
     2    10     2    1
     3     2     3    2
     4     2     4   am
     5     4     5    1
     6     5     6    1
     7     6     7    1
     8     7     1    1
     9     1    20    1
    10    20    21    1
    11    21    22   ar
    12    22    23   ar
    13    23    24    1
    14    23    25   ar
    15    25    26   ar
    16    26    27   ar
    17    27    28    1
    18     1    11    1
    19    11    12   ar
    20    12    13   ar
    21    13    14   ar
    22    14    18    1
    23    18    19    3
    24    14    15   ar
    25    15    16    1
    26    15    17   ar
    27     7     8    1
    28     8     4    1
    29    27    21   ar
    30    17    11   ar
@<TRIPOS>MOLECULE
*****
 28 30 0 0 0
SMALL
GASTEIGER

@<TRIPOS>ATOM
      1 N         -14.6037   -5.8968   17.7332 N.pl3   1  UNL1       -0.3035
      2 C         -17.1927  -10.2648   19.1816 C.2     1  UNL1        0.4050
      3 O         -17.0163  -11.7509   19.0793 O.2     1  UNL1       -0.2262
      4 N         -16.1593   -9.3451   18.6018 N.am    1  UNL1       -0.2443
      5 C         -14.9043   -9.7632   17.8945 C.3     1  UNL1        0.0986
      6 C         -14.1689   -8.5223   17.4830 C.3     1  UNL1        0.0431
      7 C         -14.9693   -7.3373   17.9360 C.3     1  UNL1        0.0947
      8 C         -16.1994   -7.8458   18.6274 C.3     1  UNL1        0.1164
      9 C         -19.6308   -9.3745   19.0659 C.3     1  UNL1        0.2573
     10 O         -18.4026   -9.6985   19.8638 O.3     1  UNL1       -0.4304
     11 C         -15.4686   -4.8152   18.3097 C.ar    1  UNL1        0.0490
     12 C         -15.1972   -4.2936   19.6896 C.ar    1  UNL1        0.0153
     13 C         -16.0620   -3.2120   20.2661 C.ar    1  UNL1        0.0124
     14 C         -17.1981   -2.6521   19.4626 C.ar    1  UNL1        0.0791
     15 C         -17.4695   -3.1737   18.0827 C.ar    1  UNL1        0.0685
     16 CL        -18.6057   -2.6137   17.2792 Cl      1  UNL1       -0.0815
     17 C         -16.6047   -4.2553   17.5062 C.ar    1  UNL1        0.0266
     18 C         -18.0630   -1.5705   20.0391 C.1     1  UNL1        0.1013
     19 N         -18.9278   -0.4890   20.6156 N.1     1  UNL1       -0.1908
     20 C         -13.3734   -5.5378   16.9539 C.3     1  UNL1        0.1175
     21 C         -12.0795   -5.2850   17.6696 C.ar    1  UNL1       -0.0041
     22 C         -11.2542   -6.4388   18.1570 C.ar    1  UNL1        0.0267
     23 C          -9.9604   -6.1860   18.8726 C.ar    1  UNL1        0.1399
     24 F          -9.1350   -7.3398   19.3600 F       1  UNL1       -0.2042
     25 C          -9.4919   -4.7794   19.1008 C.ar    1  UNL1        0.0293
     26 C         -10.3172   -3.6256   18.6134 C.ar    1  UNL1       -0.0022
     27 C         -11.6110   -3.8784   17.8978 C.ar    1  UNL1       -0.0241
     28 C         -12.4364   -2.7246   17.4103 C.3     1  UNL1        0.0308
@<TRIPOS>BOND
     1     9    10    1
     2    10     2    1
     3     2     3    2
     4     2     4   am
     5     4     5    1
     6     5     6    1
     7     6     7    1
     8     7     1    1
     9     1    20    1
    10    20    21    1
    11    21    22   ar
    12    22    23   ar
    13    23    24    1
    14    23    25   ar
    15    25    26   ar
    16    26    27   ar
    17    27    28    1
    18     1    11    1
    19    11    12   ar
    20    12    13   ar
    21    13    14   ar
    22    14    18    1
    23    18    19    3
    24    14    15   ar
    25    15    16    1
    26    15    17   ar
    27     7     8    1
    28     8     4    1
    29    27    21   ar
    30    17    11   ar
