@<TRIPOS>MOLECULE
*****
 39 43 0 0 0
SMALL
GASTEIGER

@<TRIPOS>ATOM
      1 N          -9.0236  -17.9048   21.2692 N.3     1  UNL1       -0.2679
      2 C         -10.4575  -17.4672   21.3201 C.3     1  UNL1        0.0978
      3 C         -11.0274  -16.6348   20.2101 C.3     1  UNL1        0.0224
      4 C         -12.4613  -16.1972   20.2610 C.3     1  UNL1        0.0065
      5 C         -13.3251  -16.5920   21.4220 C.3     1  UNL1        0.0277
      6 C         -12.7552  -17.4244   22.5320 C.ar    1  UNL1       -0.0073
      7 C         -13.6190  -17.8192   23.6930 C.ar    1  UNL1       -0.0015
      8 C         -13.0491  -18.6516   24.8031 C.ar    1  UNL1        0.0203
      9 C         -11.6152  -19.0892   24.7521 C.ar    1  UNL1        0.0985
     10 N         -10.7514  -18.6944   23.5912 N.ar    1  UNL1       -0.2471
     11 C         -11.3213  -17.8620   22.4811 C.ar    1  UNL1        0.0695
     12 C          -8.6882  -19.3550   21.0840 C.3     1  UNL1        0.0725
     13 C          -7.4158  -19.7484   20.3937 C.3     1  UNL1        0.0187
     14 C          -6.9844  -20.3731   22.3745 C.3     1  UNL1        0.0014
     15 C          -6.1625  -19.9546   21.1916 C.3     1  UNL1        0.0158
     16 C          -5.3406  -19.5361   20.0087 C.3     1  UNL1        0.0014
     17 C          -4.9092  -20.1609   21.9894 C.3     1  UNL1        0.0685
     18 N          -4.1804  -18.9805   22.5598 N.3     1  UNL1       -0.2985
     19 H          -3.8402  -19.2608   23.4796 H       1  UNL1        0.1232
     20 C          -3.0108  -18.3948   21.8255 C.3     1  UNL1        0.0543
     21 C          -2.1985  -19.2537   20.9022 C.3     1  UNL1        0.0213
     22 C          -1.0289  -18.6680   20.1679 C.3     1  UNL1        0.0679
     23 C          -0.6716  -17.2235   20.3569 C.3     1  UNL1        0.2640
     24 F           0.0554  -15.9201   20.2073 F       1  UNL1       -0.2043
     25 F           0.3932  -17.6297   19.3816 F       1  UNL1       -0.2043
     26 C          -1.4840  -16.3646   21.2803 C.3     1  UNL1        0.0679
     27 C          -2.6535  -16.9503   22.0145 C.3     1  UNL1        0.0213
     28 C          -7.9252  -16.8922   21.4035 C.3     1  UNL1        0.0886
     29 C          -7.4296  -16.4992   22.7637 C.3     1  UNL1        0.0748
     30 C          -8.4076  -16.1571   23.8483 C.3     1  UNL1        0.0432
     31 C          -7.9121  -15.7640   25.2085 C.ar    1  UNL1       -0.0234
     32 C          -8.8901  -15.4219   26.2931 C.ar    1  UNL1       -0.0045
     33 C          -8.3945  -15.0289   27.6531 C.ar    1  UNL1       -0.0003
     34 C          -6.9209  -14.9779   27.9286 C.ar    1  UNL1       -0.0003
     35 C          -5.9429  -15.3200   26.8440 C.ar    1  UNL1       -0.0032
     36 C          -6.4385  -15.7130   25.4839 C.ar    1  UNL1       -0.0103
     37 C          -5.4604  -16.0551   24.3992 C.3     1  UNL1        0.0953
     38 N          -5.9560  -16.4482   23.0392 N.3     1  UNL1       -0.2934
     39 H          -5.5887  -17.3808   22.8501 H       1  UNL1        0.1236
@<TRIPOS>BOND
     1    14    15    1
     2    15    16    1
     3    15    13    1
     4    13    12    1
     5    12     1    1
     6     1    28    1
     7    29    28    1
     8    29    30    1
     9    30    31    1
    10    31    32   ar
    11    32    33   ar
    12    33    34   ar
    13    34    35   ar
    14    35    36   ar
    15    36    37    1
    16    37    38    1
    17     2     1    1
    18     2     3    1
    19     3     4    1
    20     4     5    1
    21     5     6    1
    22     6     7   ar
    23     7     8   ar
    24     8     9   ar
    25     9    10   ar
    26    10    11   ar
    27    15    17    1
    28    17    18    1
    29    18    20    1
    30    20    21    1
    31    21    22    1
    32    22    23    1
    33    23    24    1
    34    23    25    1
    35    23    26    1
    36    26    27    1
    37    38    29    1
    38    11     2    1
    39    27    20    1
    40    36    31   ar
    41    11     6   ar
    42    38    39    1
    43    18    19    1
@<TRIPOS>MOLECULE
*****
 39 43 0 0 0
SMALL
GASTEIGER

@<TRIPOS>ATOM
      1 N          -8.2601  -18.3370   21.2668 N.3     1  UNL1       -0.2679
      2 C          -9.1205  -18.9064   22.3556 C.3     1  UNL1        0.0978
      3 C          -8.5985  -20.0139   23.2222 C.3     1  UNL1        0.0224
      4 C          -9.4589  -20.5833   24.3110 C.3     1  UNL1        0.0065
      5 C         -10.8413  -20.0453   24.5332 C.3     1  UNL1        0.0277
      6 C         -11.3633  -18.9378   23.6666 C.ar    1  UNL1       -0.0073
      7 C         -12.7458  -18.3997   23.8888 C.ar    1  UNL1       -0.0015
      8 C         -13.2678  -17.2923   23.0222 C.ar    1  UNL1        0.0203
      9 C         -12.4074  -16.7228   21.9334 C.ar    1  UNL1        0.0985
     10 N         -11.0250  -17.2609   21.7112 N.ar    1  UNL1       -0.2471
     11 C         -10.5029  -18.3684   22.5778 C.ar    1  UNL1        0.0695
     12 C          -8.0448  -19.1099   19.9995 C.3     1  UNL1        0.0725
     13 C          -7.4379  -20.4808   20.0509 C.3     1  UNL1        0.0187
     14 C          -5.8204  -19.2759   19.3940 C.3     1  UNL1        0.0014
     15 C          -5.9479  -20.6439   19.9958 C.3     1  UNL1        0.0158
     16 C          -6.0754  -22.0119   20.5975 C.3     1  UNL1        0.0014
     17 C          -4.4578  -20.8070   19.9406 C.3     1  UNL1        0.0685
     18 N          -3.6163  -20.4146   21.1186 N.3     1  UNL1       -0.2985
     19 H          -2.9384  -21.1637   21.2589 H       1  UNL1        0.1232
     20 C          -2.8426  -19.1297   21.0929 C.3     1  UNL1        0.0543
     21 C          -3.0633  -18.0998   22.1608 C.3     1  UNL1        0.0213
     22 C          -2.2896  -16.8149   22.1350 C.3     1  UNL1        0.0679
     23 C          -1.2953  -16.5600   21.0413 C.3     1  UNL1        0.2640
     24 F          -0.2517  -15.8635   20.2193 F       1  UNL1       -0.2043
     25 F          -1.1535  -15.2882   21.8238 F       1  UNL1       -0.2043
     26 C          -1.0746  -17.5900   19.9733 C.3     1  UNL1        0.0679
     27 C          -1.8483  -18.8748   19.9991 C.3     1  UNL1        0.0213
     28 C          -7.6150  -16.9947   21.4454 C.3     1  UNL1        0.0886
     29 C          -7.1937  -16.5408   22.8116 C.3     1  UNL1        0.0748
     30 C          -8.2275  -16.2719   23.8646 C.3     1  UNL1        0.0432
     31 C          -7.8062  -15.8181   25.2308 C.ar    1  UNL1       -0.0234
     32 C          -8.8401  -15.5492   26.2838 C.ar    1  UNL1       -0.0045
     33 C          -8.4187  -15.0954   27.6500 C.ar    1  UNL1       -0.0003
     34 C          -6.9635  -14.9103   27.9631 C.ar    1  UNL1       -0.0003
     35 C          -5.9296  -15.1791   26.9102 C.ar    1  UNL1       -0.0032
     36 C          -6.3510  -15.6330   25.5440 C.ar    1  UNL1       -0.0103
     37 C          -5.3171  -15.9019   24.4910 C.3     1  UNL1        0.0953
     38 N          -5.7384  -16.3557   23.1248 N.3     1  UNL1       -0.2934
     39 H          -5.2852  -17.2546   22.9604 H       1  UNL1        0.1236
@<TRIPOS>BOND
     1    14    15    1
     2    15    16    1
     3    15    13    1
     4    13    12    1
     5    12     1    1
     6     1    28    1
     7    29    28    1
     8    29    30    1
     9    30    31    1
    10    31    32   ar
    11    32    33   ar
    12    33    34   ar
    13    34    35   ar
    14    35    36   ar
    15    36    37    1
    16    37    38    1
    17     2     1    1
    18     2     3    1
    19     3     4    1
    20     4     5    1
    21     5     6    1
    22     6     7   ar
    23     7     8   ar
    24     8     9   ar
    25     9    10   ar
    26    10    11   ar
    27    15    17    1
    28    17    18    1
    29    18    20    1
    30    20    21    1
    31    21    22    1
    32    22    23    1
    33    23    24    1
    34    23    25    1
    35    23    26    1
    36    26    27    1
    37    38    29    1
    38    11     2    1
    39    27    20    1
    40    36    31   ar
    41    11     6   ar
    42    38    39    1
    43    18    19    1
@<TRIPOS>MOLECULE
*****
 39 43 0 0 0
SMALL
GASTEIGER

@<TRIPOS>ATOM
      1 N          -7.1135  -19.0920   22.2252 N.3     1  UNL1       -0.2679
      2 C          -6.0342  -19.6969   21.3772 C.3     1  UNL1        0.0978
      3 C          -6.3906  -20.6609   20.2847 C.3     1  UNL1        0.0224
      4 C          -5.3114  -21.2659   19.4366 C.3     1  UNL1        0.0065
      5 C          -3.8757  -20.9069   19.6811 C.3     1  UNL1        0.0277
      6 C          -3.5192  -19.9429   20.7737 C.ar    1  UNL1       -0.0073
      7 C          -2.0835  -19.5838   21.0182 C.ar    1  UNL1       -0.0015
      8 C          -1.7270  -18.6198   22.1107 C.ar    1  UNL1        0.0203
      9 C          -2.8063  -18.0149   22.9587 C.ar    1  UNL1        0.0985
     10 N          -4.2420  -18.3739   22.7143 N.ar    1  UNL1       -0.2471
     11 C          -4.5985  -19.3379   21.6217 C.ar    1  UNL1        0.0695
     12 C          -7.9630  -19.9691   23.0964 C.3     1  UNL1        0.0725
     13 C          -9.3038  -20.4350   22.6114 C.3     1  UNL1        0.0187
     14 C         -11.2933  -20.1214   21.9456 C.3     1  UNL1        0.0014
     15 C         -10.5564  -19.8904   23.2315 C.3     1  UNL1        0.0158
     16 C          -9.8194  -19.6595   24.5173 C.3     1  UNL1        0.0014
     17 C         -11.8089  -19.3459   23.8515 C.3     1  UNL1        0.0685
     18 N         -12.1078  -17.8781   23.7731 N.3     1  UNL1       -0.2985
     19 H         -11.5456  -17.4243   24.4931 H       1  UNL1        0.1232
     20 C         -11.8624  -17.1299   22.4964 C.3     1  UNL1        0.0543
     21 C         -10.5835  -16.3693   22.3068 C.3     1  UNL1        0.0213
     22 C         -10.3381  -15.6210   21.0301 C.3     1  UNL1        0.0679
     23 C         -11.3716  -15.6335   19.9430 C.3     1  UNL1        0.2640
     24 F         -12.0418  -15.3472   18.6319 F       1  UNL1       -0.2043
     25 F         -10.3255  -14.7734   19.2980 F       1  UNL1       -0.2043
     26 C         -12.6505  -16.3941   20.1326 C.3     1  UNL1        0.0679
     27 C         -12.8959  -17.1423   21.4093 C.3     1  UNL1        0.0213
     28 C          -7.3433  -17.6099   22.2021 C.3     1  UNL1        0.0886
     29 C          -7.0269  -16.7828   23.4129 C.3     1  UNL1        0.0748
     30 C          -8.0434  -16.6334   24.5057 C.3     1  UNL1        0.0432
     31 C          -7.7270  -15.8063   25.7164 C.ar    1  UNL1       -0.0234
     32 C          -8.7435  -15.6569   26.8092 C.ar    1  UNL1       -0.0045
     33 C          -8.4271  -14.8299   28.0199 C.ar    1  UNL1       -0.0003
     34 C          -7.0941  -14.1522   28.1378 C.ar    1  UNL1       -0.0003
     35 C          -6.0775  -14.3016   27.0450 C.ar    1  UNL1       -0.0032
     36 C          -6.3940  -15.1287   25.8343 C.ar    1  UNL1       -0.0103
     37 C          -5.3774  -15.2781   24.7414 C.3     1  UNL1        0.0953
     38 N          -5.6939  -16.1052   23.5307 N.3     1  UNL1       -0.2934
     39 H          -4.9858  -16.8377   23.4813 H       1  UNL1        0.1236
@<TRIPOS>BOND
     1    14    15    1
     2    15    16    1
     3    15    13    1
     4    13    12    1
     5    12     1    1
     6     1    28    1
     7    29    28    1
     8    29    30    1
     9    30    31    1
    10    31    32   ar
    11    32    33   ar
    12    33    34   ar
    13    34    35   ar
    14    35    36   ar
    15    36    37    1
    16    37    38    1
    17     2     1    1
    18     2     3    1
    19     3     4    1
    20     4     5    1
    21     5     6    1
    22     6     7   ar
    23     7     8   ar
    24     8     9   ar
    25     9    10   ar
    26    10    11   ar
    27    15    17    1
    28    17    18    1
    29    18    20    1
    30    20    21    1
    31    21    22    1
    32    22    23    1
    33    23    24    1
    34    23    25    1
    35    23    26    1
    36    26    27    1
    37    38    29    1
    38    11     2    1
    39    27    20    1
    40    36    31   ar
    41    11     6   ar
    42    38    39    1
    43    18    19    1
@<TRIPOS>MOLECULE
*****
 39 43 0 0 0
SMALL
GASTEIGER

@<TRIPOS>ATOM
      1 N           0.0633    2.3605   20.4080 N.3     1  UNL1       -0.2679
      2 C          -0.8021    3.0219   19.3767 C.3     1  UNL1        0.0978
      3 C          -0.2198    3.4214   18.0534 C.3     1  UNL1        0.0224
      4 C          -1.0852    4.0828   17.0221 C.3     1  UNL1        0.0065
      5 C          -2.5330    4.3447   17.3141 C.3     1  UNL1        0.0277
      6 C          -3.1153    3.9452   18.6374 C.ar    1  UNL1       -0.0073
      7 C          -4.5631    4.2071   18.9295 C.ar    1  UNL1       -0.0015
      8 C          -5.1455    3.8076   20.2529 C.ar    1  UNL1        0.0203
      9 C          -4.2800    3.1462   21.2842 C.ar    1  UNL1        0.0985
     10 N          -2.8323    2.8843   20.9921 N.ar    1  UNL1       -0.2471
     11 C          -2.2499    3.2838   19.6687 C.ar    1  UNL1        0.0695
     12 C           0.7350    3.1863   21.4648 C.3     1  UNL1        0.0725
     13 C           0.7601    2.7087   22.8866 C.3     1  UNL1        0.0187
     14 C           2.8666    2.6921   22.6367 C.3     1  UNL1        0.0014
     15 C           1.8778    1.8288   23.3626 C.3     1  UNL1        0.0158
     16 C           0.8889    0.9656   24.0885 C.3     1  UNL1        0.0014
     17 C           2.9954    0.9489   23.8386 C.3     1  UNL1        0.0685
     18 N           2.9406   -0.5304   23.5963 N.3     1  UNL1       -0.2985
     19 H           2.1351   -0.7004   22.9941 H       1  UNL1        0.1232
     20 C           4.1078   -1.2309   22.9662 C.3     1  UNL1        0.0543
     21 C           4.2902   -2.7071   23.1598 C.3     1  UNL1        0.0213
     22 C           5.4574   -3.4076   22.5298 C.3     1  UNL1        0.0679
     23 C           6.4423   -2.6318   21.7062 C.3     1  UNL1        0.2640
     24 F           7.6342   -2.3327   20.8461 F       1  UNL1       -0.2043
     25 F           7.0386   -4.0042   21.6010 F       1  UNL1       -0.2043
     26 C           6.2598   -1.1556   21.5126 C.3     1  UNL1        0.0679
     27 C           5.0927   -0.4551   22.1426 C.3     1  UNL1        0.0213
     28 C           0.2571    0.8733   20.3825 C.3     1  UNL1        0.0886
     29 C           1.4997    0.2890   19.7787 C.3     1  UNL1        0.0748
     30 C           1.8093   -1.1672   19.9616 C.3     1  UNL1        0.0432
     31 C           3.0520   -1.7514   19.3578 C.ar    1  UNL1       -0.0234
     32 C           3.3616   -3.2076   19.5407 C.ar    1  UNL1       -0.0045
     33 C           4.6042   -3.7918   18.9369 C.ar    1  UNL1       -0.0003
     34 C           5.5372   -2.9198   18.1502 C.ar    1  UNL1       -0.0003
     35 C           5.2276   -1.4635   17.9672 C.ar    1  UNL1       -0.0032
     36 C           3.9850   -0.8794   18.5710 C.ar    1  UNL1       -0.0103
     37 C           3.6754    0.5769   18.3881 C.3     1  UNL1        0.0953
     38 N           2.4328    1.1611   18.9919 N.3     1  UNL1       -0.2934
     39 H           1.8897    1.5558   18.2240 H       1  UNL1        0.1236
@<TRIPOS>BOND
     1    14    15    1
     2    15    16    1
     3    15    13    1
     4    13    12    1
     5    12     1    1
     6     1    28    1
     7    29    28    1
     8    29    30    1
     9    30    31    1
    10    31    32   ar
    11    32    33   ar
    12    33    34   ar
    13    34    35   ar
    14    35    36   ar
    15    36    37    1
    16    37    38    1
    17     2     1    1
    18     2     3    1
    19     3     4    1
    20     4     5    1
    21     5     6    1
    22     6     7   ar
    23     7     8   ar
    24     8     9   ar
    25     9    10   ar
    26    10    11   ar
    27    15    17    1
    28    17    18    1
    29    18    20    1
    30    20    21    1
    31    21    22    1
    32    22    23    1
    33    23    24    1
    34    23    25    1
    35    23    26    1
    36    26    27    1
    37    38    29    1
    38    11     2    1
    39    27    20    1
    40    36    31   ar
    41    11     6   ar
    42    38    39    1
    43    18    19    1
@<TRIPOS>MOLECULE
*****
 39 43 0 0 0
SMALL
GASTEIGER

@<TRIPOS>ATOM
      1 N         -15.7001   -2.0069   17.8839 N.3     1  UNL1       -0.2679
      2 C         -15.0222   -3.0015   18.7790 C.3     1  UNL1        0.0978
      3 C         -14.4606   -2.5622   20.0987 C.3     1  UNL1        0.0224
      4 C         -13.7827   -3.5568   20.9938 C.3     1  UNL1        0.0065
      5 C         -13.6664   -4.9907   20.5693 C.3     1  UNL1        0.0277
      6 C         -14.2279   -5.4300   19.2496 C.ar    1  UNL1       -0.0073
      7 C         -14.1116   -6.8640   18.8250 C.ar    1  UNL1       -0.0015
      8 C         -14.6731   -7.3034   17.5053 C.ar    1  UNL1        0.0203
      9 C         -15.3510   -6.3088   16.6101 C.ar    1  UNL1        0.0985
     10 N         -15.4674   -4.8749   17.0347 N.ar    1  UNL1       -0.2471
     11 C         -14.9058   -4.4354   18.3544 C.ar    1  UNL1        0.0695
     12 C         -14.9229   -1.3229   16.7985 C.3     1  UNL1        0.0725
     13 C         -13.7030   -0.5201   17.1414 C.3     1  UNL1        0.0187
     14 C         -12.6570   -1.9560   15.9823 C.3     1  UNL1        0.0014
     15 C         -12.3659   -1.1926   17.2402 C.3     1  UNL1        0.0158
     16 C         -12.0749   -0.4292   18.4981 C.3     1  UNL1        0.0014
     17 C         -11.0288   -1.8651   17.3390 C.3     1  UNL1        0.0685
     18 N         -10.7154   -2.7421   18.5149 N.3     1  UNL1       -0.2985
     19 H         -11.4702   -2.6121   19.1886 H       1  UNL1        0.1232
     20 C         -10.5541   -4.2214   18.3253 C.3     1  UNL1        0.0543
     21 C          -9.7135   -5.0129   19.2828 C.3     1  UNL1        0.0213
     22 C          -9.5522   -6.4922   19.0932 C.3     1  UNL1        0.0679
     23 C         -10.2315   -7.1798   17.9462 C.3     1  UNL1        0.2640
     24 F         -10.6720   -8.2743   17.0200 F       1  UNL1       -0.2043
     25 F          -9.5438   -8.3515   18.5820 F       1  UNL1       -0.2043
     26 C         -11.0721   -6.3882   16.9887 C.3     1  UNL1        0.0679
     27 C         -11.2334   -4.9090   17.1783 C.3     1  UNL1        0.0213
     28 C         -17.1551   -1.6964   18.0741 C.3     1  UNL1        0.0886
     29 C         -17.5766   -0.6616   19.0749 C.3     1  UNL1        0.0748
     30 C         -16.6908    0.5163   19.3542 C.3     1  UNL1        0.0432
     31 C         -17.1123    1.5511   20.3550 C.ar    1  UNL1       -0.0234
     32 C         -16.2265    2.7290   20.6343 C.ar    1  UNL1       -0.0045
     33 C         -16.6480    3.7637   21.6350 C.ar    1  UNL1       -0.0003
     34 C         -17.9553    3.6206   22.3566 C.ar    1  UNL1       -0.0003
     35 C         -18.8410    2.4428   22.0773 C.ar    1  UNL1       -0.0032
     36 C         -18.4196    1.4080   21.0765 C.ar    1  UNL1       -0.0103
     37 C         -19.3054    0.2301   20.7972 C.3     1  UNL1        0.0953
     38 N         -18.8839   -0.8046   19.7964 N.3     1  UNL1       -0.2934
     39 H         -19.6119   -0.8379   19.0828 H       1  UNL1        0.1236
@<TRIPOS>BOND
     1    14    15    1
     2    15    16    1
     3    15    13    1
     4    13    12    1
     5    12     1    1
     6     1    28    1
     7    29    28    1
     8    29    30    1
     9    30    31    1
    10    31    32   ar
    11    32    33   ar
    12    33    34   ar
    13    34    35   ar
    14    35    36   ar
    15    36    37    1
    16    37    38    1
    17     2     1    1
    18     2     3    1
    19     3     4    1
    20     4     5    1
    21     5     6    1
    22     6     7   ar
    23     7     8   ar
    24     8     9   ar
    25     9    10   ar
    26    10    11   ar
    27    15    17    1
    28    17    18    1
    29    18    20    1
    30    20    21    1
    31    21    22    1
    32    22    23    1
    33    23    24    1
    34    23    25    1
    35    23    26    1
    36    26    27    1
    37    38    29    1
    38    11     2    1
    39    27    20    1
    40    36    31   ar
    41    11     6   ar
    42    38    39    1
    43    18    19    1
@<TRIPOS>MOLECULE
*****
 39 43 0 0 0
SMALL
GASTEIGER

@<TRIPOS>ATOM
      1 N           7.2239   -4.0442   23.7505 N.3     1  UNL1       -0.2679
      2 C           7.5947   -5.2622   24.5437 C.3     1  UNL1        0.0978
      3 C           8.2000   -6.4496   23.8556 C.3     1  UNL1        0.0224
      4 C           8.5707   -7.6676   24.6488 C.3     1  UNL1        0.0065
      5 C           8.3361   -7.6981   26.1300 C.3     1  UNL1        0.0277
      6 C           7.7308   -6.5107   26.8180 C.ar    1  UNL1       -0.0073
      7 C           7.4962   -6.5412   28.2993 C.ar    1  UNL1       -0.0015
      8 C           6.8908   -5.3537   28.9873 C.ar    1  UNL1        0.0203
      9 C           6.5201   -4.1357   28.1942 C.ar    1  UNL1        0.0985
     10 N           6.7547   -4.1052   26.7130 N.ar    1  UNL1       -0.2471
     11 C           7.3601   -5.2927   26.0249 C.ar    1  UNL1        0.0695
     12 C           8.2385   -2.9646   23.5157 C.3     1  UNL1        0.0725
     13 C           9.4101   -3.2197   22.6144 C.3     1  UNL1        0.0187
     14 C           9.3543   -1.4900   21.3877 C.3     1  UNL1        0.0014
     15 C           9.2913   -2.9681   21.1404 C.3     1  UNL1        0.0158
     16 C           9.2283   -4.4462   20.8932 C.3     1  UNL1        0.0014
     17 C           9.1724   -2.7165   19.6665 C.3     1  UNL1        0.0685
     18 N           8.2419   -1.6548   19.1595 N.3     1  UNL1       -0.2985
     19 H           8.5004   -1.4756   18.1893 H       1  UNL1        0.1232
     20 C           6.7598   -1.8857   19.1773 C.3     1  UNL1        0.0543
     21 C           5.8184   -0.7187   19.1335 C.3     1  UNL1        0.0213
     22 C           4.3363   -0.9496   19.1512 C.3     1  UNL1        0.0679
     23 C           3.7957   -2.3475   19.2127 C.3     1  UNL1        0.2640
     24 F           2.8092   -3.4762   19.2654 F       1  UNL1       -0.2043
     25 F           2.5117   -1.5725   19.1873 F       1  UNL1       -0.2043
     26 C           4.7372   -3.5144   19.2565 C.3     1  UNL1        0.0679
     27 C           6.2192   -3.2835   19.2388 C.3     1  UNL1        0.0213
     28 C           5.8386   -3.9057   23.1923 C.3     1  UNL1        0.0886
     29 C           4.9526   -2.7865   23.6533 C.3     1  UNL1        0.0748
     30 C           4.1106   -2.0395   22.6619 C.3     1  UNL1        0.0432
     31 C           3.2246   -0.9203   23.1229 C.ar    1  UNL1       -0.0234
     32 C           2.3826   -0.1733   22.1315 C.ar    1  UNL1       -0.0045
     33 C           1.4966    0.9458   22.5925 C.ar    1  UNL1       -0.0003
     34 C           1.4526    1.3178   24.0450 C.ar    1  UNL1       -0.0003
     35 C           2.2945    0.5708   25.0364 C.ar    1  UNL1       -0.0032
     36 C           3.1805   -0.5483   24.5753 C.ar    1  UNL1       -0.0103
     37 C           4.0226   -1.2954   25.5668 C.3     1  UNL1        0.0953
     38 N           4.9085   -2.4145   25.1057 N.3     1  UNL1       -0.2934
     39 H           4.6177   -3.2492   25.6148 H       1  UNL1        0.1236
@<TRIPOS>BOND
     1    14    15    1
     2    15    16    1
     3    15    13    1
     4    13    12    1
     5    12     1    1
     6     1    28    1
     7    29    28    1
     8    29    30    1
     9    30    31    1
    10    31    32   ar
    11    32    33   ar
    12    33    34   ar
    13    34    35   ar
    14    35    36   ar
    15    36    37    1
    16    37    38    1
    17     2     1    1
    18     2     3    1
    19     3     4    1
    20     4     5    1
    21     5     6    1
    22     6     7   ar
    23     7     8   ar
    24     8     9   ar
    25     9    10   ar
    26    10    11   ar
    27    15    17    1
    28    17    18    1
    29    18    20    1
    30    20    21    1
    31    21    22    1
    32    22    23    1
    33    23    24    1
    34    23    25    1
    35    23    26    1
    36    26    27    1
    37    38    29    1
    38    11     2    1
    39    27    20    1
    40    36    31   ar
    41    11     6   ar
    42    38    39    1
    43    18    19    1
@<TRIPOS>MOLECULE
*****
 39 43 0 0 0
SMALL
GASTEIGER

@<TRIPOS>ATOM
      1 N           7.7291   -3.7334   25.3390 N.3     1  UNL1       -0.2679
      2 C           7.9741   -5.1857   25.6230 C.3     1  UNL1        0.0978
      3 C           7.8453   -6.1972   24.5229 C.3     1  UNL1        0.0224
      4 C           8.0903   -7.6495   24.8069 C.3     1  UNL1        0.0065
      5 C           8.4641   -8.0904   26.1911 C.3     1  UNL1        0.0277
      6 C           8.5928   -7.0789   27.2912 C.ar    1  UNL1       -0.0073
      7 C           8.9666   -7.5198   28.6754 C.ar    1  UNL1       -0.0015
      8 C           9.0954   -6.5083   29.7755 C.ar    1  UNL1        0.0203
      9 C           8.8504   -5.0559   29.4915 C.ar    1  UNL1        0.0985
     10 N           8.4766   -4.6151   28.1073 N.ar    1  UNL1       -0.2471
     11 C           8.3478   -5.6266   27.0071 C.ar    1  UNL1        0.0695
     12 C           8.8331   -2.8802   24.7885 C.3     1  UNL1        0.0725
     13 C           9.5313   -3.2815   23.5230 C.3     1  UNL1        0.0187
     14 C           8.6644   -1.5391   22.6789 C.3     1  UNL1        0.0014
     15 C           8.9321   -2.9326   22.1929 C.3     1  UNL1        0.0158
     16 C           9.1998   -4.3262   21.7068 C.3     1  UNL1        0.0014
     17 C           8.3329   -2.5838   20.8628 C.3     1  UNL1        0.0685
     18 N           8.1565   -1.1460   20.4735 N.3     1  UNL1       -0.2985
     19 H           9.0123   -0.8631   19.9960 H       1  UNL1        0.1232
     20 C           7.0138   -0.7432   19.5891 C.3     1  UNL1        0.0543
     21 C           6.1353    0.4091   19.9769 C.3     1  UNL1        0.0213
     22 C           4.9926    0.8119   19.0925 C.3     1  UNL1        0.0679
     23 C           4.7285    0.0624   17.8203 C.3     1  UNL1        0.2640
     24 F           4.0813   -0.3348   16.5267 F       1  UNL1       -0.2043
     25 F           3.6252    1.0767   17.7589 F       1  UNL1       -0.2043
     26 C           5.6072   -1.0899   17.4324 C.3     1  UNL1        0.0679
     27 C           6.7498   -1.4926   18.3168 C.3     1  UNL1        0.0213
     28 C           6.3800   -3.1342   25.6054 C.3     1  UNL1        0.0886
     29 C           5.5181   -2.6886   24.4614 C.3     1  UNL1        0.0748
     30 C           5.4899   -3.4834   23.1896 C.3     1  UNL1        0.0432
     31 C           4.6279   -3.0378   22.0457 C.ar    1  UNL1       -0.0234
     32 C           4.5997   -3.8326   20.7739 C.ar    1  UNL1       -0.0045
     33 C           3.7378   -3.3869   19.6300 C.ar    1  UNL1       -0.0003
     34 C           2.9041   -2.1465   19.7579 C.ar    1  UNL1       -0.0003
     35 C           2.9323   -1.3518   21.0297 C.ar    1  UNL1       -0.0032
     36 C           3.7942   -1.7974   22.1736 C.ar    1  UNL1       -0.0103
     37 C           3.8224   -1.0026   23.4455 C.3     1  UNL1        0.0953
     38 N           4.6844   -1.4482   24.5893 N.3     1  UNL1       -0.2934
     39 H           4.0646   -1.5909   25.3868 H       1  UNL1        0.1236
@<TRIPOS>BOND
     1    14    15    1
     2    15    16    1
     3    15    13    1
     4    13    12    1
     5    12     1    1
     6     1    28    1
     7    29    28    1
     8    29    30    1
     9    30    31    1
    10    31    32   ar
    11    32    33   ar
    12    33    34   ar
    13    34    35   ar
    14    35    36   ar
    15    36    37    1
    16    37    38    1
    17     2     1    1
    18     2     3    1
    19     3     4    1
    20     4     5    1
    21     5     6    1
    22     6     7   ar
    23     7     8   ar
    24     8     9   ar
    25     9    10   ar
    26    10    11   ar
    27    15    17    1
    28    17    18    1
    29    18    20    1
    30    20    21    1
    31    21    22    1
    32    22    23    1
    33    23    24    1
    34    23    25    1
    35    23    26    1
    36    26    27    1
    37    38    29    1
    38    11     2    1
    39    27    20    1
    40    36    31   ar
    41    11     6   ar
    42    38    39    1
    43    18    19    1
@<TRIPOS>MOLECULE
*****
 39 43 0 0 0
SMALL
GASTEIGER

@<TRIPOS>ATOM
      1 N           5.2753   -2.3211   23.1794 N.3     1  UNL1       -0.2679
      2 C           4.3954   -1.1097   23.0887 C.3     1  UNL1        0.0978
      3 C           3.1861   -0.9935   23.9684 C.3     1  UNL1        0.0224
      4 C           2.3063    0.2180   23.8777 C.3     1  UNL1        0.0065
      5 C           2.6357    1.3132   22.9072 C.3     1  UNL1        0.0277
      6 C           3.8450    1.1970   22.0274 C.ar    1  UNL1       -0.0073
      7 C           4.1744    2.2922   21.0568 C.ar    1  UNL1       -0.0015
      8 C           5.3837    2.1760   20.1771 C.ar    1  UNL1        0.0203
      9 C           6.2636    0.9646   20.2678 C.ar    1  UNL1        0.0985
     10 N           5.9342   -0.1306   21.2383 N.ar    1  UNL1       -0.2471
     11 C           4.7248   -0.0145   22.1182 C.ar    1  UNL1        0.0695
     12 C           4.9546   -3.5432   22.3710 C.3     1  UNL1        0.0725
     13 C           5.7927   -3.8942   21.1774 C.3     1  UNL1        0.0187
     14 C           4.0797   -4.2965   19.9927 C.3     1  UNL1        0.0014
     15 C           5.3391   -3.5045   19.8018 C.3     1  UNL1        0.0158
     16 C           6.5986   -2.7125   19.6110 C.3     1  UNL1        0.0014
     17 C           4.8856   -3.1148   18.4262 C.3     1  UNL1        0.0685
     18 N           4.6778   -1.6686   18.0866 N.3     1  UNL1       -0.2985
     19 H           4.6695   -1.6034   17.0687 H       1  UNL1        0.1232
     20 C           3.4548   -0.9513   18.5765 C.3     1  UNL1        0.0543
     21 C           2.6435   -1.5314   19.6968 C.3     1  UNL1        0.0213
     22 C           1.4205   -0.8142   20.1867 C.3     1  UNL1        0.0679
     23 C           1.0089    0.4831   19.5562 C.3     1  UNL1        0.2640
     24 F           0.2205    1.7293   19.2817 F       1  UNL1       -0.2043
     25 F          -0.0763    0.3358   20.5812 F       1  UNL1       -0.2043
     26 C           1.8203    1.0633   18.4359 C.3     1  UNL1        0.0679
     27 C           3.0433    0.3460   17.9460 C.3     1  UNL1        0.0213
     28 C           6.4759   -2.3104   24.0785 C.3     1  UNL1        0.0886
     29 C           6.8701   -3.5544   24.8182 C.3     1  UNL1        0.0748
     30 C           7.8088   -4.5380   24.1848 C.3     1  UNL1        0.0432
     31 C           8.2029   -5.7821   24.9245 C.ar    1  UNL1       -0.0234
     32 C           9.1416   -6.7657   24.2911 C.ar    1  UNL1       -0.0045
     33 C           9.5357   -8.0096   25.0308 C.ar    1  UNL1       -0.0003
     34 C           8.9912   -8.2699   26.4040 C.ar    1  UNL1       -0.0003
     35 C           8.0525   -7.2863   27.0375 C.ar    1  UNL1       -0.0032
     36 C           7.6584   -6.0424   26.2977 C.ar    1  UNL1       -0.0103
     37 C           6.7196   -5.0587   26.9312 C.3     1  UNL1        0.0953
     38 N           6.3255   -3.8147   26.1914 N.3     1  UNL1       -0.2934
     39 H           6.6048   -3.0251   26.7735 H       1  UNL1        0.1236
@<TRIPOS>BOND
     1    14    15    1
     2    15    16    1
     3    15    13    1
     4    13    12    1
     5    12     1    1
     6     1    28    1
     7    29    28    1
     8    29    30    1
     9    30    31    1
    10    31    32   ar
    11    32    33   ar
    12    33    34   ar
    13    34    35   ar
    14    35    36   ar
    15    36    37    1
    16    37    38    1
    17     2     1    1
    18     2     3    1
    19     3     4    1
    20     4     5    1
    21     5     6    1
    22     6     7   ar
    23     7     8   ar
    24     8     9   ar
    25     9    10   ar
    26    10    11   ar
    27    15    17    1
    28    17    18    1
    29    18    20    1
    30    20    21    1
    31    21    22    1
    32    22    23    1
    33    23    24    1
    34    23    25    1
    35    23    26    1
    36    26    27    1
    37    38    29    1
    38    11     2    1
    39    27    20    1
    40    36    31   ar
    41    11     6   ar
    42    38    39    1
    43    18    19    1
@<TRIPOS>MOLECULE
*****
 39 43 0 0 0
SMALL
GASTEIGER

@<TRIPOS>ATOM
      1 N           6.4133   -3.3689   23.5920 N.3     1  UNL1       -0.2679
      2 C           7.3226   -4.5483   23.4119 C.3     1  UNL1        0.0978
      3 C           8.0935   -4.7129   22.1357 C.3     1  UNL1        0.0224
      4 C           9.0028   -5.8922   21.9556 C.3     1  UNL1        0.0065
      5 C           9.1412   -6.9069   23.0517 C.3     1  UNL1        0.0277
      6 C           8.3703   -6.7422   24.3278 C.ar    1  UNL1       -0.0073
      7 C           8.5087   -7.7569   25.4239 C.ar    1  UNL1       -0.0015
      8 C           7.7378   -7.5922   26.7000 C.ar    1  UNL1        0.0203
      9 C           6.8285   -6.4129   26.8801 C.ar    1  UNL1        0.0985
     10 N           6.6901   -5.3983   25.7841 N.ar    1  UNL1       -0.2471
     11 C           7.4610   -5.5629   24.5079 C.ar    1  UNL1        0.0695
     12 C           6.8779   -2.1763   24.3741 C.3     1  UNL1        0.0725
     13 C           5.9876   -1.5714   25.4189 C.3     1  UNL1        0.0187
     14 C           6.0755    0.2474   24.3306 C.3     1  UNL1        0.0014
     15 C           4.9938   -0.5147   25.0371 C.3     1  UNL1        0.0158
     16 C           3.9121   -1.2768   25.7435 C.3     1  UNL1        0.0014
     17 C           4.0000    0.5419   24.6553 C.3     1  UNL1        0.0685
     18 N           4.2464    1.4037   23.4525 N.3     1  UNL1       -0.2985
     19 H           5.2339    1.3051   23.2169 H       1  UNL1        0.1232
     20 C           3.4738    1.1663   22.1888 C.3     1  UNL1        0.0543
     21 C           3.6968    2.0486   20.9965 C.3     1  UNL1        0.0213
     22 C           2.9242    1.8112   19.7328 C.3     1  UNL1        0.0679
     23 C           1.9287    0.6915   19.6615 C.3     1  UNL1        0.2640
     24 F           0.8847   -0.2334   19.1096 F       1  UNL1       -0.2043
     25 F           1.7891    1.2526   18.2774 F       1  UNL1       -0.2043
     26 C           1.7057   -0.1909   20.8539 C.3     1  UNL1        0.0679
     27 C           2.4783    0.0466   22.1175 C.3     1  UNL1        0.0213
     28 C           5.0395   -3.3823   22.9900 C.3     1  UNL1        0.0886
     29 C           4.8229   -2.8518   21.6037 C.3     1  UNL1        0.0748
     30 C           5.6044   -1.6647   21.1243 C.3     1  UNL1        0.0432
     31 C           5.3878   -1.1342   19.7380 C.ar    1  UNL1       -0.0234
     32 C           6.1693    0.0529   19.2587 C.ar    1  UNL1       -0.0045
     33 C           5.9527    0.5834   17.8724 C.ar    1  UNL1       -0.0003
     34 C           4.9545   -0.0733   16.9656 C.ar    1  UNL1       -0.0003
     35 C           4.1730   -1.2605   17.4450 C.ar    1  UNL1       -0.0032
     36 C           4.3896   -1.7909   18.8312 C.ar    1  UNL1       -0.0103
     37 C           3.6080   -2.9781   19.3107 C.3     1  UNL1        0.0953
     38 N           3.8247   -3.5085   20.6969 N.3     1  UNL1       -0.2934
     39 H           4.1126   -4.4820   20.5980 H       1  UNL1        0.1236
@<TRIPOS>BOND
     1    14    15    1
     2    15    16    1
     3    15    13    1
     4    13    12    1
     5    12     1    1
     6     1    28    1
     7    29    28    1
     8    29    30    1
     9    30    31    1
    10    31    32   ar
    11    32    33   ar
    12    33    34   ar
    13    34    35   ar
    14    35    36   ar
    15    36    37    1
    16    37    38    1
    17     2     1    1
    18     2     3    1
    19     3     4    1
    20     4     5    1
    21     5     6    1
    22     6     7   ar
    23     7     8   ar
    24     8     9   ar
    25     9    10   ar
    26    10    11   ar
    27    15    17    1
    28    17    18    1
    29    18    20    1
    30    20    21    1
    31    21    22    1
    32    22    23    1
    33    23    24    1
    34    23    25    1
    35    23    26    1
    36    26    27    1
    37    38    29    1
    38    11     2    1
    39    27    20    1
    40    36    31   ar
    41    11     6   ar
    42    38    39    1
    43    18    19    1
