@<TRIPOS>MOLECULE
*****
 38 42 0 0 0
SMALL
GASTEIGER

@<TRIPOS>ATOM
      1 C          -6.8332  -17.0749   23.4805 C.3     1  UNL1        0.1014
      2 C          -8.4734  -14.7758   27.9420 C.3     1  UNL1        0.0381
      3 C          -7.6069  -15.2195   26.8007 C.ar    1  UNL1        0.0074
      4 C          -6.1600  -14.8748   26.6065 C.ar    1  UNL1        0.0024
      5 C          -5.6940  -15.5279   25.3391 C.ar    1  UNL1        0.0039
      6 C          -6.8529  -16.2762   24.7500 C.ar    1  UNL1        0.0248
      7 S          -8.0352  -16.0856   25.6534 S.2     1  UNL1       -0.0940
      8 N          -5.6201  -17.0513   22.5984 N.am    1  UNL1       -0.3017
      9 C          -4.3324  -17.6529   23.0778 C.2     1  UNL1        0.2222
     10 O          -4.2577  -18.2782   24.4392 O.2     1  UNL1       -0.2751
     11 H          -5.6692  -16.6410   21.7048 H       1  UNL1        0.1497
     12 C          -3.1194  -17.6293   22.1957 C.3     1  UNL1        0.0769
     13 C          -2.3850  -16.3419   21.9648 C.3     1  UNL1        0.0147
     14 C          -1.1720  -16.3183   21.0827 C.3     1  UNL1        0.0671
     15 C          -0.6934  -17.5820   20.4316 C.3     1  UNL1        0.2640
     16 F           0.1409  -18.5107   19.5999 F       1  UNL1       -0.2043
     17 F           0.3307  -16.6172   19.9118 F       1  UNL1       -0.2043
     18 C          -1.4278  -18.8694   20.6625 C.3     1  UNL1        0.0671
     19 C          -2.6408  -18.8930   21.5446 C.3     1  UNL1        0.0147
     20 C          -8.0264  -17.8972   23.0931 C.3     1  UNL1        0.0419
     21 C          -8.1317  -18.4591   21.7063 C.3     1  UNL1        0.0741
     22 N          -7.0227  -19.3043   21.1533 N.3     1  UNL1       -0.2750
     23 C          -6.3683  -19.1344   19.8143 C.3     1  UNL1        0.0594
     24 C          -5.3145  -20.1929   19.6757 C.3     1  UNL1        0.0174
     25 C          -5.3176  -21.0169   20.9290 C.3     1  UNL1        0.0174
     26 C          -6.3733  -20.4678   21.8423 C.3     1  UNL1        0.0594
     27 C          -7.4826  -19.7166   22.5381 C.3     1  UNL1        0.0386
     28 C          -8.0345  -18.5803   21.7292 C.3     1  UNL1        0.0904
     29 C          -7.4773  -18.2892   20.3673 C.3     1  UNL1        0.0386
     30 N          -9.1435  -17.7351   22.2822 N.ar    1  UNL1       -0.3039
     31 C          -9.3075  -16.2571   22.0861 C.ar    1  UNL1        0.1433
     32 C          -8.3913  -15.3647   21.3024 C.3     1  UNL1        0.0738
     33 N         -10.5486  -15.8282   22.8111 N.ar    1  UNL1       -0.1337
     34 N         -11.1516  -17.0410   23.4554 N.ar    1  UNL1       -0.1337
     35 C         -10.2832  -18.2196   23.1286 C.ar    1  UNL1        0.1425
     36 C         -10.5140  -19.6344   23.5704 C.3     1  UNL1        0.0588
     37 C         -10.2944  -20.3731   24.8572 C.3     1  UNL1        0.0080
     38 C         -11.0869  -20.6356   22.6115 C.3     1  UNL1        0.0080
@<TRIPOS>BOND
     1     2     3    1
     2     3     4   ar
     3     4     5   ar
     4     5     6   ar
     5     6     1    1
     6     1    20    1
     7    20    21    1
     8    21    22    1
     9    22    23    1
    10    23    24    1
    11    24    25    1
    12    26    25    1
    13    26    27    1
    14    27    28    1
    15    28    30    1
    16    30    31   ar
    17    31    32    1
    18    31    33   ar
    19    33    34   ar
    20    34    35   ar
    21    35    36    1
    22    36    37    1
    23    36    38    1
    24    28    29    1
    25     1     8    1
    26     8     9   am
    27     9    10    2
    28     9    12    1
    29    12    13    1
    30    13    14    1
    31    14    15    1
    32    15    16    1
    33    15    17    1
    34    15    18    1
    35    18    19    1
    36     6     7   ar
    37     7     3   ar
    38    26    22    1
    39    35    30   ar
    40    19    12    1
    41    29    23    1
    42     8    11    1
@<TRIPOS>MOLECULE
*****
 38 42 0 0 0
SMALL
GASTEIGER

@<TRIPOS>ATOM
      1 C          -7.2201  -17.6247   23.4013 C.3     1  UNL1        0.1014
      2 C          -8.6267  -14.9671   27.7418 C.3     1  UNL1        0.0381
      3 C          -8.0212  -15.3113   26.4132 C.ar    1  UNL1        0.0074
      4 C          -7.2041  -14.3940   25.5525 C.ar    1  UNL1        0.0024
      5 C          -6.8045  -15.1489   24.3194 C.ar    1  UNL1        0.0039
      6 C          -7.3747  -16.5328   24.4181 C.ar    1  UNL1        0.0248
      7 S          -8.1267  -16.6332   25.7122 S.2     1  UNL1       -0.0940
      8 N          -6.0079  -17.6611   22.5184 N.am    1  UNL1       -0.3017
      9 C          -4.6366  -17.6252   23.1253 C.2     1  UNL1        0.2222
     10 O          -4.4774  -17.5530   24.6151 O.2     1  UNL1       -0.2751
     11 H          -6.1124  -17.7086   21.5406 H       1  UNL1        0.1497
     12 C          -3.4246  -17.6616   22.2424 C.3     1  UNL1        0.0769
     13 C          -3.0357  -18.9367   21.5546 C.3     1  UNL1        0.0147
     14 C          -1.8236  -18.9731   20.6717 C.3     1  UNL1        0.0671
     15 C          -1.0005  -17.7344   20.4765 C.3     1  UNL1        0.2640
     16 F           0.0892  -16.8294   19.9829 F       1  UNL1       -0.2043
     17 F          -0.2332  -18.6952   19.6174 F       1  UNL1       -0.2043
     18 C          -1.3893  -16.4593   21.1643 C.3     1  UNL1        0.0671
     19 C          -2.6014  -16.4230   22.0472 C.3     1  UNL1        0.0147
     20 C          -8.2774  -18.6801   23.2675 C.3     1  UNL1        0.0419
     21 C          -8.5564  -19.2967   21.9288 C.3     1  UNL1        0.0741
     22 N          -7.4215  -19.7706   21.0702 N.3     1  UNL1       -0.2750
     23 C          -7.1680  -19.3739   19.6460 C.3     1  UNL1        0.0594
     24 C          -5.9306  -20.0825   19.1805 C.3     1  UNL1        0.0174
     25 C          -5.4193  -20.9173   20.3170 C.3     1  UNL1        0.0174
     26 C          -6.3407  -20.7245   21.4849 C.3     1  UNL1        0.0594
     27 C          -7.4173  -20.3458   22.4732 C.3     1  UNL1        0.0386
     28 C          -8.4276  -19.3859   21.9182 C.3     1  UNL1        0.0904
     29 C          -8.3030  -18.8999   20.5046 C.3     1  UNL1        0.0386
     30 N          -9.5626  -18.9120   22.7770 N.ar    1  UNL1       -0.3039
     31 C         -10.1172  -19.6223   23.9761 C.ar    1  UNL1        0.1433
     32 C          -9.6343  -20.9312   24.5270 C.3     1  UNL1        0.0738
     33 N         -11.2395  -18.7939   24.5275 N.ar    1  UNL1       -0.1337
     34 N         -11.3786  -17.5716   23.6692 N.ar    1  UNL1       -0.1337
     35 C         -10.3421  -17.6446   22.5873 C.ar    1  UNL1        0.1425
     36 C         -10.1236  -16.6286   21.5056 C.3     1  UNL1        0.0588
     37 C          -9.1546  -15.4994   21.3171 C.3     1  UNL1        0.0080
     38 C         -10.9984  -16.6305   20.2871 C.3     1  UNL1        0.0080
@<TRIPOS>BOND
     1     2     3    1
     2     3     4   ar
     3     4     5   ar
     4     5     6   ar
     5     6     1    1
     6     1    20    1
     7    20    21    1
     8    21    22    1
     9    22    23    1
    10    23    24    1
    11    24    25    1
    12    26    25    1
    13    26    27    1
    14    27    28    1
    15    28    30    1
    16    30    31   ar
    17    31    32    1
    18    31    33   ar
    19    33    34   ar
    20    34    35   ar
    21    35    36    1
    22    36    37    1
    23    36    38    1
    24    28    29    1
    25     1     8    1
    26     8     9   am
    27     9    10    2
    28     9    12    1
    29    12    13    1
    30    13    14    1
    31    14    15    1
    32    15    16    1
    33    15    17    1
    34    15    18    1
    35    18    19    1
    36     6     7   ar
    37     7     3   ar
    38    26    22    1
    39    35    30   ar
    40    19    12    1
    41    29    23    1
    42     8    11    1
@<TRIPOS>MOLECULE
*****
 38 42 0 0 0
SMALL
GASTEIGER

@<TRIPOS>ATOM
      1 C           4.9698    0.3790   20.7449 C.3     1  UNL1        0.1014
      2 C           8.5542    4.2221   20.2312 C.3     1  UNL1        0.0381
      3 C           7.9261    2.8711   20.4059 C.ar    1  UNL1        0.0074
      4 C           8.6589    1.5716   20.5616 C.ar    1  UNL1        0.0024
      5 C           7.6407    0.4799   20.7075 C.ar    1  UNL1        0.0039
      6 C           6.2786    1.1046   20.6420 C.ar    1  UNL1        0.0248
      7 S           6.4549    2.5826   20.4556 S.2     1  UNL1       -0.0940
      8 N           3.9600    0.7958   21.7730 N.am    1  UNL1       -0.3017
      9 C           3.8423    0.0346   23.0602 C.2     1  UNL1        0.2222
     10 O           4.7342   -1.1433   23.3193 O.2     1  UNL1       -0.2751
     11 H           3.3746    1.5688   21.6030 H       1  UNL1        0.1497
     12 C           2.8326    0.4513   24.0882 C.3     1  UNL1        0.0769
     13 C           3.2166    0.5065   25.5372 C.3     1  UNL1        0.0147
     14 C           2.2069    0.9232   26.5653 C.3     1  UNL1        0.0671
     15 C           0.8133    1.2847   26.1443 C.3     1  UNL1        0.2640
     16 F          -0.6199    1.7177   26.2379 F       1  UNL1       -0.2043
     17 F           0.6995    1.4903   27.6258 F       1  UNL1       -0.2043
     18 C           0.4293    1.2296   24.6953 C.3     1  UNL1        0.0671
     19 C           1.4390    0.8129   23.6673 C.3     1  UNL1        0.0147
     20 C           4.6707   -0.7631   19.8198 C.3     1  UNL1        0.0419
     21 C           3.5509   -0.6515   18.8280 C.3     1  UNL1        0.0741
     22 N           2.2616    0.0053   19.2234 N.3     1  UNL1       -0.2750
     23 C           1.7534    1.3240   18.7206 C.3     1  UNL1        0.0594
     24 C           0.4318    1.5925   19.3774 C.3     1  UNL1        0.0174
     25 C           0.1232    0.4397   20.2861 C.3     1  UNL1        0.0174
     26 C           1.2540   -0.5413   20.1909 C.3     1  UNL1        0.0594
     27 C           2.5081   -1.3295   19.8992 C.3     1  UNL1        0.0386
     28 C           3.4201   -0.6595   18.9146 C.3     1  UNL1        0.0904
     29 C           3.0427    0.6672   18.3253 C.3     1  UNL1        0.0386
     30 N           4.7094   -1.3164   18.5192 N.ar    1  UNL1       -0.3039
     31 C           5.7783   -0.7130   17.6570 C.ar    1  UNL1        0.1433
     32 C           5.7454    0.6533   17.0387 C.3     1  UNL1        0.0738
     33 N           6.8856   -1.7157   17.5216 N.ar    1  UNL1       -0.1337
     34 N           6.5012   -2.9387   18.3002 N.ar    1  UNL1       -0.1337
     35 C           5.1562   -2.6920   18.9167 C.ar    1  UNL1        0.1425
     36 C           4.3921   -3.6523   19.7794 C.3     1  UNL1        0.0588
     37 C           4.4003   -3.9695   21.2454 C.3     1  UNL1        0.0080
     38 C           3.3613   -4.5536   19.1671 C.3     1  UNL1        0.0080
@<TRIPOS>BOND
     1     2     3    1
     2     3     4   ar
     3     4     5   ar
     4     5     6   ar
     5     6     1    1
     6     1    20    1
     7    20    21    1
     8    21    22    1
     9    22    23    1
    10    23    24    1
    11    24    25    1
    12    26    25    1
    13    26    27    1
    14    27    28    1
    15    28    30    1
    16    30    31   ar
    17    31    32    1
    18    31    33   ar
    19    33    34   ar
    20    34    35   ar
    21    35    36    1
    22    36    37    1
    23    36    38    1
    24    28    29    1
    25     1     8    1
    26     8     9   am
    27     9    10    2
    28     9    12    1
    29    12    13    1
    30    13    14    1
    31    14    15    1
    32    15    16    1
    33    15    17    1
    34    15    18    1
    35    18    19    1
    36     6     7   ar
    37     7     3   ar
    38    26    22    1
    39    35    30   ar
    40    19    12    1
    41    29    23    1
    42     8    11    1
@<TRIPOS>MOLECULE
*****
 38 42 0 0 0
SMALL
GASTEIGER

@<TRIPOS>ATOM
      1 C           4.9914    0.0582   20.8443 C.3     1  UNL1        0.1014
      2 C           6.3450    5.0771   21.7717 C.3     1  UNL1        0.0381
      3 C           5.5453    3.8133   21.6553 C.ar    1  UNL1        0.0074
      4 C           4.0908    3.6567   21.9869 C.ar    1  UNL1        0.0024
      5 C           3.7063    2.2309   21.7235 C.ar    1  UNL1        0.0039
      6 C           4.9231    1.5064   21.2291 C.ar    1  UNL1        0.0248
      7 S           6.0597    2.4844   21.1869 S.2     1  UNL1       -0.0940
      8 N           5.2165   -0.9874   21.8962 N.am    1  UNL1       -0.3017
      9 C           6.5480   -1.6698   22.0024 C.2     1  UNL1        0.2222
     10 O           7.6545   -1.3068   21.0568 O.2     1  UNL1       -0.2751
     11 H           4.4904   -1.2256   22.5168 H       1  UNL1        0.1497
     12 C           6.7731   -2.7153   23.0541 C.3     1  UNL1        0.0769
     13 C           7.4509   -4.0049   22.6968 C.3     1  UNL1        0.0147
     14 C           7.6761   -5.0504   23.7486 C.3     1  UNL1        0.0671
     15 C           7.2233   -4.8063   25.1577 C.3     1  UNL1        0.2640
     16 F           6.9762   -5.0381   26.6189 F       1  UNL1       -0.2043
     17 F           7.8153   -6.1764   25.3078 F       1  UNL1       -0.2043
     18 C           6.5455   -3.5168   25.5150 C.3     1  UNL1        0.0671
     19 C           6.3204   -2.4713   24.4632 C.3     1  UNL1        0.0147
     20 C           4.8346   -0.3444   19.4080 C.3     1  UNL1        0.0419
     21 C           3.5036   -0.8168   18.9025 C.3     1  UNL1        0.0741
     22 N           2.2503   -0.0977   19.3051 N.3     1  UNL1       -0.2750
     23 C           1.2730   -0.5471   20.3506 C.3     1  UNL1        0.0594
     24 C           0.1729    0.4698   20.4245 C.3     1  UNL1        0.0174
     25 C           0.4701    1.5477   19.4246 C.3     1  UNL1        0.0174
     26 C           1.7540    1.1969   18.7327 C.3     1  UNL1        0.0594
     27 C           3.0412    0.6008   18.2162 C.3     1  UNL1        0.0386
     28 C           3.4105   -0.6922   18.8809 C.3     1  UNL1        0.0904
     29 C           2.5264   -1.2662   19.9481 C.3     1  UNL1        0.0386
     30 N           4.6639   -1.4113   18.4783 N.ar    1  UNL1       -0.3039
     31 C           5.7817   -0.8418   17.6560 C.ar    1  UNL1        0.1433
     32 C           5.8423    0.5467   17.0918 C.3     1  UNL1        0.0738
     33 N           6.8281   -1.9046   17.4969 N.ar    1  UNL1       -0.1337
     34 N           6.3572   -3.1309   18.2209 N.ar    1  UNL1       -0.1337
     35 C           5.0196   -2.8261   18.8275 C.ar    1  UNL1        0.1425
     36 C           4.1843   -3.7702   19.6405 C.3     1  UNL1        0.0588
     37 C           4.1410   -4.1352   21.0947 C.3     1  UNL1        0.0080
     38 C           3.1201   -4.5924   18.9760 C.3     1  UNL1        0.0080
@<TRIPOS>BOND
     1     2     3    1
     2     3     4   ar
     3     4     5   ar
     4     5     6   ar
     5     6     1    1
     6     1    20    1
     7    20    21    1
     8    21    22    1
     9    22    23    1
    10    23    24    1
    11    24    25    1
    12    26    25    1
    13    26    27    1
    14    27    28    1
    15    28    30    1
    16    30    31   ar
    17    31    32    1
    18    31    33   ar
    19    33    34   ar
    20    34    35   ar
    21    35    36    1
    22    36    37    1
    23    36    38    1
    24    28    29    1
    25     1     8    1
    26     8     9   am
    27     9    10    2
    28     9    12    1
    29    12    13    1
    30    13    14    1
    31    14    15    1
    32    15    16    1
    33    15    17    1
    34    15    18    1
    35    18    19    1
    36     6     7   ar
    37     7     3   ar
    38    26    22    1
    39    35    30   ar
    40    19    12    1
    41    29    23    1
    42     8    11    1
@<TRIPOS>MOLECULE
*****
 38 42 0 0 0
SMALL
GASTEIGER

@<TRIPOS>ATOM
      1 C           4.6222   -0.5126   20.6599 C.3     1  UNL1        0.1014
      2 C           6.6386   -3.9688   24.1052 C.3     1  UNL1        0.0381
      3 C           6.5175   -2.9591   23.0025 C.ar    1  UNL1        0.0074
      4 C           7.6447   -2.4222   22.1710 C.ar    1  UNL1        0.0024
      5 C           7.0719   -1.4405   21.1922 C.ar    1  UNL1        0.0039
      6 C           5.5908   -1.3705   21.4188 C.ar    1  UNL1        0.0248
      7 S           5.2481   -2.3091   22.5376 S.2     1  UNL1       -0.0940
      8 N           3.3460   -0.0669   21.3102 N.am    1  UNL1       -0.3017
      9 C           3.3585    1.0771   22.2804 C.2     1  UNL1        0.2222
     10 O           4.6470    1.7753   22.6002 O.2     1  UNL1       -0.2751
     11 H           2.5004   -0.5251   21.1003 H       1  UNL1        0.1497
     12 C           2.0824    1.5228   22.9307 C.3     1  UNL1        0.0769
     13 C           1.2473    2.5913   22.2896 C.3     1  UNL1        0.0147
     14 C          -0.0288    3.0371   22.9399 C.3     1  UNL1        0.0671
     15 C          -0.4698    2.4143   24.2313 C.3     1  UNL1        0.2640
     16 F          -1.3011    2.1281   25.4466 F       1  UNL1       -0.2043
     17 F          -1.5936    3.3834   24.0122 F       1  UNL1       -0.2043
     18 C           0.3653    1.3458   24.8724 C.3     1  UNL1        0.0671
     19 C           1.6414    0.9001   24.2221 C.3     1  UNL1        0.0147
     20 C           4.9297   -0.1006   19.2508 C.3     1  UNL1        0.0419
     21 C           3.8144    0.1026   18.2685 C.3     1  UNL1        0.0741
     22 N           2.8301    1.2162   18.4711 N.3     1  UNL1       -0.2750
     23 C           1.3387    1.1069   18.3538 C.3     1  UNL1        0.0594
     24 C           0.7512    2.4578   18.6368 C.3     1  UNL1        0.0174
     25 C           1.8796    3.4019   18.9289 C.3     1  UNL1        0.0174
     26 C           3.1644    2.6346   18.8265 C.3     1  UNL1        0.0594
     27 C           4.2773    1.6287   18.6573 C.3     1  UNL1        0.0386
     28 C           3.7923    0.2542   18.3030 C.3     1  UNL1        0.0904
     29 C           2.3230   -0.0067   18.1512 C.3     1  UNL1        0.0386
     30 N           4.7766   -0.8594   18.1004 N.ar    1  UNL1       -0.3039
     31 C           4.5441   -2.3088   18.4090 C.ar    1  UNL1        0.1433
     32 C           3.2863   -2.8990   18.9744 C.3     1  UNL1        0.0738
     33 N           5.7900   -3.0642   18.0530 N.ar    1  UNL1       -0.1337
     34 N           6.7927   -2.0818   17.5243 N.ar    1  UNL1       -0.1337
     35 C           6.1664   -0.7191   17.5536 C.ar    1  UNL1        0.1425
     36 C           6.8158    0.5594   17.1134 C.3     1  UNL1        0.0588
     37 C           6.5738    1.5158   15.9836 C.3     1  UNL1        0.0080
     38 C           7.9749    1.1164   17.8856 C.3     1  UNL1        0.0080
@<TRIPOS>BOND
     1     2     3    1
     2     3     4   ar
     3     4     5   ar
     4     5     6   ar
     5     6     1    1
     6     1    20    1
     7    20    21    1
     8    21    22    1
     9    22    23    1
    10    23    24    1
    11    24    25    1
    12    26    25    1
    13    26    27    1
    14    27    28    1
    15    28    30    1
    16    30    31   ar
    17    31    32    1
    18    31    33   ar
    19    33    34   ar
    20    34    35   ar
    21    35    36    1
    22    36    37    1
    23    36    38    1
    24    28    29    1
    25     1     8    1
    26     8     9   am
    27     9    10    2
    28     9    12    1
    29    12    13    1
    30    13    14    1
    31    14    15    1
    32    15    16    1
    33    15    17    1
    34    15    18    1
    35    18    19    1
    36     6     7   ar
    37     7     3   ar
    38    26    22    1
    39    35    30   ar
    40    19    12    1
    41    29    23    1
    42     8    11    1
@<TRIPOS>MOLECULE
*****
 38 42 0 0 0
SMALL
GASTEIGER

@<TRIPOS>ATOM
      1 C           5.1703   -0.2032   20.9569 C.3     1  UNL1        0.1014
      2 C           9.1898   -1.6473   24.0617 C.3     1  UNL1        0.0381
      3 C           8.4039   -1.1299   22.8934 C.ar    1  UNL1        0.0074
      4 C           8.9750   -0.6117   21.6068 C.ar    1  UNL1        0.0024
      5 C           7.8332   -0.2014   20.7248 C.ar    1  UNL1        0.0039
      6 C           6.5565   -0.4661   21.4662 C.ar    1  UNL1        0.0248
      7 S           6.9092   -1.0400   22.8065 S.2     1  UNL1       -0.0940
      8 N           4.0641    0.1100   21.9206 N.am    1  UNL1       -0.3017
      9 C           3.7247    1.5369   22.2347 C.2     1  UNL1        0.2222
     10 O           4.4914    2.6507   21.5853 O.2     1  UNL1       -0.2751
     11 H           3.5610   -0.6210   22.3468 H       1  UNL1        0.1497
     12 C           2.6187    1.8501   23.1983 C.3     1  UNL1        0.0769
     13 C           1.6936    0.7622   23.6574 C.3     1  UNL1        0.0147
     14 C           0.5875    1.0753   24.6211 C.3     1  UNL1        0.0671
     15 C           0.4065    2.4763   25.1255 C.3     1  UNL1        0.2640
     16 F          -0.1647    3.6398   25.8805 F       1  UNL1       -0.2043
     17 F          -0.7169    1.7925   25.8468 F       1  UNL1       -0.2043
     18 C           1.3316    3.5642   24.6664 C.3     1  UNL1        0.0671
     19 C           2.4376    3.2511   23.7028 C.3     1  UNL1        0.0147
     20 C           4.8902   -0.2534   19.4842 C.3     1  UNL1        0.0419
     21 C           3.5658   -0.7543   18.9894 C.3     1  UNL1        0.0741
     22 N           2.2992   -0.0737   19.4166 N.3     1  UNL1       -0.2750
     23 C           1.1747   -0.7044   20.1832 C.3     1  UNL1        0.0594
     24 C           0.1153    0.3367   20.3927 C.3     1  UNL1        0.0174
     25 C           0.5851    1.6108   19.7556 C.3     1  UNL1        0.0174
     26 C           1.9349    1.3572   19.1523 C.3     1  UNL1        0.0594
     27 C           3.2549    0.8218   18.6525 C.3     1  UNL1        0.0386
     28 C           3.4813   -0.6219   18.9906 C.3     1  UNL1        0.0904
     29 C           2.4412   -1.3850   19.7559 C.3     1  UNL1        0.0386
     30 N           4.7479   -1.3026   18.5633 N.ar    1  UNL1       -0.3039
     31 C           5.7782   -0.7417   17.6284 C.ar    1  UNL1        0.1433
     32 C           5.7228    0.5983   16.9567 C.3     1  UNL1        0.0738
     33 N           6.8735   -1.7561   17.4832 N.ar    1  UNL1       -0.1337
     34 N           6.5204   -2.9439   18.3283 N.ar    1  UNL1       -0.1337
     35 C           5.2066   -2.6637   18.9958 C.ar    1  UNL1        0.1425
     36 C           4.4792   -3.5831   19.9317 C.3     1  UNL1        0.0588
     37 C           4.4480   -3.7404   21.4230 C.3     1  UNL1        0.0080
     38 C           3.5448   -4.6222   19.3866 C.3     1  UNL1        0.0080
@<TRIPOS>BOND
     1     2     3    1
     2     3     4   ar
     3     4     5   ar
     4     5     6   ar
     5     6     1    1
     6     1    20    1
     7    20    21    1
     8    21    22    1
     9    22    23    1
    10    23    24    1
    11    24    25    1
    12    26    25    1
    13    26    27    1
    14    27    28    1
    15    28    30    1
    16    30    31   ar
    17    31    32    1
    18    31    33   ar
    19    33    34   ar
    20    34    35   ar
    21    35    36    1
    22    36    37    1
    23    36    38    1
    24    28    29    1
    25     1     8    1
    26     8     9   am
    27     9    10    2
    28     9    12    1
    29    12    13    1
    30    13    14    1
    31    14    15    1
    32    15    16    1
    33    15    17    1
    34    15    18    1
    35    18    19    1
    36     6     7   ar
    37     7     3   ar
    38    26    22    1
    39    35    30   ar
    40    19    12    1
    41    29    23    1
    42     8    11    1
@<TRIPOS>MOLECULE
*****
 38 42 0 0 0
SMALL
GASTEIGER

@<TRIPOS>ATOM
      1 C           5.2718   -1.2910   21.7555 C.3     1  UNL1        0.1014
      2 C           3.7194    2.5613   25.0160 C.3     1  UNL1        0.0381
      3 C           3.7705    1.2676   24.2584 C.ar    1  UNL1        0.0074
      4 C           2.7730    0.1512   24.3519 C.ar    1  UNL1        0.0024
      5 C           3.2139   -0.9431   23.4257 C.ar    1  UNL1        0.0039
      6 C           4.4840   -0.5031   22.7598 C.ar    1  UNL1        0.0248
      7 S           4.8279    0.8632   23.2744 S.2     1  UNL1       -0.0940
      8 N           5.7837   -2.6563   22.1081 N.am    1  UNL1       -0.3017
      9 C           7.0177   -2.8006   22.9486 C.2     1  UNL1        0.2222
     10 O           7.7399   -1.5797   23.4365 O.2     1  UNL1       -0.2751
     11 H           5.3098   -3.4576   21.7878 H       1  UNL1        0.1497
     12 C           7.5296   -4.1657   23.3011 C.3     1  UNL1        0.0769
     13 C           7.1900   -4.7741   24.6295 C.3     1  UNL1        0.0147
     14 C           7.7018   -6.1393   24.9821 C.3     1  UNL1        0.0671
     15 C           8.5533   -6.8961   24.0062 C.3     1  UNL1        0.2640
     16 F           9.3874   -7.9970   23.4212 F       1  UNL1       -0.2043
     17 F           8.5033   -7.8867   25.1314 F       1  UNL1       -0.2043
     18 C           8.8929   -6.2877   22.6778 C.3     1  UNL1        0.0671
     19 C           8.3810   -4.9226   22.3253 C.3     1  UNL1        0.0147
     20 C           5.5477   -0.7138   20.3989 C.3     1  UNL1        0.0419
     21 C           4.8000   -1.2214   19.2017 C.3     1  UNL1        0.0741
     22 N           4.4636   -2.6789   19.0899 N.3     1  UNL1       -0.2750
     23 C           3.1451   -3.3081   19.4300 C.3     1  UNL1        0.0594
     24 C           3.2533   -4.7812   19.1688 C.3     1  UNL1        0.0174
     25 C           4.6387   -5.0624   18.6672 C.3     1  UNL1        0.0174
     26 C           5.3867   -3.7632   18.6185 C.3     1  UNL1        0.0594
     27 C           5.8810   -2.3378   18.6730 C.3     1  UNL1        0.0386
     28 C           4.8494   -1.3654   19.1633 C.3     1  UNL1        0.0904
     29 C           3.4815   -1.8506   19.5418 C.3     1  UNL1        0.0386
     30 N           5.1858    0.0922   19.2750 N.ar    1  UNL1       -0.3039
     31 C           6.5654    0.6811   19.2767 C.ar    1  UNL1        0.1433
     32 C           7.8508   -0.0842   19.1669 C.3     1  UNL1        0.0738
     33 N           6.4338    2.1695   19.4074 N.ar    1  UNL1       -0.1337
     34 N           4.9730    2.5006   19.4864 N.ar    1  UNL1       -0.1337
     35 C           4.2017    1.2167   19.4046 C.ar    1  UNL1        0.1425
     36 C           2.7083    1.0812   19.4453 C.3     1  UNL1        0.0588
     37 C           1.6638    0.7505   18.4209 C.3     1  UNL1        0.0080
     38 C           1.9703    1.2982   20.7331 C.3     1  UNL1        0.0080
@<TRIPOS>BOND
     1     2     3    1
     2     3     4   ar
     3     4     5   ar
     4     5     6   ar
     5     6     1    1
     6     1    20    1
     7    20    21    1
     8    21    22    1
     9    22    23    1
    10    23    24    1
    11    24    25    1
    12    26    25    1
    13    26    27    1
    14    27    28    1
    15    28    30    1
    16    30    31   ar
    17    31    32    1
    18    31    33   ar
    19    33    34   ar
    20    34    35   ar
    21    35    36    1
    22    36    37    1
    23    36    38    1
    24    28    29    1
    25     1     8    1
    26     8     9   am
    27     9    10    2
    28     9    12    1
    29    12    13    1
    30    13    14    1
    31    14    15    1
    32    15    16    1
    33    15    17    1
    34    15    18    1
    35    18    19    1
    36     6     7   ar
    37     7     3   ar
    38    26    22    1
    39    35    30   ar
    40    19    12    1
    41    29    23    1
    42     8    11    1
@<TRIPOS>MOLECULE
*****
 38 42 0 0 0
SMALL
GASTEIGER

@<TRIPOS>ATOM
      1 C           4.9519    0.4042   20.7154 C.3     1  UNL1        0.1014
      2 C           9.2566    3.2530   19.6039 C.3     1  UNL1        0.0381
      3 C           7.8253    2.8415   19.7835 C.ar    1  UNL1        0.0074
      4 C           6.6218    3.6940   19.5097 C.ar    1  UNL1        0.0024
      5 C           5.3990    2.8848   19.8254 C.ar    1  UNL1        0.0039
      6 C           5.8466    1.5322   20.2944 C.ar    1  UNL1        0.0248
      7 S           7.3462    1.5054   20.2685 S.2     1  UNL1       -0.0940
      8 N           4.2844    0.4377   22.0583 N.am    1  UNL1       -0.3017
      9 C           4.8872   -0.3043   23.2142 C.2     1  UNL1        0.2222
     10 O           6.1576   -1.0797   23.0272 O.2     1  UNL1       -0.2751
     11 H           3.4506    0.9466   22.1810 H       1  UNL1        0.1497
     12 C           4.2197   -0.2708   24.5570 C.3     1  UNL1        0.0769
     13 C           3.3837    0.9111   24.9498 C.3     1  UNL1        0.0147
     14 C           2.7161    0.9446   26.2927 C.3     1  UNL1        0.0671
     15 C           2.8846   -0.2039   27.2427 C.3     1  UNL1        0.2640
     16 F           2.7460   -1.0431   28.4783 F       1  UNL1       -0.2043
     17 F           2.0005    0.6866   28.0646 F       1  UNL1       -0.2043
     18 C           3.7205   -1.3858   26.8500 C.3     1  UNL1        0.0671
     19 C           4.3881   -1.4193   25.5072 C.3     1  UNL1        0.0147
     20 C           4.7247   -0.7570   19.7936 C.3     1  UNL1        0.0419
     21 C           3.5499   -0.7555   18.8609 C.3     1  UNL1        0.0741
     22 N           2.2681   -0.0929   19.2703 N.3     1  UNL1       -0.2750
     23 C           1.7010    1.1669   18.6861 C.3     1  UNL1        0.0594
     24 C           0.4106    1.4648   19.3905 C.3     1  UNL1        0.0174
     25 C           0.1802    0.3891   20.4102 C.3     1  UNL1        0.0174
     26 C           1.3281   -0.5736   20.3359 C.3     1  UNL1        0.0594
     27 C           2.5837   -1.3589   20.0427 C.3     1  UNL1        0.0386
     28 C           3.4242   -0.7587   18.9550 C.3     1  UNL1        0.0904
     29 C           2.9829    0.5043   18.2766 C.3     1  UNL1        0.0386
     30 N           4.7062   -1.4214   18.5455 N.ar    1  UNL1       -0.3039
     31 C           5.7324   -0.8542   17.6100 C.ar    1  UNL1        0.1433
     32 C           5.6569    0.4754   16.9197 C.3     1  UNL1        0.0738
     33 N           6.8473   -1.8499   17.4861 N.ar    1  UNL1       -0.1337
     34 N           6.5102   -3.0325   18.3450 N.ar    1  UNL1       -0.1337
     35 C           5.1869   -2.7677   18.9998 C.ar    1  UNL1        0.1425
     36 C           4.4701   -3.6877   19.9432 C.3     1  UNL1        0.0588
     37 C           4.4926   -3.8787   21.4307 C.3     1  UNL1        0.0080
     38 C           3.4852   -4.6871   19.4128 C.3     1  UNL1        0.0080
@<TRIPOS>BOND
     1     2     3    1
     2     3     4   ar
     3     4     5   ar
     4     5     6   ar
     5     6     1    1
     6     1    20    1
     7    20    21    1
     8    21    22    1
     9    22    23    1
    10    23    24    1
    11    24    25    1
    12    26    25    1
    13    26    27    1
    14    27    28    1
    15    28    30    1
    16    30    31   ar
    17    31    32    1
    18    31    33   ar
    19    33    34   ar
    20    34    35   ar
    21    35    36    1
    22    36    37    1
    23    36    38    1
    24    28    29    1
    25     1     8    1
    26     8     9   am
    27     9    10    2
    28     9    12    1
    29    12    13    1
    30    13    14    1
    31    14    15    1
    32    15    16    1
    33    15    17    1
    34    15    18    1
    35    18    19    1
    36     6     7   ar
    37     7     3   ar
    38    26    22    1
    39    35    30   ar
    40    19    12    1
    41    29    23    1
    42     8    11    1
@<TRIPOS>MOLECULE
*****
 38 42 0 0 0
SMALL
GASTEIGER

@<TRIPOS>ATOM
      1 C           4.2757   -0.9145   22.3414 C.3     1  UNL1        0.1014
      2 C           7.9276   -3.3912   25.2416 C.3     1  UNL1        0.0381
      3 C           6.7859   -3.1308   24.3041 C.ar    1  UNL1        0.0074
      4 C           5.9882   -4.1717   23.5757 C.ar    1  UNL1        0.0024
      5 C           4.9508   -3.4681   22.7518 C.ar    1  UNL1        0.0039
      6 C           5.1073   -1.9925   22.9710 C.ar    1  UNL1        0.0248
      7 S           6.2415   -1.7840   23.9303 S.2     1  UNL1       -0.0940
      8 N           3.0048   -0.4665   23.0003 N.am    1  UNL1       -0.3017
      9 C           2.9655    0.8329   23.7486 C.2     1  UNL1        0.2222
     10 O           4.1971    1.6845   23.8378 O.2     1  UNL1       -0.2751
     11 H           2.1964   -1.0255   22.9418 H       1  UNL1        0.1497
     12 C           1.6946    1.2808   24.4075 C.3     1  UNL1        0.0769
     13 C           0.6569    2.0168   23.6129 C.3     1  UNL1        0.0147
     14 C          -0.6141    2.4647   24.2718 C.3     1  UNL1        0.0671
     15 C          -0.8472    2.1766   25.7253 C.3     1  UNL1        0.2640
     16 F          -1.5222    2.1396   27.0644 F       1  UNL1       -0.2043
     17 F          -2.1194    2.8998   25.3958 F       1  UNL1       -0.2043
     18 C           0.1906    1.4405   26.5199 C.3     1  UNL1        0.0671
     19 C           1.4614    0.9927   25.8610 C.3     1  UNL1        0.0147
     20 C           4.7150   -0.2845   21.0530 C.3     1  UNL1        0.0419
     21 C           4.2199   -0.8278   19.7454 C.3     1  UNL1        0.0741
     22 N           4.3210   -2.2963   19.4568 N.3     1  UNL1       -0.2750
     23 C           3.1870   -3.2780   19.4723 C.3     1  UNL1        0.0594
     24 C           3.7390   -4.6294   19.1272 C.3     1  UNL1        0.0174
     25 C           5.2141   -4.4828   18.8984 C.3     1  UNL1        0.0174
     26 C           5.5739   -3.0409   19.1021 C.3     1  UNL1        0.0594
     27 C           5.6410   -1.5557   19.3646 C.3     1  UNL1        0.0386
     28 C           4.3128   -0.9484   19.7070 C.3     1  UNL1        0.0904
     29 C           3.0859   -1.8095   19.7609 C.3     1  UNL1        0.0386
     30 N           4.2118    0.5202   19.9956 N.ar    1  UNL1       -0.3039
     31 C           5.3532    1.4332   20.3324 C.ar    1  UNL1        0.1433
     32 C           6.7963    1.0380   20.4397 C.3     1  UNL1        0.0738
     33 N           4.7984    2.8108   20.5429 N.ar    1  UNL1       -0.1337
     34 N           3.3140    2.7492   20.3363 N.ar    1  UNL1       -0.1337
     35 C           2.9514    1.3336   19.9980 C.ar    1  UNL1        0.1425
     36 C           1.5708    0.8211   19.7123 C.3     1  UNL1        0.0588
     37 C           0.5047    0.1774   20.5481 C.3     1  UNL1        0.0080
     38 C           1.0097    0.9115   18.3241 C.3     1  UNL1        0.0080
@<TRIPOS>BOND
     1     2     3    1
     2     3     4   ar
     3     4     5   ar
     4     5     6   ar
     5     6     1    1
     6     1    20    1
     7    20    21    1
     8    21    22    1
     9    22    23    1
    10    23    24    1
    11    24    25    1
    12    26    25    1
    13    26    27    1
    14    27    28    1
    15    28    30    1
    16    30    31   ar
    17    31    32    1
    18    31    33   ar
    19    33    34   ar
    20    34    35   ar
    21    35    36    1
    22    36    37    1
    23    36    38    1
    24    28    29    1
    25     1     8    1
    26     8     9   am
    27     9    10    2
    28     9    12    1
    29    12    13    1
    30    13    14    1
    31    14    15    1
    32    15    16    1
    33    15    17    1
    34    15    18    1
    35    18    19    1
    36     6     7   ar
    37     7     3   ar
    38    26    22    1
    39    35    30   ar
    40    19    12    1
    41    29    23    1
    42     8    11    1
