@<TRIPOS>MOLECULE
*****
 25 27 0 0 0
SMALL
GASTEIGER

@<TRIPOS>ATOM
      1 C          -6.3366  -16.0056   23.4757 C.ar    1  UNL1        0.1450
      2 C          -7.1770  -15.6419   24.6637 C.ar    1  UNL1        0.0561
      3 C          -8.6195  -16.0498   24.7150 C.ar    1  UNL1        0.0860
      4 N          -9.2217  -16.8214   23.5783 N.ar    1  UNL1       -0.2729
      5 C          -8.3813  -17.1851   22.3903 C.ar    1  UNL1        0.2679
      6 O          -8.9834  -17.9566   21.2536 O.2     1  UNL1       -0.2665
      7 C          -6.9388  -16.7772   22.3390 C.ar    1  UNL1        0.0980
      8 C         -10.6643  -17.2293   23.6297 C.ar    1  UNL1        0.0670
      9 C         -11.0899  -18.3723   24.5027 C.ar    1  UNL1        0.0199
     10 C         -12.5325  -18.7802   24.5540 C.ar    1  UNL1        0.0311
     11 C         -13.5495  -18.0450   23.7323 C.ar    1  UNL1        0.1402
     12 F         -14.9920  -18.4528   23.7837 F       1  UNL1       -0.2042
     13 C         -13.1238  -16.9018   22.8593 C.ar    1  UNL1        0.0311
     14 C         -11.6813  -16.4940   22.8080 C.ar    1  UNL1        0.0199
     15 O          -4.8940  -15.5977   23.4244 O.3     1  UNL1       -0.4714
     16 C          -3.8214  -16.5906   23.7615 C.3     1  UNL1        0.2485
     17 C          -2.1929  -16.1371   21.7886 C.3     1  UNL1        0.0513
     18 C          -2.9082  -17.1021   22.6870 C.3     1  UNL1        0.2094
     19 O          -2.7103  -18.5785   22.5109 O.3     1  UNL1       -0.4753
     20 C          -3.7347  -19.3900   21.7746 C.ar    1  UNL1        0.1386
     21 C          -3.3876  -20.0202   20.4585 C.ar    1  UNL1        0.0369
     22 C          -4.4120  -20.8317   19.7221 C.ar    1  UNL1        0.0031
     23 C          -5.7834  -21.0129   20.3020 C.ar    1  UNL1        0.0002
     24 C          -6.1305  -20.3826   21.6182 C.ar    1  UNL1        0.0031
     25 C          -5.1062  -19.5712   22.3545 C.ar    1  UNL1        0.0369
@<TRIPOS>BOND
     1    17    18    1
     2    18    16    1
     3    16    15    1
     4    15     1    1
     5     1     2   ar
     6     2     3   ar
     7     3     4   ar
     8     4     8    1
     9     8     9   ar
    10     9    10   ar
    11    10    11   ar
    12    11    12    1
    13    11    13   ar
    14    13    14   ar
    15     4     5   ar
    16     5     6    2
    17     5     7   ar
    18    18    19    1
    19    19    20    1
    20    20    21   ar
    21    21    22   ar
    22    22    23   ar
    23    23    24   ar
    24    24    25   ar
    25     7     1   ar
    26    25    20   ar
    27    14     8   ar
@<TRIPOS>MOLECULE
*****
 25 27 0 0 0
SMALL
GASTEIGER

@<TRIPOS>ATOM
      1 C          -8.8576  -19.3196   20.6409 C.ar    1  UNL1        0.1450
      2 C          -8.1492  -19.9040   19.4549 C.ar    1  UNL1        0.0561
      3 C          -6.6576  -19.7930   19.3426 C.ar    1  UNL1        0.0860
      4 N          -5.8743  -19.0974   20.4163 N.ar    1  UNL1       -0.2729
      5 C          -6.5827  -18.5129   21.6022 C.ar    1  UNL1        0.2679
      6 O          -5.7995  -17.8174   22.6759 O.2     1  UNL1       -0.2665
      7 C          -8.0743  -18.6240   21.7145 C.ar    1  UNL1        0.0980
      8 C          -4.3826  -18.9864   20.3039 C.ar    1  UNL1        0.0670
      9 C          -3.7711  -18.2133   19.1733 C.ar    1  UNL1        0.0199
     10 C          -2.2794  -18.1022   19.0610 C.ar    1  UNL1        0.0311
     11 C          -1.3993  -18.7643   20.0793 C.ar    1  UNL1        0.1402
     12 F           0.0924  -18.6533   19.9670 F       1  UNL1       -0.2042
     13 C          -2.0108  -19.5375   21.2099 C.ar    1  UNL1        0.0311
     14 C          -3.5025  -19.6485   21.3222 C.ar    1  UNL1        0.0199
     15 O         -10.3493  -19.4306   20.7532 O.3     1  UNL1       -0.4714
     16 C         -11.2316  -18.5154   19.9570 C.3     1  UNL1        0.2485
     17 C         -11.5246  -15.9465   19.7025 C.3     1  UNL1        0.0513
     18 C         -11.6498  -17.1927   20.5278 C.3     1  UNL1        0.2094
     19 O         -12.1931  -17.1164   21.9238 O.3     1  UNL1       -0.4753
     20 C         -11.3059  -17.4295   23.0921 C.ar    1  UNL1        0.1386
     21 C         -11.4969  -18.7048   23.8582 C.ar    1  UNL1        0.0369
     22 C         -10.6097  -19.0180   25.0265 C.ar    1  UNL1        0.0031
     23 C          -9.5316  -18.0557   25.4286 C.ar    1  UNL1        0.0002
     24 C          -9.3406  -16.7803   24.6624 C.ar    1  UNL1        0.0031
     25 C         -10.2278  -16.4672   23.4942 C.ar    1  UNL1        0.0369
@<TRIPOS>BOND
     1    17    18    1
     2    18    16    1
     3    16    15    1
     4    15     1    1
     5     1     2   ar
     6     2     3   ar
     7     3     4   ar
     8     4     8    1
     9     8     9   ar
    10     9    10   ar
    11    10    11   ar
    12    11    12    1
    13    11    13   ar
    14    13    14   ar
    15     4     5   ar
    16     5     6    2
    17     5     7   ar
    18    18    19    1
    19    19    20    1
    20    20    21   ar
    21    21    22   ar
    22    22    23   ar
    23    23    24   ar
    24    24    25   ar
    25     7     1   ar
    26    25    20   ar
    27    14     8   ar
@<TRIPOS>MOLECULE
*****
 25 27 0 0 0
SMALL
GASTEIGER

@<TRIPOS>ATOM
      1 C          -8.2227  -19.3525   21.5506 C.ar    1  UNL1        0.1450
      2 C          -7.6258  -20.0417   20.3595 C.ar    1  UNL1        0.0561
      3 C          -6.1694  -19.8690   20.0450 C.ar    1  UNL1        0.0860
      4 N          -5.3099  -19.0071   20.9215 N.ar    1  UNL1       -0.2729
      5 C          -5.9068  -18.3178   22.1125 C.ar    1  UNL1        0.2679
      6 O          -5.0472  -17.4559   22.9890 O.2     1  UNL1       -0.2665
      7 C          -7.3632  -18.4905   22.4271 C.ar    1  UNL1        0.0980
      8 C          -3.8534  -18.8344   20.6069 C.ar    1  UNL1        0.0670
      9 C          -3.4354  -18.2117   19.3078 C.ar    1  UNL1        0.0199
     10 C          -1.9789  -18.0390   18.9932 C.ar    1  UNL1        0.0311
     11 C          -0.9405  -18.4890   19.9777 C.ar    1  UNL1        0.1402
     12 F           0.5160  -18.3163   19.6632 F       1  UNL1       -0.2042
     13 C          -1.3585  -19.1116   21.2769 C.ar    1  UNL1        0.0311
     14 C          -2.8150  -19.2843   21.5914 C.ar    1  UNL1        0.0199
     15 O          -9.6792  -19.5252   21.8652 O.3     1  UNL1       -0.4714
     16 C         -10.1764  -19.3008   23.2624 C.3     1  UNL1        0.2485
     17 C         -12.4073  -18.1441   23.9222 C.3     1  UNL1        0.0513
     18 C         -10.9463  -18.0568   23.5939 C.3     1  UNL1        0.2094
     19 O         -10.2551  -16.7256   23.5970 O.3     1  UNL1       -0.4753
     20 C          -9.2196  -16.4206   24.6384 C.ar    1  UNL1        0.1386
     21 C          -9.3199  -17.0414   26.0001 C.ar    1  UNL1        0.0369
     22 C          -8.2843  -16.7365   27.0417 C.ar    1  UNL1        0.0031
     23 C          -7.1484  -15.8106   26.7213 C.ar    1  UNL1        0.0002
     24 C          -7.0481  -15.1898   25.3595 C.ar    1  UNL1        0.0031
     25 C          -8.0837  -15.4947   24.3181 C.ar    1  UNL1        0.0369
@<TRIPOS>BOND
     1    17    18    1
     2    18    16    1
     3    16    15    1
     4    15     1    1
     5     1     2   ar
     6     2     3   ar
     7     3     4   ar
     8     4     8    1
     9     8     9   ar
    10     9    10   ar
    11    10    11   ar
    12    11    12    1
    13    11    13   ar
    14    13    14   ar
    15     4     5   ar
    16     5     6    2
    17     5     7   ar
    18    18    19    1
    19    19    20    1
    20    20    21   ar
    21    21    22   ar
    22    22    23   ar
    23    23    24   ar
    24    24    25   ar
    25     7     1   ar
    26    25    20   ar
    27    14     8   ar
@<TRIPOS>MOLECULE
*****
 25 27 0 0 0
SMALL
GASTEIGER

@<TRIPOS>ATOM
      1 C          -6.9426  -18.4873   22.0379 C.ar    1  UNL1        0.1450
      2 C          -7.7716  -17.2696   21.7557 C.ar    1  UNL1        0.0561
      3 C          -9.2174  -17.2379   22.1540 C.ar    1  UNL1        0.0860
      4 N          -9.8341  -18.4239   22.8344 N.ar    1  UNL1       -0.2729
      5 C          -9.0050  -19.6417   23.1166 C.ar    1  UNL1        0.2679
      6 O          -9.6217  -20.8277   23.7970 O.2     1  UNL1       -0.2665
      7 C          -7.5593  -19.6734   22.7183 C.ar    1  UNL1        0.0980
      8 C         -11.2800  -18.3922   23.2327 C.ar    1  UNL1        0.0670
      9 C         -11.6770  -18.7182   24.6420 C.ar    1  UNL1        0.0199
     10 C         -13.1229  -18.6864   25.0402 C.ar    1  UNL1        0.0311
     11 C         -14.1716  -18.3286   24.0292 C.ar    1  UNL1        0.1402
     12 F         -15.6174  -18.2969   24.4274 F       1  UNL1       -0.2042
     13 C         -13.7745  -18.0026   22.6199 C.ar    1  UNL1        0.0311
     14 C         -12.3287  -18.0344   22.2217 C.ar    1  UNL1        0.0199
     15 O          -5.4967  -18.5191   21.6396 O.3     1  UNL1       -0.4714
     16 C          -4.4285  -18.3556   22.6798 C.3     1  UNL1        0.2485
     17 C          -2.1351  -17.1479   22.5010 C.3     1  UNL1        0.0513
     18 C          -3.6166  -17.0952   22.7296 C.3     1  UNL1        0.2094
     19 O          -4.2864  -15.7822   23.0079 O.3     1  UNL1       -0.4753
     20 C          -5.2809  -15.6696   24.1250 C.ar    1  UNL1        0.1386
     21 C          -4.8686  -15.9893   25.5313 C.ar    1  UNL1        0.0369
     22 C          -5.8632  -15.8766   26.6486 C.ar    1  UNL1        0.0031
     23 C          -7.2701  -15.4443   26.3594 C.ar    1  UNL1        0.0002
     24 C          -7.6825  -15.1246   24.9531 C.ar    1  UNL1        0.0031
     25 C          -6.6879  -15.2372   23.8359 C.ar    1  UNL1        0.0369
@<TRIPOS>BOND
     1    17    18    1
     2    18    16    1
     3    16    15    1
     4    15     1    1
     5     1     2   ar
     6     2     3   ar
     7     3     4   ar
     8     4     8    1
     9     8     9   ar
    10     9    10   ar
    11    10    11   ar
    12    11    12    1
    13    11    13   ar
    14    13    14   ar
    15     4     5   ar
    16     5     6    2
    17     5     7   ar
    18    18    19    1
    19    19    20    1
    20    20    21   ar
    21    21    22   ar
    22    22    23   ar
    23    23    24   ar
    24    24    25   ar
    25     7     1   ar
    26    25    20   ar
    27    14     8   ar
@<TRIPOS>MOLECULE
*****
 25 27 0 0 0
SMALL
GASTEIGER

@<TRIPOS>ATOM
      1 C          -7.7933  -19.8526   22.0099 C.ar    1  UNL1        0.1450
      2 C          -7.1738  -20.5851   20.8568 C.ar    1  UNL1        0.0561
      3 C          -5.7867  -20.2363   20.4050 C.ar    1  UNL1        0.0860
      4 N          -5.0191  -19.1550   21.1062 N.ar    1  UNL1       -0.2729
      5 C          -5.6387  -18.4225   22.2593 C.ar    1  UNL1        0.2679
      6 O          -4.8711  -17.3413   22.9605 O.2     1  UNL1       -0.2665
      7 C          -7.0258  -18.7713   22.7111 C.ar    1  UNL1        0.0980
      8 C          -3.6319  -18.8062   20.6543 C.ar    1  UNL1        0.0670
      9 C          -2.4608  -19.0750   21.5522 C.ar    1  UNL1        0.0199
     10 C          -1.0736  -18.7262   21.1003 C.ar    1  UNL1        0.0311
     11 C          -0.8576  -18.1087   19.7505 C.ar    1  UNL1        0.1402
     12 F           0.5295  -17.7599   19.2986 F       1  UNL1       -0.2042
     13 C          -2.0288  -17.8399   18.8526 C.ar    1  UNL1        0.0311
     14 C          -3.4159  -18.1887   19.3045 C.ar    1  UNL1        0.0199
     15 O          -9.1805  -20.2014   22.4618 O.3     1  UNL1       -0.4714
     16 C         -10.3024  -19.2263   22.2602 C.3     1  UNL1        0.2485
     17 C         -10.3095  -18.8243   19.6934 C.3     1  UNL1        0.0513
     18 C         -10.2772  -18.2848   21.0926 C.3     1  UNL1        0.2094
     19 O         -10.2197  -16.8040   21.3244 O.3     1  UNL1       -0.4753
     20 C          -9.3950  -16.2524   22.4493 C.ar    1  UNL1        0.1386
     21 C          -8.1125  -15.5318   22.1558 C.ar    1  UNL1        0.0369
     22 C          -7.2877  -14.9802   23.2808 C.ar    1  UNL1        0.0031
     23 C          -7.7455  -15.1491   24.6993 C.ar    1  UNL1        0.0002
     24 C          -9.0280  -15.8697   24.9927 C.ar    1  UNL1        0.0031
     25 C          -9.8527  -16.4213   23.8678 C.ar    1  UNL1        0.0369
@<TRIPOS>BOND
     1    17    18    1
     2    18    16    1
     3    16    15    1
     4    15     1    1
     5     1     2   ar
     6     2     3   ar
     7     3     4   ar
     8     4     8    1
     9     8     9   ar
    10     9    10   ar
    11    10    11   ar
    12    11    12    1
    13    11    13   ar
    14    13    14   ar
    15     4     5   ar
    16     5     6    2
    17     5     7   ar
    18    18    19    1
    19    19    20    1
    20    20    21   ar
    21    21    22   ar
    22    22    23   ar
    23    23    24   ar
    24    24    25   ar
    25     7     1   ar
    26    25    20   ar
    27    14     8   ar
@<TRIPOS>MOLECULE
*****
 25 27 0 0 0
SMALL
GASTEIGER

@<TRIPOS>ATOM
      1 C          -8.0419  -17.4432   23.5310 C.ar    1  UNL1        0.1450
      2 C          -7.8475  -18.6519   22.6643 C.ar    1  UNL1        0.0561
      3 C          -6.5160  -18.9088   22.0233 C.ar    1  UNL1        0.0860
      4 N          -5.3788  -17.9570   22.2490 N.ar    1  UNL1       -0.2729
      5 C          -5.5732  -16.7483   23.1157 C.ar    1  UNL1        0.2679
      6 O          -4.4361  -15.7965   23.3414 O.2     1  UNL1       -0.2665
      7 C          -6.9048  -16.4915   23.7567 C.ar    1  UNL1        0.0980
      8 C          -4.0472  -18.2140   21.6079 C.ar    1  UNL1        0.0670
      9 C          -2.7988  -18.1968   22.4393 C.ar    1  UNL1        0.0199
     10 C          -1.4672  -18.4538   21.7982 C.ar    1  UNL1        0.0311
     11 C          -1.3841  -18.7279   20.3258 C.ar    1  UNL1        0.1402
     12 F          -0.0526  -18.9848   19.6848 F       1  UNL1       -0.2042
     13 C          -2.6326  -18.7450   19.4945 C.ar    1  UNL1        0.0311
     14 C          -3.9641  -18.4881   20.1355 C.ar    1  UNL1        0.0199
     15 O          -9.3735  -17.1863   24.1720 O.3     1  UNL1       -0.4714
     16 C         -10.0007  -18.2334   25.0439 C.3     1  UNL1        0.2485
     17 C          -9.9959  -20.8100   24.7103 C.3     1  UNL1        0.0513
     18 C         -10.5959  -19.4647   24.4274 C.3     1  UNL1        0.2094
     19 O         -11.7909  -19.3505   23.5280 O.3     1  UNL1       -0.4753
     20 C         -11.7002  -18.5589   22.2572 C.ar    1  UNL1        0.1386
     21 C         -10.9918  -19.1319   21.0657 C.ar    1  UNL1        0.0369
     22 C         -10.9010  -18.3403   19.7947 C.ar    1  UNL1        0.0031
     23 C         -11.5188  -16.9757   19.7154 C.ar    1  UNL1        0.0002
     24 C         -12.2273  -16.4027   20.9070 C.ar    1  UNL1        0.0031
     25 C         -12.3180  -17.1943   22.1778 C.ar    1  UNL1        0.0369
@<TRIPOS>BOND
     1    17    18    1
     2    18    16    1
     3    16    15    1
     4    15     1    1
     5     1     2   ar
     6     2     3   ar
     7     3     4   ar
     8     4     8    1
     9     8     9   ar
    10     9    10   ar
    11    10    11   ar
    12    11    12    1
    13    11    13   ar
    14    13    14   ar
    15     4     5   ar
    16     5     6    2
    17     5     7   ar
    18    18    19    1
    19    19    20    1
    20    20    21   ar
    21    21    22   ar
    22    22    23   ar
    23    23    24   ar
    24    24    25   ar
    25     7     1   ar
    26    25    20   ar
    27    14     8   ar
@<TRIPOS>MOLECULE
*****
 25 27 0 0 0
SMALL
GASTEIGER

@<TRIPOS>ATOM
      1 C          -6.3323  -19.2236   21.8239 C.ar    1  UNL1        0.1450
      2 C          -7.1267  -20.3442   22.4266 C.ar    1  UNL1        0.0561
      3 C          -8.5609  -20.1261   22.8081 C.ar    1  UNL1        0.0860
      4 N          -9.2006  -18.7875   22.5870 N.ar    1  UNL1       -0.2729
      5 C          -8.4062  -17.6670   21.9843 C.ar    1  UNL1        0.2679
      6 O          -9.0460  -16.3284   21.7632 O.2     1  UNL1       -0.2665
      7 C          -6.9721  -17.8850   21.6028 C.ar    1  UNL1        0.0980
      8 C         -10.6349  -18.5695   22.9686 C.ar    1  UNL1        0.0670
      9 C         -11.6190  -18.0893   21.9435 C.ar    1  UNL1        0.0199
     10 C         -13.0532  -17.8713   22.3251 C.ar    1  UNL1        0.0311
     11 C         -13.5032  -18.1336   23.7317 C.ar    1  UNL1        0.1402
     12 F         -14.9374  -17.9156   24.1133 F       1  UNL1       -0.2042
     13 C         -12.5190  -18.6139   24.7568 C.ar    1  UNL1        0.0311
     14 C         -11.0849  -18.8319   24.3752 C.ar    1  UNL1        0.0199
     15 O          -4.8981  -19.4416   21.4424 O.3     1  UNL1       -0.4714
     16 C          -3.8055  -19.1255   22.4202 C.3     1  UNL1        0.2485
     17 C          -4.0326  -17.3519   24.3051 C.3     1  UNL1        0.0513
     18 C          -3.6212  -17.7198   22.9104 C.3     1  UNL1        0.2094
     19 O          -3.0254  -16.6821   22.0058 O.3     1  UNL1       -0.4753
     20 C          -2.2011  -17.1009   20.8247 C.ar    1  UNL1        0.1386
     21 C          -2.8560  -17.3218   19.4935 C.ar    1  UNL1        0.0369
     22 C          -2.0316  -17.7406   18.3123 C.ar    1  UNL1        0.0031
     23 C          -0.5523  -17.9384   18.4625 C.ar    1  UNL1        0.0002
     24 C           0.1026  -17.7174   19.7938 C.ar    1  UNL1        0.0031
     25 C          -0.7218  -17.2987   20.9749 C.ar    1  UNL1        0.0369
@<TRIPOS>BOND
     1    17    18    1
     2    18    16    1
     3    16    15    1
     4    15     1    1
     5     1     2   ar
     6     2     3   ar
     7     3     4   ar
     8     4     8    1
     9     8     9   ar
    10     9    10   ar
    11    10    11   ar
    12    11    12    1
    13    11    13   ar
    14    13    14   ar
    15     4     5   ar
    16     5     6    2
    17     5     7   ar
    18    18    19    1
    19    19    20    1
    20    20    21   ar
    21    21    22   ar
    22    22    23   ar
    23    23    24   ar
    24    24    25   ar
    25     7     1   ar
    26    25    20   ar
    27    14     8   ar
@<TRIPOS>MOLECULE
*****
 25 27 0 0 0
SMALL
GASTEIGER

@<TRIPOS>ATOM
      1 C          -6.1273  -15.8106   23.2794 C.ar    1  UNL1        0.1450
      2 C          -6.7117  -16.6697   22.1976 C.ar    1  UNL1        0.0561
      3 C          -8.1432  -17.1100   22.2808 C.ar    1  UNL1        0.0860
      4 N          -8.9902  -16.6913   23.4458 N.ar    1  UNL1       -0.2729
      5 C          -8.4057  -15.8323   24.5276 C.ar    1  UNL1        0.2679
      6 O          -9.2528  -15.4136   25.6926 O.2     1  UNL1       -0.2665
      7 C          -6.9743  -15.3919   24.4444 C.ar    1  UNL1        0.0980
      8 C         -10.4217  -17.1317   23.5289 C.ar    1  UNL1        0.0670
      9 C         -11.4704  -16.4306   22.7174 C.ar    1  UNL1        0.0199
     10 C         -12.9020  -16.8711   22.8005 C.ar    1  UNL1        0.0311
     11 C         -13.2847  -18.0126   23.6952 C.ar    1  UNL1        0.1402
     12 F         -14.7161  -18.4530   23.7784 F       1  UNL1       -0.2042
     13 C         -12.2359  -18.7137   24.5068 C.ar    1  UNL1        0.0311
     14 C         -10.8044  -18.2732   24.4236 C.ar    1  UNL1        0.0199
     15 O          -4.6957  -15.3702   23.1963 O.3     1  UNL1       -0.4714
     16 C          -3.6515  -16.3093   22.6695 C.3     1  UNL1        0.2485
     17 C          -3.4151  -17.5868   24.9195 C.3     1  UNL1        0.0513
     18 C          -3.3231  -17.5645   23.4225 C.3     1  UNL1        0.2094
     19 O          -2.9028  -18.7972   22.6785 O.3     1  UNL1       -0.4753
     20 C          -3.8973  -19.5414   21.8376 C.ar    1  UNL1        0.1386
     21 C          -5.3104  -19.7029   22.3140 C.ar    1  UNL1        0.0369
     22 C          -6.3050  -20.4471   21.4732 C.ar    1  UNL1        0.0031
     23 C          -5.8864  -21.0298   20.1559 C.ar    1  UNL1        0.0002
     24 C          -4.4732  -20.8684   19.6795 C.ar    1  UNL1        0.0031
     25 C          -3.4787  -20.1242   20.5204 C.ar    1  UNL1        0.0369
@<TRIPOS>BOND
     1    17    18    1
     2    18    16    1
     3    16    15    1
     4    15     1    1
     5     1     2   ar
     6     2     3   ar
     7     3     4   ar
     8     4     8    1
     9     8     9   ar
    10     9    10   ar
    11    10    11   ar
    12    11    12    1
    13    11    13   ar
    14    13    14   ar
    15     4     5   ar
    16     5     6    2
    17     5     7   ar
    18    18    19    1
    19    19    20    1
    20    20    21   ar
    21    21    22   ar
    22    22    23   ar
    23    23    24   ar
    24    24    25   ar
    25     7     1   ar
    26    25    20   ar
    27    14     8   ar
@<TRIPOS>MOLECULE
*****
 25 27 0 0 0
SMALL
GASTEIGER

@<TRIPOS>ATOM
      1 C          -7.6515  -19.7974   21.7680 C.ar    1  UNL1        0.1450
      2 C          -6.8711  -20.5751   20.7501 C.ar    1  UNL1        0.0561
      3 C          -5.4571  -20.1877   20.4330 C.ar    1  UNL1        0.0860
      4 N          -4.8236  -19.0225   21.1337 N.ar    1  UNL1       -0.2729
      5 C          -5.6040  -18.2447   22.1515 C.ar    1  UNL1        0.2679
      6 O          -4.9705  -17.0796   22.8522 O.2     1  UNL1       -0.2665
      7 C          -7.0179  -18.6322   22.4687 C.ar    1  UNL1        0.0980
      8 C          -3.4096  -18.6351   20.8165 C.ar    1  UNL1        0.0670
      9 C          -2.3640  -18.6674   21.8914 C.ar    1  UNL1        0.0199
     10 C          -0.9499  -18.2800   21.5743 C.ar    1  UNL1        0.0311
     11 C          -0.5816  -17.8602   20.1821 C.ar    1  UNL1        0.1402
     12 F           0.8323  -17.4728   19.8649 F       1  UNL1       -0.2042
     13 C          -1.6273  -17.8279   19.1071 C.ar    1  UNL1        0.0311
     14 C          -3.0413  -18.2153   19.4243 C.ar    1  UNL1        0.0199
     15 O          -9.0655  -20.1848   22.0852 O.3     1  UNL1       -0.4714
     16 C         -10.1060  -20.1754   21.0048 C.3     1  UNL1        0.2485
     17 C          -9.3969  -20.2052   18.5056 C.3     1  UNL1        0.0513
     18 C          -9.8461  -19.4472   19.7194 C.3     1  UNL1        0.2094
     19 O         -10.0354  -17.9609   19.6480 O.3     1  UNL1       -0.4753
     20 C         -10.7644  -17.2441   20.7455 C.ar    1  UNL1        0.1386
     21 C          -9.9955  -16.6031   21.8626 C.ar    1  UNL1        0.0369
     22 C         -10.7245  -15.8863   22.9602 C.ar    1  UNL1        0.0031
     23 C         -12.2225  -15.8104   22.9407 C.ar    1  UNL1        0.0002
     24 C         -12.9914  -16.4514   21.8235 C.ar    1  UNL1        0.0031
     25 C         -12.2624  -17.1682   20.7260 C.ar    1  UNL1        0.0369
@<TRIPOS>BOND
     1    17    18    1
     2    18    16    1
     3    16    15    1
     4    15     1    1
     5     1     2   ar
     6     2     3   ar
     7     3     4   ar
     8     4     8    1
     9     8     9   ar
    10     9    10   ar
    11    10    11   ar
    12    11    12    1
    13    11    13   ar
    14    13    14   ar
    15     4     5   ar
    16     5     6    2
    17     5     7   ar
    18    18    19    1
    19    19    20    1
    20    20    21   ar
    21    21    22   ar
    22    22    23   ar
    23    23    24   ar
    24    24    25   ar
    25     7     1   ar
    26    25    20   ar
    27    14     8   ar
