@<TRIPOS>MOLECULE
*****
 36 40 0 0 0
SMALL
GASTEIGER

@<TRIPOS>ATOM
      1 N          -8.9914  -18.3066   21.2002 N.3     1  UNL1       -0.2679
      2 C          -9.5795  -18.9500   22.4209 C.3     1  UNL1        0.0978
      3 C          -8.8165  -20.0180   23.1471 C.3     1  UNL1        0.0224
      4 C          -9.4046  -20.6615   24.3678 C.3     1  UNL1        0.0065
      5 C         -10.7556  -20.2370   24.8623 C.3     1  UNL1        0.0277
      6 C         -11.5185  -19.1690   24.1362 C.ar    1  UNL1       -0.0073
      7 C         -12.8695  -18.7444   24.6307 C.ar    1  UNL1       -0.0015
      8 C         -13.6325  -17.6765   23.9046 C.ar    1  UNL1        0.0203
      9 C         -13.0444  -17.0330   22.6838 C.ar    1  UNL1        0.0985
     10 N         -11.6934  -17.4575   22.1893 N.ar    1  UNL1       -0.2471
     11 C         -10.9304  -18.5255   22.9155 C.ar    1  UNL1        0.0695
     12 C          -9.1271  -18.9717   19.8626 C.3     1  UNL1        0.0725
     13 C          -7.9370  -19.6270   19.2267 C.3     1  UNL1        0.0188
     14 C          -6.9209  -20.3265   20.0799 C.3     1  UNL1        0.0185
     15 C          -5.7089  -19.5860   20.5620 C.3     1  UNL1        0.0689
     16 N          -5.4605  -19.4310   22.0332 N.3     1  UNL1       -0.2924
     17 H          -5.9249  -18.5696   22.3211 H       1  UNL1        0.1236
     18 C          -4.0554  -19.3601   22.5533 C.3     1  UNL1        0.1151
     19 C          -0.9732  -16.9047   20.3805 C.ar    1  UNL1        0.0207
     20 C          -1.0997  -18.3720   20.0961 C.ar    1  UNL1        0.0028
     21 C          -2.1271  -19.1905   20.8204 C.ar    1  UNL1        0.0161
     22 C          -3.0280  -18.5416   21.8290 C.ar    1  UNL1        0.0749
     23 N          -2.9015  -17.0742   22.1133 N.ar    1  UNL1       -0.2468
     24 C          -1.8741  -16.2558   21.3890 C.ar    1  UNL1        0.0985
     25 C          -8.2677  -16.9980   21.3170 C.3     1  UNL1        0.0886
     26 C          -7.6766  -16.5825   22.6316 C.3     1  UNL1        0.0748
     27 C          -8.5748  -16.2382   23.7825 C.3     1  UNL1        0.0432
     28 C          -7.9837  -15.8228   25.0971 C.ar    1  UNL1       -0.0234
     29 C          -8.8819  -15.4785   26.2480 C.ar    1  UNL1       -0.0045
     30 C          -8.2908  -15.0631   27.5625 C.ar    1  UNL1       -0.0003
     31 C          -6.8015  -14.9920   27.7261 C.ar    1  UNL1       -0.0003
     32 C          -5.9032  -15.3363   26.5753 C.ar    1  UNL1       -0.0032
     33 C          -6.4943  -15.7517   25.2608 C.ar    1  UNL1       -0.0103
     34 C          -5.5961  -16.0961   24.1098 C.3     1  UNL1        0.0953
     35 N          -6.1872  -16.5115   22.7953 N.3     1  UNL1       -0.2934
     36 H          -5.8237  -17.4421   22.5899 H       1  UNL1        0.1236
@<TRIPOS>BOND
     1    19    20   ar
     2    20    21   ar
     3    21    22   ar
     4    22    18    1
     5    18    16    1
     6    16    15    1
     7    15    14    1
     8    14    13    1
     9    13    12    1
    10    12     1    1
    11     1    25    1
    12    26    25    1
    13    26    27    1
    14    27    28    1
    15    28    29   ar
    16    29    30   ar
    17    30    31   ar
    18    31    32   ar
    19    32    33   ar
    20    33    34    1
    21    34    35    1
    22     2     1    1
    23     2     3    1
    24     3     4    1
    25     4     5    1
    26     5     6    1
    27     6     7   ar
    28     7     8   ar
    29     8     9   ar
    30     9    10   ar
    31    10    11   ar
    32    22    23   ar
    33    23    24   ar
    34    24    19   ar
    35    35    26    1
    36    11     2    1
    37    33    28   ar
    38    11     6   ar
    39    16    17    1
    40    35    36    1
@<TRIPOS>MOLECULE
*****
 36 40 0 0 0
SMALL
GASTEIGER

@<TRIPOS>ATOM
      1 N         -10.6457  -16.8072   21.0721 N.3     1  UNL1       -0.2679
      2 C         -11.3298  -17.4679   22.2320 C.3     1  UNL1        0.0978
      3 C         -12.6897  -17.0048   22.6636 C.3     1  UNL1        0.0224
      4 C         -13.3738  -17.6654   23.8235 C.3     1  UNL1        0.0065
      5 C         -12.6981  -18.7891   24.5520 C.3     1  UNL1        0.0277
      6 C         -11.3383  -19.2522   24.1204 C.ar    1  UNL1       -0.0073
      7 C         -10.6625  -20.3760   24.8488 C.ar    1  UNL1       -0.0015
      8 C          -9.3027  -20.8391   24.4173 C.ar    1  UNL1        0.0203
      9 C          -8.6185  -20.1785   23.2573 C.ar    1  UNL1        0.0985
     10 N          -9.2942  -19.0547   22.5289 N.ar    1  UNL1       -0.2471
     11 C         -10.6541  -18.5916   22.9604 C.ar    1  UNL1        0.0695
     12 C         -10.7981  -17.3717   19.6908 C.3     1  UNL1        0.0725
     13 C         -11.0780  -18.8337   19.5047 C.3     1  UNL1        0.0188
     14 C          -9.9447  -19.8158   19.4704 C.3     1  UNL1        0.0185
     15 C          -8.5858  -19.3771   19.0114 C.3     1  UNL1        0.0689
     16 N          -7.5293  -19.0312   20.0186 N.3     1  UNL1       -0.2924
     17 H          -7.1175  -18.1466   19.7214 H       1  UNL1        0.1236
     18 C          -6.3917  -19.9767   20.2670 C.3     1  UNL1        0.1151
     19 C          -2.7002  -18.5430   22.4041 C.ar    1  UNL1        0.0207
     20 C          -2.5890  -19.5880   21.3338 C.ar    1  UNL1        0.0028
     21 C          -3.8194  -20.0660   20.6214 C.ar    1  UNL1        0.0161
     22 C          -5.1611  -19.4988   20.9793 C.ar    1  UNL1        0.0749
     23 N          -5.2724  -18.4538   22.0496 N.ar    1  UNL1       -0.2468
     24 C          -4.0419  -17.9759   22.7620 C.ar    1  UNL1        0.0985
     25 C          -9.8090  -15.5821   21.2934 C.3     1  UNL1        0.0886
     26 C          -8.8377  -15.5334   22.4355 C.3     1  UNL1        0.0748
     27 C          -9.2988  -15.8541   23.8264 C.3     1  UNL1        0.0432
     28 C          -8.3275  -15.8054   24.9685 C.ar    1  UNL1       -0.0234
     29 C          -8.7886  -16.1261   26.3593 C.ar    1  UNL1       -0.0045
     30 C          -7.8173  -16.0774   27.5013 C.ar    1  UNL1       -0.0003
     31 C          -6.3849  -15.7081   27.2524 C.ar    1  UNL1       -0.0003
     32 C          -5.9238  -15.3874   25.8616 C.ar    1  UNL1       -0.0032
     33 C          -6.8951  -15.4361   24.7196 C.ar    1  UNL1       -0.0103
     34 C          -6.4341  -15.1154   23.3286 C.3     1  UNL1        0.0953
     35 N          -7.4054  -15.1641   22.1866 N.3     1  UNL1       -0.2934
     36 H          -7.0389  -15.8407   21.5170 H       1  UNL1        0.1236
@<TRIPOS>BOND
     1    19    20   ar
     2    20    21   ar
     3    21    22   ar
     4    22    18    1
     5    18    16    1
     6    16    15    1
     7    15    14    1
     8    14    13    1
     9    13    12    1
    10    12     1    1
    11     1    25    1
    12    26    25    1
    13    26    27    1
    14    27    28    1
    15    28    29   ar
    16    29    30   ar
    17    30    31   ar
    18    31    32   ar
    19    32    33   ar
    20    33    34    1
    21    34    35    1
    22     2     1    1
    23     2     3    1
    24     3     4    1
    25     4     5    1
    26     5     6    1
    27     6     7   ar
    28     7     8   ar
    29     8     9   ar
    30     9    10   ar
    31    10    11   ar
    32    22    23   ar
    33    23    24   ar
    34    24    19   ar
    35    35    26    1
    36    11     2    1
    37    33    28   ar
    38    11     6   ar
    39    16    17    1
    40    35    36    1
@<TRIPOS>MOLECULE
*****
 36 40 0 0 0
SMALL
GASTEIGER

@<TRIPOS>ATOM
      1 N          -8.8697  -17.9796   21.2429 N.3     1  UNL1       -0.2679
      2 C         -10.3001  -17.5291   21.2762 C.3     1  UNL1        0.0978
      3 C         -10.8516  -16.7002   20.1544 C.3     1  UNL1        0.0224
      4 C         -12.2820  -16.2497   20.1876 C.3     1  UNL1        0.0065
      5 C         -13.1608  -16.6282   21.3428 C.3     1  UNL1        0.0277
      6 C         -12.6093  -17.4571   22.4646 C.ar    1  UNL1       -0.0073
      7 C         -13.4881  -17.8356   23.6198 C.ar    1  UNL1       -0.0015
      8 C         -12.9366  -18.6646   24.7417 C.ar    1  UNL1        0.0203
      9 C         -11.5062  -19.1151   24.7084 C.ar    1  UNL1        0.0985
     10 N         -10.6274  -18.7366   23.5533 N.ar    1  UNL1       -0.2471
     11 C         -11.1789  -17.9076   22.4313 C.ar    1  UNL1        0.0695
     12 C          -8.5450  -19.4325   21.0597 C.3     1  UNL1        0.0725
     13 C          -7.6495  -19.8650   19.9367 C.3     1  UNL1        0.0188
     14 C          -6.2939  -20.4336   20.2350 C.3     1  UNL1        0.0185
     15 C          -5.2156  -19.5504   20.7892 C.3     1  UNL1        0.0689
     16 N          -4.9519  -19.5252   22.2657 N.3     1  UNL1       -0.2924
     17 H          -5.5621  -18.8101   22.6617 H       1  UNL1        0.1236
     18 C          -3.5694  -19.2455   22.7760 C.3     1  UNL1        0.1151
     19 C          -0.6377  -16.9915   20.2119 C.ar    1  UNL1        0.0207
     20 C          -1.4584  -16.2603   21.2326 C.ar    1  UNL1        0.0028
     21 C          -2.4356  -17.0116   22.0873 C.ar    1  UNL1        0.0161
     22 C          -2.5921  -18.4941   21.9213 C.ar    1  UNL1        0.0749
     23 N          -1.7715  -19.2253   20.9005 N.ar    1  UNL1       -0.2468
     24 C          -0.7943  -18.4740   20.0458 C.ar    1  UNL1        0.0985
     25 C          -7.7640  -16.9772   21.3929 C.3     1  UNL1        0.0886
     26 C          -7.3066  -16.5641   22.7605 C.3     1  UNL1        0.0748
     27 C          -8.3147  -16.2200   23.8165 C.3     1  UNL1        0.0432
     28 C          -7.8573  -15.8069   25.1840 C.ar    1  UNL1       -0.0234
     29 C          -8.8655  -15.4628   26.2400 C.ar    1  UNL1       -0.0045
     30 C          -8.4080  -15.0497   27.6075 C.ar    1  UNL1       -0.0003
     31 C          -6.9423  -14.9808   27.9190 C.ar    1  UNL1       -0.0003
     32 C          -5.9341  -15.3249   26.8630 C.ar    1  UNL1       -0.0032
     33 C          -6.3916  -15.7379   25.4955 C.ar    1  UNL1       -0.0103
     34 C          -5.3834  -16.0821   24.4395 C.3     1  UNL1        0.0953
     35 N          -5.8409  -16.4951   23.0720 N.3     1  UNL1       -0.2934
     36 H          -5.4598  -17.4260   22.9027 H       1  UNL1        0.1236
@<TRIPOS>BOND
     1    19    20   ar
     2    20    21   ar
     3    21    22   ar
     4    22    18    1
     5    18    16    1
     6    16    15    1
     7    15    14    1
     8    14    13    1
     9    13    12    1
    10    12     1    1
    11     1    25    1
    12    26    25    1
    13    26    27    1
    14    27    28    1
    15    28    29   ar
    16    29    30   ar
    17    30    31   ar
    18    31    32   ar
    19    32    33   ar
    20    33    34    1
    21    34    35    1
    22     2     1    1
    23     2     3    1
    24     3     4    1
    25     4     5    1
    26     5     6    1
    27     6     7   ar
    28     7     8   ar
    29     8     9   ar
    30     9    10   ar
    31    10    11   ar
    32    22    23   ar
    33    23    24   ar
    34    24    19   ar
    35    35    26    1
    36    11     2    1
    37    33    28   ar
    38    11     6   ar
    39    16    17    1
    40    35    36    1
@<TRIPOS>MOLECULE
*****
 36 40 0 0 0
SMALL
GASTEIGER

@<TRIPOS>ATOM
      1 N          -7.3703  -19.5826   21.7620 N.3     1  UNL1       -0.2679
      2 C          -8.2859  -19.1783   22.8792 C.3     1  UNL1        0.0978
      3 C          -9.2490  -20.1728   23.4566 C.3     1  UNL1        0.0224
      4 C         -10.1647  -19.7685   24.5739 C.3     1  UNL1        0.0065
      5 C         -10.1171  -18.3699   25.1137 C.3     1  UNL1        0.0277
      6 C          -9.1540  -17.3755   24.5363 C.ar    1  UNL1       -0.0073
      7 C          -9.1065  -15.9767   25.0761 C.ar    1  UNL1       -0.0015
      8 C          -8.1433  -14.9823   24.4987 C.ar    1  UNL1        0.0203
      9 C          -7.2277  -15.3865   23.3815 C.ar    1  UNL1        0.0985
     10 N          -7.2752  -16.7852   22.8416 N.ar    1  UNL1       -0.2471
     11 C          -8.2384  -17.7797   23.4190 C.ar    1  UNL1        0.0695
     12 C          -7.8196  -19.4460   20.3374 C.3     1  UNL1        0.0725
     13 C          -7.4826  -20.5136   19.3390 C.3     1  UNL1        0.0188
     14 C          -8.3820  -20.7509   18.1623 C.3     1  UNL1        0.0185
     15 C          -9.8710  -20.6863   18.3315 C.3     1  UNL1        0.0689
     16 N         -10.5049  -19.4695   18.9380 N.3     1  UNL1       -0.2924
     17 H          -9.7861  -18.7464   18.9667 H       1  UNL1        0.1236
     18 C         -11.1022  -19.5410   20.3121 C.3     1  UNL1        0.1151
     19 C         -11.9221  -15.7591   22.6086 C.ar    1  UNL1        0.0207
     20 C         -12.7299  -16.9929   22.8825 C.ar    1  UNL1        0.0028
     21 C         -12.4566  -18.2536   22.1170 C.ar    1  UNL1        0.0161
     22 C         -11.3755  -18.2803   21.0776 C.ar    1  UNL1        0.0749
     23 N         -10.5677  -17.0465   20.8037 N.ar    1  UNL1       -0.2468
     24 C         -10.8410  -15.7858   21.5692 C.ar    1  UNL1        0.0985
     25 C          -6.0054  -20.1234   22.0693 C.3     1  UNL1        0.0886
     26 C          -4.7960  -19.2546   21.8880 C.3     1  UNL1        0.0748
     27 C          -3.9717  -19.3675   20.6400 C.3     1  UNL1        0.0432
     28 C          -2.7624  -18.4987   20.4587 C.ar    1  UNL1       -0.0234
     29 C          -1.9380  -18.6116   19.2107 C.ar    1  UNL1       -0.0045
     30 C          -0.7288  -17.7428   19.0294 C.ar    1  UNL1       -0.0003
     31 C          -0.3439  -16.7611   20.0963 C.ar    1  UNL1       -0.0003
     32 C          -1.1682  -16.6482   21.3443 C.ar    1  UNL1       -0.0032
     33 C          -2.3775  -17.5170   21.5255 C.ar    1  UNL1       -0.0103
     34 C          -3.2019  -17.4041   22.7736 C.3     1  UNL1        0.0953
     35 N          -4.4111  -18.2729   22.9548 N.3     1  UNL1       -0.2934
     36 H          -5.2070  -17.6474   23.0804 H       1  UNL1        0.1236
@<TRIPOS>BOND
     1    19    20   ar
     2    20    21   ar
     3    21    22   ar
     4    22    18    1
     5    18    16    1
     6    16    15    1
     7    15    14    1
     8    14    13    1
     9    13    12    1
    10    12     1    1
    11     1    25    1
    12    26    25    1
    13    26    27    1
    14    27    28    1
    15    28    29   ar
    16    29    30   ar
    17    30    31   ar
    18    31    32   ar
    19    32    33   ar
    20    33    34    1
    21    34    35    1
    22     2     1    1
    23     2     3    1
    24     3     4    1
    25     4     5    1
    26     5     6    1
    27     6     7   ar
    28     7     8   ar
    29     8     9   ar
    30     9    10   ar
    31    10    11   ar
    32    22    23   ar
    33    23    24   ar
    34    24    19   ar
    35    35    26    1
    36    11     2    1
    37    33    28   ar
    38    11     6   ar
    39    16    17    1
    40    35    36    1
@<TRIPOS>MOLECULE
*****
 36 40 0 0 0
SMALL
GASTEIGER

@<TRIPOS>ATOM
      1 N          -8.4840  -16.2600   23.8491 N.3     1  UNL1       -0.2679
      2 C          -9.5592  -17.2820   24.0719 C.3     1  UNL1        0.0978
      3 C          -9.3842  -18.3377   25.1230 C.3     1  UNL1        0.0224
      4 C         -10.4594  -19.3596   25.3458 C.3     1  UNL1        0.0065
      5 C         -11.7096  -19.3258   24.5177 C.3     1  UNL1        0.0277
      6 C         -11.8845  -18.2701   23.4666 C.ar    1  UNL1       -0.0073
      7 C         -13.1347  -18.2362   22.6384 C.ar    1  UNL1       -0.0015
      8 C         -13.3097  -17.1804   21.5873 C.ar    1  UNL1        0.0203
      9 C         -12.2345  -16.1585   21.3645 C.ar    1  UNL1        0.0985
     10 N         -10.9844  -16.1923   22.1927 N.ar    1  UNL1       -0.2471
     11 C         -10.8094  -17.2481   23.2438 C.ar    1  UNL1        0.0695
     12 C          -8.1995  -15.2292   24.9009 C.3     1  UNL1        0.0725
     13 C          -7.3035  -15.5642   26.0564 C.3     1  UNL1        0.0188
     14 C          -5.8485  -15.8426   25.8212 C.3     1  UNL1        0.0185
     15 C          -5.1100  -15.1102   24.7404 C.3     1  UNL1        0.0689
     16 N          -4.6548  -15.8436   23.5135 N.3     1  UNL1       -0.2924
     17 H          -5.4902  -16.2321   23.0758 H       1  UNL1        0.1236
     18 C          -3.6672  -16.9661   23.6340 C.3     1  UNL1        0.1151
     19 C          -1.1613  -18.1485   20.0882 C.ar    1  UNL1        0.0207
     20 C          -1.1998  -16.7173   20.5356 C.ar    1  UNL1        0.0028
     21 C          -2.0351  -16.3232   21.7175 C.ar    1  UNL1        0.0161
     22 C          -2.8318  -17.3602   22.4520 C.ar    1  UNL1        0.0749
     23 N          -2.7934  -18.7914   22.0046 N.ar    1  UNL1       -0.2468
     24 C          -1.9581  -19.1856   20.8227 C.ar    1  UNL1        0.0985
     25 C          -7.6934  -16.2690   22.5744 C.3     1  UNL1        0.0886
     26 C          -7.4248  -17.5645   21.8675 C.3     1  UNL1        0.0748
     27 C          -8.3593  -18.0419   20.7958 C.3     1  UNL1        0.0432
     28 C          -8.0907  -19.3373   20.0889 C.ar    1  UNL1       -0.0234
     29 C          -9.0252  -19.8148   19.0171 C.ar    1  UNL1       -0.0045
     30 C          -8.7566  -21.1102   18.3103 C.ar    1  UNL1       -0.0003
     31 C          -7.5534  -21.9282   18.6752 C.ar    1  UNL1       -0.0003
     32 C          -6.6188  -21.4507   19.7469 C.ar    1  UNL1       -0.0032
     33 C          -6.8875  -20.1553   20.4537 C.ar    1  UNL1       -0.0103
     34 C          -5.9529  -19.6779   21.5255 C.3     1  UNL1        0.0953
     35 N          -6.2215  -18.3824   22.2324 N.3     1  UNL1       -0.2934
     36 H          -5.4055  -17.7896   22.0809 H       1  UNL1        0.1236
@<TRIPOS>BOND
     1    19    20   ar
     2    20    21   ar
     3    21    22   ar
     4    22    18    1
     5    18    16    1
     6    16    15    1
     7    15    14    1
     8    14    13    1
     9    13    12    1
    10    12     1    1
    11     1    25    1
    12    26    25    1
    13    26    27    1
    14    27    28    1
    15    28    29   ar
    16    29    30   ar
    17    30    31   ar
    18    31    32   ar
    19    32    33   ar
    20    33    34    1
    21    34    35    1
    22     2     1    1
    23     2     3    1
    24     3     4    1
    25     4     5    1
    26     5     6    1
    27     6     7   ar
    28     7     8   ar
    29     8     9   ar
    30     9    10   ar
    31    10    11   ar
    32    22    23   ar
    33    23    24   ar
    34    24    19   ar
    35    35    26    1
    36    11     2    1
    37    33    28   ar
    38    11     6   ar
    39    16    17    1
    40    35    36    1
@<TRIPOS>MOLECULE
*****
 36 40 0 0 0
SMALL
GASTEIGER

@<TRIPOS>ATOM
      1 N          -5.9114  -18.6194   21.2371 N.3     1  UNL1       -0.2679
      2 C          -4.5150  -18.4206   21.7474 C.3     1  UNL1        0.0978
      3 C          -4.2414  -18.4668   23.2214 C.3     1  UNL1        0.0224
      4 C          -2.8449  -18.2680   23.7317 C.3     1  UNL1        0.0065
      5 C          -1.7220  -18.0230   22.7678 C.3     1  UNL1        0.0277
      6 C          -1.9956  -17.9768   21.2937 C.ar    1  UNL1       -0.0073
      7 C          -0.8727  -17.7318   20.3297 C.ar    1  UNL1       -0.0015
      8 C          -1.1463  -17.6856   18.8557 C.ar    1  UNL1        0.0203
      9 C          -2.5428  -17.8844   18.3455 C.ar    1  UNL1        0.0985
     10 N          -3.6657  -18.1294   19.3093 N.ar    1  UNL1       -0.2471
     11 C          -3.3921  -18.1756   20.7835 C.ar    1  UNL1        0.0695
     12 C          -6.2951  -19.9158   20.5874 C.3     1  UNL1        0.0725
     13 C          -7.7428  -20.2690   20.4155 C.3     1  UNL1        0.0188
     14 C          -8.4340  -19.9879   19.1143 C.3     1  UNL1        0.0185
     15 C          -9.8365  -19.4561   19.1097 C.3     1  UNL1        0.0689
     16 N         -10.1399  -18.1351   19.7524 N.3     1  UNL1       -0.2924
     17 H          -9.5136  -18.0462   20.5525 H       1  UNL1        0.1236
     18 C         -11.5241  -17.8442   20.2515 C.3     1  UNL1        0.1151
     19 C         -12.6123  -18.7497   24.5230 C.ar    1  UNL1        0.0207
     20 C         -13.3911  -17.7258   23.7515 C.ar    1  UNL1        0.0028
     21 C         -13.0284  -17.4239   22.3277 C.ar    1  UNL1        0.0161
     22 C         -11.8869  -18.1460   21.6754 C.ar    1  UNL1        0.0749
     23 N         -11.1081  -19.1699   22.4468 N.ar    1  UNL1       -0.2468
     24 C         -11.4708  -19.4717   23.8707 C.ar    1  UNL1        0.0985
     25 C          -6.9243  -17.5218   21.3767 C.3     1  UNL1        0.0886
     26 C          -7.3610  -17.0731   22.7398 C.3     1  UNL1        0.0748
     27 C          -6.3959  -16.3594   23.6394 C.3     1  UNL1        0.0432
     28 C          -6.8326  -15.9107   25.0025 C.ar    1  UNL1       -0.0234
     29 C          -5.8676  -15.1970   25.9021 C.ar    1  UNL1       -0.0045
     30 C          -6.3043  -14.7483   27.2651 C.ar    1  UNL1       -0.0003
     31 C          -7.7061  -15.0133   27.7285 C.ar    1  UNL1       -0.0003
     32 C          -8.6712  -15.7270   26.8290 C.ar    1  UNL1       -0.0032
     33 C          -8.2344  -16.1757   25.4659 C.ar    1  UNL1       -0.0103
     34 C          -9.1995  -16.8894   24.5663 C.3     1  UNL1        0.0953
     35 N          -8.7628  -17.3381   23.2032 N.3     1  UNL1       -0.2934
     36 H          -9.3849  -16.8881   22.5317 H       1  UNL1        0.1236
@<TRIPOS>BOND
     1    19    20   ar
     2    20    21   ar
     3    21    22   ar
     4    22    18    1
     5    18    16    1
     6    16    15    1
     7    15    14    1
     8    14    13    1
     9    13    12    1
    10    12     1    1
    11     1    25    1
    12    26    25    1
    13    26    27    1
    14    27    28    1
    15    28    29   ar
    16    29    30   ar
    17    30    31   ar
    18    31    32   ar
    19    32    33   ar
    20    33    34    1
    21    34    35    1
    22     2     1    1
    23     2     3    1
    24     3     4    1
    25     4     5    1
    26     5     6    1
    27     6     7   ar
    28     7     8   ar
    29     8     9   ar
    30     9    10   ar
    31    10    11   ar
    32    22    23   ar
    33    23    24   ar
    34    24    19   ar
    35    35    26    1
    36    11     2    1
    37    33    28   ar
    38    11     6   ar
    39    16    17    1
    40    35    36    1
@<TRIPOS>MOLECULE
*****
 36 40 0 0 0
SMALL
GASTEIGER

@<TRIPOS>ATOM
      1 N           5.9003   -1.3947   22.2882 N.3     1  UNL1       -0.2679
      2 C           4.7063   -0.5377   22.5877 C.3     1  UNL1        0.0978
      3 C           3.6970   -0.9859   23.6028 C.3     1  UNL1        0.0224
      4 C           2.5029   -0.1289   23.9023 C.3     1  UNL1        0.0065
      5 C           2.3181    1.1764   23.1867 C.3     1  UNL1        0.0277
      6 C           3.3274    1.6246   22.1717 C.ar    1  UNL1       -0.0073
      7 C           3.1427    2.9300   21.4561 C.ar    1  UNL1       -0.0015
      8 C           4.1520    3.3782   20.4411 C.ar    1  UNL1        0.0203
      9 C           5.3460    2.5212   20.1416 C.ar    1  UNL1        0.0985
     10 N           5.5308    1.2159   20.8571 N.ar    1  UNL1       -0.2471
     11 C           4.5215    0.7676   21.8722 C.ar    1  UNL1        0.0695
     12 C           6.0125   -2.0879   20.9628 C.3     1  UNL1        0.0725
     13 C           5.3533   -3.4192   20.7544 C.3     1  UNL1        0.0188
     14 C           4.9182   -3.8337   19.3801 C.3     1  UNL1        0.0185
     15 C           5.4405   -3.1062   18.1768 C.3     1  UNL1        0.0689
     16 N           4.5556   -2.1465   17.4380 N.3     1  UNL1       -0.2924
     17 H           4.9254   -2.0750   16.4900 H       1  UNL1        0.1236
     18 C           4.3838   -0.7444   17.9425 C.3     1  UNL1        0.1151
     19 C           0.5190    0.4883   19.8902 C.ar    1  UNL1        0.0207
     20 C           1.1971   -0.7829   20.3076 C.ar    1  UNL1        0.0028
     21 C           2.4854   -1.1938   19.6583 C.ar    1  UNL1        0.0161
     22 C           3.0954   -0.3335   18.5918 C.ar    1  UNL1        0.0749
     23 N           2.4173    0.9377   18.1744 N.ar    1  UNL1       -0.2468
     24 C           1.1290    1.3486   18.8237 C.ar    1  UNL1        0.0985
     25 C           6.9822   -1.5586   23.3142 C.3     1  UNL1        0.0886
     26 C           7.0074   -2.7763   24.1897 C.3     1  UNL1        0.0748
     27 C           7.5807   -4.0615   23.6707 C.3     1  UNL1        0.0432
     28 C           7.6059   -5.2793   24.5462 C.ar    1  UNL1       -0.0234
     29 C           8.1793   -6.5645   24.0272 C.ar    1  UNL1       -0.0045
     30 C           8.2044   -7.7822   24.9027 C.ar    1  UNL1       -0.0003
     31 C           7.6562   -7.7146   26.2973 C.ar    1  UNL1       -0.0003
     32 C           7.0828   -6.4294   26.8164 C.ar    1  UNL1       -0.0032
     33 C           7.0577   -5.2118   25.9408 C.ar    1  UNL1       -0.0103
     34 C           6.4843   -3.9265   26.4599 C.3     1  UNL1        0.0953
     35 N           6.4591   -2.7088   25.5843 N.3     1  UNL1       -0.2934
     36 H           6.9851   -1.9841   26.0727 H       1  UNL1        0.1236
@<TRIPOS>BOND
     1    19    20   ar
     2    20    21   ar
     3    21    22   ar
     4    22    18    1
     5    18    16    1
     6    16    15    1
     7    15    14    1
     8    14    13    1
     9    13    12    1
    10    12     1    1
    11     1    25    1
    12    26    25    1
    13    26    27    1
    14    27    28    1
    15    28    29   ar
    16    29    30   ar
    17    30    31   ar
    18    31    32   ar
    19    32    33   ar
    20    33    34    1
    21    34    35    1
    22     2     1    1
    23     2     3    1
    24     3     4    1
    25     4     5    1
    26     5     6    1
    27     6     7   ar
    28     7     8   ar
    29     8     9   ar
    30     9    10   ar
    31    10    11   ar
    32    22    23   ar
    33    23    24   ar
    34    24    19   ar
    35    35    26    1
    36    11     2    1
    37    33    28   ar
    38    11     6   ar
    39    16    17    1
    40    35    36    1
@<TRIPOS>MOLECULE
*****
 36 40 0 0 0
SMALL
GASTEIGER

@<TRIPOS>ATOM
      1 N           7.1471   -3.9913   23.6394 N.3     1  UNL1       -0.2679
      2 C           7.5952   -5.2120   24.3871 C.3     1  UNL1        0.0978
      3 C           8.2555   -6.3410   23.6527 C.3     1  UNL1        0.0224
      4 C           8.7036   -7.5617   24.4004 C.3     1  UNL1        0.0065
      5 C           8.4915   -7.6533   25.8825 C.3     1  UNL1        0.0277
      6 C           7.8313   -6.5243   26.6168 C.ar    1  UNL1       -0.0073
      7 C           7.6191   -6.6160   28.0990 C.ar    1  UNL1       -0.0015
      8 C           6.9589   -5.4869   28.8333 C.ar    1  UNL1        0.0203
      9 C           6.5107   -4.2663   28.0856 C.ar    1  UNL1        0.0985
     10 N           6.7228   -4.1746   26.6036 N.ar    1  UNL1       -0.2471
     11 C           7.3831   -5.3036   25.8691 C.ar    1  UNL1        0.0695
     12 C           8.0902   -2.8407   23.4478 C.3     1  UNL1        0.0725
     13 C           8.1453   -2.1275   22.1293 C.3     1  UNL1        0.0188
     14 C           8.5470   -2.8716   20.8904 C.3     1  UNL1        0.0185
     15 C           8.9365   -2.1156   19.6548 C.3     1  UNL1        0.0689
     16 N           8.0747   -2.1870   18.4290 N.3     1  UNL1       -0.2924
     17 H           8.5761   -1.6976   17.6877 H       1  UNL1        0.1236
     18 C           6.6845   -1.6244   18.4559 C.3     1  UNL1        0.1151
     19 C           3.1698   -4.3446   19.1616 C.ar    1  UNL1        0.0207
     20 C           4.5393   -4.9242   18.9657 C.ar    1  UNL1        0.0028
     21 C           5.7109   -4.0175   18.7305 C.ar    1  UNL1        0.0161
     22 C           5.5129   -2.5312   18.6911 C.ar    1  UNL1        0.0749
     23 N           4.1434   -1.9516   18.8870 N.ar    1  UNL1       -0.2468
     24 C           2.9718   -2.8582   19.1223 C.ar    1  UNL1        0.0985
     25 C           5.7558   -3.9211   23.0832 C.3     1  UNL1        0.0886
     26 C           4.8481   -2.7924   23.4733 C.3     1  UNL1        0.0748
     27 C           4.0383   -2.0853   22.4273 C.3     1  UNL1        0.0432
     28 C           3.1305   -0.9567   22.8175 C.ar    1  UNL1       -0.0234
     29 C           2.3207   -0.2496   21.7715 C.ar    1  UNL1       -0.0045
     30 C           1.4131    0.8791   22.1617 C.ar    1  UNL1       -0.0003
     31 C           1.3152    1.3006   23.5979 C.ar    1  UNL1       -0.0003
     32 C           2.1250    0.5935   24.6439 C.ar    1  UNL1       -0.0032
     33 C           3.0327   -0.5351   24.2537 C.ar    1  UNL1       -0.0103
     34 C           3.8426   -1.2423   25.2998 C.3     1  UNL1        0.0953
     35 N           4.7502   -2.3709   24.9096 N.3     1  UNL1       -0.2934
     36 H           4.4456   -3.1894   25.4366 H       1  UNL1        0.1236
@<TRIPOS>BOND
     1    19    20   ar
     2    20    21   ar
     3    21    22   ar
     4    22    18    1
     5    18    16    1
     6    16    15    1
     7    15    14    1
     8    14    13    1
     9    13    12    1
    10    12     1    1
    11     1    25    1
    12    26    25    1
    13    26    27    1
    14    27    28    1
    15    28    29   ar
    16    29    30   ar
    17    30    31   ar
    18    31    32   ar
    19    32    33   ar
    20    33    34    1
    21    34    35    1
    22     2     1    1
    23     2     3    1
    24     3     4    1
    25     4     5    1
    26     5     6    1
    27     6     7   ar
    28     7     8   ar
    29     8     9   ar
    30     9    10   ar
    31    10    11   ar
    32    22    23   ar
    33    23    24   ar
    34    24    19   ar
    35    35    26    1
    36    11     2    1
    37    33    28   ar
    38    11     6   ar
    39    16    17    1
    40    35    36    1
