@<TRIPOS>MOLECULE
*****
 28 32 0 0 0
SMALL
GASTEIGER

@<TRIPOS>ATOM
      1 N          -7.8301  -15.4298   24.5390 N.pl3   1  UNL1       -0.3133
      2 C          -6.7470  -16.2437   23.8953 C.2     1  UNL1        0.2770
      3 N          -6.9336  -17.2487   22.7975 N.2     1  UNL1       -0.2203
      4 C          -5.5891  -17.8217   22.4600 C.3     1  UNL1        0.1539
      5 C          -4.5715  -17.1708   23.3492 C.3     1  UNL1        0.2350
      6 O          -5.2871  -16.1955   24.2363 O.2     1  UNL1       -0.4478
      7 C          -6.7144  -18.3840   21.6430 C.ar    1  UNL1        0.0355
      8 C          -8.1178  -17.9052   21.8694 C.ar    1  UNL1        0.0007
      9 C          -9.2431  -18.4674   21.0524 C.ar    1  UNL1        0.0015
     10 C          -8.9650  -19.5085   20.0089 C.ar    1  UNL1        0.0031
     11 C          -7.5616  -19.9873   19.7825 C.ar    1  UNL1        0.0366
     12 C          -6.4363  -19.4251   20.5996 C.ar    1  UNL1        0.1363
     13 O          -5.0329  -19.9039   20.3731 O.3     1  UNL1       -0.4768
     14 C          -3.9076  -19.3416   21.1902 C.3     1  UNL1        0.1975
     15 C          -2.5042  -19.8204   20.9637 C.3     1  UNL1        0.1855
     16 O          -1.3790  -19.2581   21.7808 O.3     1  UNL1       -0.3499
     17 C          -1.6571  -18.2170   22.8242 C.3     1  UNL1        0.1425
     18 C          -3.0604  -17.7382   23.0507 C.3     1  UNL1        0.0381
     19 C          -4.1857  -18.3005   22.2336 C.3     1  UNL1        0.0734
     20 H          -8.7640  -15.5327   24.2448 H       1  UNL1        0.1466
     21 H          -7.6071  -14.7927   25.2557 H       1  UNL1        0.1466
     22 C         -10.6464  -17.9886   21.2788 C.ar    1  UNL1        0.0200
     23 C         -11.3409  -17.1767   20.2260 C.ar    1  UNL1        0.0989
     24 N         -12.7443  -16.6979   20.4525 N.ar    1  UNL1       -0.2414
     25 C         -13.4532  -17.0310   21.7317 C.ar    1  UNL1        0.1102
     26 C         -12.7587  -17.8429   22.7846 C.ar    1  UNL1        0.0768
     27 CL        -13.4675  -18.1760   24.0638 Cl      1  UNL1       -0.0806
     28 C         -11.3553  -18.3217   22.5581 C.ar    1  UNL1        0.0145
@<TRIPOS>BOND
     1     1     2    1
     2     2     3    2
     3     3     4    1
     4     4     5    1
     5     5     6    1
     6     4     7    1
     7     7     8   ar
     8     8     9   ar
     9     9    22    1
    10    22    23   ar
    11    23    24   ar
    12    24    25   ar
    13    25    26   ar
    14    26    27    1
    15    26    28   ar
    16     9    10   ar
    17    10    11   ar
    18    11    12   ar
    19    12    13    1
    20    13    14    1
    21    14    15    1
    22    15    16    1
    23    16    17    1
    24    17    18    1
    25    19    18    1
    26     6     2    1
    27    12     7   ar
    28    19    14    1
    29    19     4    1
    30    28    22   ar
    31     1    20    1
    32     1    21    1
@<TRIPOS>MOLECULE
*****
 28 32 0 0 0
SMALL
GASTEIGER

@<TRIPOS>ATOM
      1 N          -5.6533  -15.6232   23.7143 N.pl3   1  UNL1       -0.3133
      2 C          -7.0123  -16.1162   23.3143 C.2     1  UNL1        0.2770
      3 N          -7.2980  -17.2242   22.3444 N.2     1  UNL1       -0.2203
      4 C          -8.7865  -17.3805   22.2445 C.3     1  UNL1        0.1539
      5 C          -9.4207  -16.3691   23.1526 C.3     1  UNL1        0.2350
      6 O          -8.3242  -15.5877   23.8138 O.2     1  UNL1       -0.4478
      7 C          -8.0136  -18.3349   21.3831 C.ar    1  UNL1        0.0355
      8 C          -6.5141  -18.2959   21.3792 C.ar    1  UNL1        0.0007
      9 C          -5.7413  -19.2502   20.5179 C.ar    1  UNL1        0.0015
     10 C          -6.4679  -20.2436   19.6604 C.ar    1  UNL1        0.0031
     11 C          -7.9674  -20.2826   19.6643 C.ar    1  UNL1        0.0366
     12 C          -8.7403  -19.3282   20.5256 C.ar    1  UNL1        0.1363
     13 O         -10.2397  -19.3672   20.5295 O.3     1  UNL1       -0.4768
     14 C         -11.0126  -18.4129   21.3909 C.3     1  UNL1        0.1975
     15 C         -12.5121  -18.4519   21.3947 C.3     1  UNL1        0.1855
     16 O         -13.2849  -17.4975   22.2561 O.3     1  UNL1       -0.3499
     17 C         -12.5583  -16.5042   23.1135 C.3     1  UNL1        0.1425
     18 C         -11.0588  -16.4652   23.1097 C.3     1  UNL1        0.0381
     19 C         -10.2860  -17.4195   22.2484 C.3     1  UNL1        0.0734
     20 H          -4.8468  -16.0363   23.3294 H       1  UNL1        0.1466
     21 H          -5.5678  -14.8865   24.3618 H       1  UNL1        0.1466
     22 C          -4.2418  -19.2112   20.5140 C.ar    1  UNL1        0.0200
     23 C          -3.4710  -19.8932   21.6053 C.ar    1  UNL1        0.0989
     24 N          -1.9715  -19.8541   21.6014 N.ar    1  UNL1       -0.2414
     25 C          -1.2428  -19.1332   20.5063 C.ar    1  UNL1        0.1102
     26 C          -2.0136  -18.4513   19.4151 C.ar    1  UNL1        0.0768
     27 CL         -1.2850  -17.7303   18.3200 Cl      1  UNL1       -0.0806
     28 C          -3.5131  -18.4903   19.4189 C.ar    1  UNL1        0.0145
@<TRIPOS>BOND
     1     1     2    1
     2     2     3    2
     3     3     4    1
     4     4     5    1
     5     5     6    1
     6     4     7    1
     7     7     8   ar
     8     8     9   ar
     9     9    22    1
    10    22    23   ar
    11    23    24   ar
    12    24    25   ar
    13    25    26   ar
    14    26    27    1
    15    26    28   ar
    16     9    10   ar
    17    10    11   ar
    18    11    12   ar
    19    12    13    1
    20    13    14    1
    21    14    15    1
    22    15    16    1
    23    16    17    1
    24    17    18    1
    25    19    18    1
    26     6     2    1
    27    12     7   ar
    28    19    14    1
    29    19     4    1
    30    28    22   ar
    31     1    20    1
    32     1    21    1
@<TRIPOS>MOLECULE
*****
 28 32 0 0 0
SMALL
GASTEIGER

@<TRIPOS>ATOM
      1 N          -8.5540  -20.6621   19.2560 N.pl3   1  UNL1       -0.3133
      2 C          -7.3062  -20.1710   19.9283 C.2     1  UNL1        0.2770
      3 N          -7.2354  -19.1211   20.9972 N.2     1  UNL1       -0.2203
      4 C          -5.7957  -18.9448   21.3793 C.3     1  UNL1        0.1539
      5 C          -4.9766  -19.8859   20.5466 C.3     1  UNL1        0.2350
      6 O          -5.9102  -20.6437   19.6498 O.2     1  UNL1       -0.4478
      7 C          -6.7407  -18.0603   22.1373 C.ar    1  UNL1        0.0355
      8 C          -8.2137  -18.1261   21.8618 C.ar    1  UNL1        0.0007
      9 C          -9.1587  -17.2415   22.6197 C.ar    1  UNL1        0.0015
     10 C          -8.6307  -16.2911   23.6531 C.ar    1  UNL1        0.0031
     11 C          -7.1578  -16.2253   23.9286 C.ar    1  UNL1        0.0366
     12 C          -6.2127  -17.1099   23.1707 C.ar    1  UNL1        0.1363
     13 O          -4.7397  -17.0440   23.4462 O.3     1  UNL1       -0.4768
     14 C          -3.7946  -17.9286   22.6882 C.3     1  UNL1        0.1975
     15 C          -2.3216  -17.8627   22.9637 C.3     1  UNL1        0.1855
     16 O          -1.3767  -18.7473   22.2058 O.3     1  UNL1       -0.3499
     17 C          -1.9046  -19.6977   21.1724 C.3     1  UNL1        0.1425
     18 C          -3.3776  -19.7636   20.8969 C.3     1  UNL1        0.0381
     19 C          -4.3226  -18.8790   21.6548 C.3     1  UNL1        0.0734
     20 H          -9.4290  -20.2883   19.5088 H       1  UNL1        0.1466
     21 H          -8.4979  -21.3581   18.5620 H       1  UNL1        0.1466
     22 C         -10.6317  -17.3074   22.3442 C.ar    1  UNL1        0.0200
     23 C         -11.1531  -16.9939   20.9731 C.ar    1  UNL1        0.0989
     24 N         -12.6261  -17.0598   20.6977 N.ar    1  UNL1       -0.2414
     25 C         -13.5778  -17.4391   21.7933 C.ar    1  UNL1        0.1102
     26 C         -13.0564  -17.7526   23.1644 C.ar    1  UNL1        0.0768
     27 CL        -14.0081  -18.1319   24.2600 Cl      1  UNL1       -0.0806
     28 C         -11.5835  -17.6867   23.4399 C.ar    1  UNL1        0.0145
@<TRIPOS>BOND
     1     1     2    1
     2     2     3    2
     3     3     4    1
     4     4     5    1
     5     5     6    1
     6     4     7    1
     7     7     8   ar
     8     8     9   ar
     9     9    22    1
    10    22    23   ar
    11    23    24   ar
    12    24    25   ar
    13    25    26   ar
    14    26    27    1
    15    26    28   ar
    16     9    10   ar
    17    10    11   ar
    18    11    12   ar
    19    12    13    1
    20    13    14    1
    21    14    15    1
    22    15    16    1
    23    16    17    1
    24    17    18    1
    25    19    18    1
    26     6     2    1
    27    12     7   ar
    28    19    14    1
    29    19     4    1
    30    28    22   ar
    31     1    20    1
    32     1    21    1
@<TRIPOS>MOLECULE
*****
 28 32 0 0 0
SMALL
GASTEIGER

@<TRIPOS>ATOM
      1 N          -6.0645  -15.8008   24.9220 N.pl3   1  UNL1       -0.3133
      2 C          -5.1750  -16.3633   23.8531 C.2     1  UNL1        0.2770
      3 N          -5.5574  -17.4090   22.8480 N.2     1  UNL1       -0.2203
      4 C          -4.3658  -17.6709   21.9754 C.3     1  UNL1        0.1539
      5 C          -3.2470  -16.7870   22.4412 C.3     1  UNL1        0.2350
      6 O          -3.7471  -15.9788   23.6017 O.2     1  UNL1       -0.4478
      7 C          -5.5714  -18.4911   21.6238 C.ar    1  UNL1        0.0355
      8 C          -6.8391  -18.3367   22.4108 C.ar    1  UNL1        0.0007
      9 C          -8.0447  -19.1569   22.0593 C.ar    1  UNL1        0.0015
     10 C          -7.9828  -20.1316   20.9207 C.ar    1  UNL1        0.0031
     11 C          -6.7152  -20.2860   20.1337 C.ar    1  UNL1        0.0366
     12 C          -5.5095  -19.4657   20.4853 C.ar    1  UNL1        0.1363
     13 O          -4.2419  -19.6201   19.6983 O.3     1  UNL1       -0.4768
     14 C          -3.0362  -18.7998   20.0498 C.3     1  UNL1        0.1975
     15 C          -1.7686  -18.9542   19.2628 C.3     1  UNL1        0.1855
     16 O          -0.5630  -18.1340   19.6144 O.3     1  UNL1       -0.3499
     17 C          -0.6249  -17.1594   20.7529 C.3     1  UNL1        0.1425
     18 C          -1.8925  -17.0050   21.5399 C.3     1  UNL1        0.0381
     19 C          -3.0981  -17.8252   21.1884 C.3     1  UNL1        0.0734
     20 H          -6.9923  -16.1186   25.0080 H       1  UNL1        0.1466
     21 H          -5.7204  -15.1138   25.5375 H       1  UNL1        0.1466
     22 C          -9.3122  -19.0026   22.8463 C.ar    1  UNL1        0.0200
     23 C          -9.5465  -19.8464   24.0641 C.ar    1  UNL1        0.0989
     24 N         -10.8141  -19.6920   24.8511 N.ar    1  UNL1       -0.2414
     25 C         -11.8475  -18.6937   24.4203 C.ar    1  UNL1        0.1102
     26 C         -11.6132  -17.8499   23.2025 C.ar    1  UNL1        0.0768
     27 CL        -12.6466  -16.8516   22.7717 Cl      1  UNL1       -0.0806
     28 C         -10.3457  -18.0042   22.4155 C.ar    1  UNL1        0.0145
@<TRIPOS>BOND
     1     1     2    1
     2     2     3    2
     3     3     4    1
     4     4     5    1
     5     5     6    1
     6     4     7    1
     7     7     8   ar
     8     8     9   ar
     9     9    22    1
    10    22    23   ar
    11    23    24   ar
    12    24    25   ar
    13    25    26   ar
    14    26    27    1
    15    26    28   ar
    16     9    10   ar
    17    10    11   ar
    18    11    12   ar
    19    12    13    1
    20    13    14    1
    21    14    15    1
    22    15    16    1
    23    16    17    1
    24    17    18    1
    25    19    18    1
    26     6     2    1
    27    12     7   ar
    28    19    14    1
    29    19     4    1
    30    28    22   ar
    31     1    20    1
    32     1    21    1
@<TRIPOS>MOLECULE
*****
 28 32 0 0 0
SMALL
GASTEIGER

@<TRIPOS>ATOM
      1 N         -16.2157   -3.9391   20.4973 N.pl3   1  UNL1       -0.3133
      2 C         -15.0449   -3.5313   19.6530 C.2     1  UNL1        0.2770
      3 N         -14.2737   -4.4228   18.7254 N.2     1  UNL1       -0.2203
      4 C         -13.1918   -3.6030   18.0872 C.3     1  UNL1        0.1539
      5 C         -13.2943   -2.2047   18.6205 C.3     1  UNL1        0.2350
      6 O         -14.4396   -2.1604   19.5882 O.2     1  UNL1       -0.4478
      7 C         -13.2123   -5.0362   17.6452 C.ar    1  UNL1        0.0355
      8 C         -14.2403   -5.9775   18.1996 C.ar    1  UNL1        0.0007
      9 C         -14.2607   -7.4107   17.7576 C.ar    1  UNL1        0.0015
     10 C         -13.2532   -7.9027   16.7611 C.ar    1  UNL1        0.0031
     11 C         -12.2253   -6.9615   16.2067 C.ar    1  UNL1        0.0366
     12 C         -12.2048   -5.5282   16.6488 C.ar    1  UNL1        0.1363
     13 O         -11.1768   -4.5870   16.0944 O.3     1  UNL1       -0.4768
     14 C         -11.1563   -3.1537   16.5364 C.3     1  UNL1        0.1975
     15 C         -10.1284   -2.2125   15.9820 C.3     1  UNL1        0.1855
     16 O         -10.1079   -0.7793   16.4240 O.3     1  UNL1       -0.3499
     17 C         -11.1154   -0.2873   17.4205 C.3     1  UNL1        0.1425
     18 C         -12.1434   -1.2285   17.9749 C.3     1  UNL1        0.0381
     19 C         -12.1638   -2.6617   17.5328 C.3     1  UNL1        0.0734
     20 H         -16.5417   -4.8677   20.4713 H       1  UNL1        0.1466
     21 H         -16.6583   -3.2781   21.0774 H       1  UNL1        0.1466
     22 C         -15.2887   -8.3519   18.3119 C.ar    1  UNL1        0.0200
     23 C         -15.1944   -9.8207   18.0225 C.ar    1  UNL1        0.0989
     24 N         -16.2224  -10.7619   18.5769 N.ar    1  UNL1       -0.2414
     25 C         -17.3447  -10.2343   19.4208 C.ar    1  UNL1        0.1102
     26 C         -17.4390   -8.7655   19.7103 C.ar    1  UNL1        0.0768
     27 CL        -18.5612   -8.2379   20.5541 Cl      1  UNL1       -0.0806
     28 C         -16.4110   -7.8243   19.1559 C.ar    1  UNL1        0.0145
@<TRIPOS>BOND
     1     1     2    1
     2     2     3    2
     3     3     4    1
     4     4     5    1
     5     5     6    1
     6     4     7    1
     7     7     8   ar
     8     8     9   ar
     9     9    22    1
    10    22    23   ar
    11    23    24   ar
    12    24    25   ar
    13    25    26   ar
    14    26    27    1
    15    26    28   ar
    16     9    10   ar
    17    10    11   ar
    18    11    12   ar
    19    12    13    1
    20    13    14    1
    21    14    15    1
    22    15    16    1
    23    16    17    1
    24    17    18    1
    25    19    18    1
    26     6     2    1
    27    12     7   ar
    28    19    14    1
    29    19     4    1
    30    28    22   ar
    31     1    20    1
    32     1    21    1
@<TRIPOS>MOLECULE
*****
 28 32 0 0 0
SMALL
GASTEIGER

@<TRIPOS>ATOM
      1 N         -16.4320   -3.7545   20.5656 N.pl3   1  UNL1       -0.3133
      2 C         -15.0816   -4.1214   20.0255 C.2     1  UNL1        0.2770
      3 N         -14.1041   -3.1824   19.3829 N.2     1  UNL1       -0.2203
      4 C         -12.8899   -3.9723   18.9933 C.3     1  UNL1        0.1539
      5 C         -13.1170   -5.3995   19.3952 C.3     1  UNL1        0.2350
      6 O         -14.4714   -5.4917   20.0331 O.2     1  UNL1       -0.4478
      7 C         -12.8053   -2.5146   18.6501 C.ar    1  UNL1        0.0355
      8 C         -13.9467   -1.5989   18.9801 C.ar    1  UNL1        0.0007
      9 C         -13.8621   -0.1412   18.6369 C.ar    1  UNL1        0.0015
     10 C         -12.6361    0.4009   17.9637 C.ar    1  UNL1        0.0031
     11 C         -11.4948   -0.5147   17.6337 C.ar    1  UNL1        0.0366
     12 C         -11.5794   -1.9725   17.9769 C.ar    1  UNL1        0.1363
     13 O         -10.4380   -2.8882   17.6469 O.3     1  UNL1       -0.4768
     14 C         -10.5226   -4.3460   17.9902 C.3     1  UNL1        0.1975
     15 C          -9.3813   -5.2616   17.6602 C.3     1  UNL1        0.1855
     16 O          -9.4659   -6.7193   18.0034 O.3     1  UNL1       -0.3499
     17 C         -10.6919   -7.2614   18.6766 C.3     1  UNL1        0.1425
     18 C         -11.8332   -6.3458   19.0066 C.3     1  UNL1        0.0381
     19 C         -11.7486   -4.8881   18.6634 C.3     1  UNL1        0.0734
     20 H         -16.7461   -2.8228   20.5144 H       1  UNL1        0.1466
     21 H         -17.0042   -4.4453   20.9713 H       1  UNL1        0.1466
     22 C         -15.0034    0.7745   18.9669 C.ar    1  UNL1        0.0200
     23 C         -14.9769    2.2019   18.5068 C.ar    1  UNL1        0.0989
     24 N         -16.1184    3.1176   18.8368 N.ar    1  UNL1       -0.2414
     25 C         -17.2861    2.6057   19.6269 C.ar    1  UNL1        0.1102
     26 C         -17.3126    1.1783   20.0870 C.ar    1  UNL1        0.0768
     27 CL        -18.4804    0.6665   20.8771 Cl      1  UNL1       -0.0806
     28 C         -16.1713    0.2627   19.7570 C.ar    1  UNL1        0.0145
@<TRIPOS>BOND
     1     1     2    1
     2     2     3    2
     3     3     4    1
     4     4     5    1
     5     5     6    1
     6     4     7    1
     7     7     8   ar
     8     8     9   ar
     9     9    22    1
    10    22    23   ar
    11    23    24   ar
    12    24    25   ar
    13    25    26   ar
    14    26    27    1
    15    26    28   ar
    16     9    10   ar
    17    10    11   ar
    18    11    12   ar
    19    12    13    1
    20    13    14    1
    21    14    15    1
    22    15    16    1
    23    16    17    1
    24    17    18    1
    25    19    18    1
    26     6     2    1
    27    12     7   ar
    28    19    14    1
    29    19     4    1
    30    28    22   ar
    31     1    20    1
    32     1    21    1
@<TRIPOS>MOLECULE
*****
 28 32 0 0 0
SMALL
GASTEIGER

@<TRIPOS>ATOM
      1 N          -0.9465    2.2404   20.7197 N.pl3   1  UNL1       -0.3133
      2 C           0.2492    1.4680   20.2469 C.2     1  UNL1        0.2770
      3 N           1.2881    0.8293   21.1204 N.2     1  UNL1       -0.2203
      4 C           2.2970    0.1653   20.2310 C.3     1  UNL1        0.1539
      5 C           1.8817    0.3936   18.8078 C.3     1  UNL1        0.2350
      6 O           0.6161    1.1987   18.8176 O.2     1  UNL1       -0.4478
      7 C           2.5850    0.0190   21.6957 C.ar    1  UNL1        0.0355
      8 C           1.6615    0.6318   22.7066 C.ar    1  UNL1        0.0007
      9 C           1.9495    0.4855   24.1713 C.ar    1  UNL1        0.0015
     10 C           3.1610   -0.2735   24.6254 C.ar    1  UNL1        0.0031
     11 C           4.0845   -0.8863   23.6146 C.ar    1  UNL1        0.0366
     12 C           3.7965   -0.7400   22.1497 C.ar    1  UNL1        0.1363
     13 O           4.7200   -1.3528   21.1390 O.3     1  UNL1       -0.4768
     14 C           4.4320   -1.2065   19.6741 C.3     1  UNL1        0.1975
     15 C           5.3555   -1.8192   18.6634 C.3     1  UNL1        0.1855
     16 O           5.0675   -1.6730   17.1986 O.3     1  UNL1       -0.3499
     17 C           3.8560   -0.9139   16.7446 C.3     1  UNL1        0.1425
     18 C           2.9325   -0.3012   17.7553 C.3     1  UNL1        0.0381
     19 C           3.2205   -0.4475   19.2201 C.3     1  UNL1        0.0734
     20 H          -1.1029    2.3641   21.6838 H       1  UNL1        0.1466
     21 H          -1.5750    2.6236   20.0660 H       1  UNL1        0.1466
     22 C           1.0261    1.0982   25.1821 C.ar    1  UNL1        0.0200
     23 C           1.3197    0.9610   26.6466 C.ar    1  UNL1        0.0989
     24 N           0.3962    1.5738   27.6574 N.ar    1  UNL1       -0.2414
     25 C          -0.8210    2.3238   27.2036 C.ar    1  UNL1        0.1102
     26 C          -1.1147    2.4610   25.7391 C.ar    1  UNL1        0.0768
     27 CL         -2.3318    3.2110   25.2852 Cl      1  UNL1       -0.0806
     28 C          -0.1912    1.8483   24.7283 C.ar    1  UNL1        0.0145
@<TRIPOS>BOND
     1     1     2    1
     2     2     3    2
     3     3     4    1
     4     4     5    1
     5     5     6    1
     6     4     7    1
     7     7     8   ar
     8     8     9   ar
     9     9    22    1
    10    22    23   ar
    11    23    24   ar
    12    24    25   ar
    13    25    26   ar
    14    26    27    1
    15    26    28   ar
    16     9    10   ar
    17    10    11   ar
    18    11    12   ar
    19    12    13    1
    20    13    14    1
    21    14    15    1
    22    15    16    1
    23    16    17    1
    24    17    18    1
    25    19    18    1
    26     6     2    1
    27    12     7   ar
    28    19    14    1
    29    19     4    1
    30    28    22   ar
    31     1    20    1
    32     1    21    1
@<TRIPOS>MOLECULE
*****
 28 32 0 0 0
SMALL
GASTEIGER

@<TRIPOS>ATOM
      1 N          -7.2334  -21.0463   20.1582 N.pl3   1  UNL1       -0.3133
      2 C          -6.0067  -20.2084   20.3664 C.2     1  UNL1        0.2770
      3 N          -5.8867  -19.0364   21.2948 N.2     1  UNL1       -0.2203
      4 C          -4.4906  -18.4991   21.1850 C.3     1  UNL1        0.1539
      5 C          -3.7477  -19.3390   20.1887 C.3     1  UNL1        0.2350
      6 O          -4.6847  -20.3955   19.6828 O.2     1  UNL1       -0.4478
      7 C          -5.3576  -17.7513   22.1541 C.ar    1  UNL1        0.0355
      8 C          -6.7804  -18.1751   22.3691 C.ar    1  UNL1        0.0007
      9 C          -7.6474  -17.4274   23.3382 C.ar    1  UNL1        0.0015
     10 C          -7.0917  -16.2558   24.0922 C.ar    1  UNL1        0.0031
     11 C          -5.6690  -15.8320   23.8773 C.ar    1  UNL1        0.0366
     12 C          -4.8019  -16.5798   22.9081 C.ar    1  UNL1        0.1363
     13 O          -3.3792  -16.1559   22.6932 O.3     1  UNL1       -0.4768
     14 C          -2.5121  -16.9037   21.7241 C.3     1  UNL1        0.1975
     15 C          -1.0895  -16.4798   21.5091 C.3     1  UNL1        0.1855
     16 O          -0.2225  -17.2276   20.5400 O.3     1  UNL1       -0.3499
     17 C          -0.7781  -18.3992   19.7859 C.3     1  UNL1        0.1425
     18 C          -2.2008  -18.8230   20.0009 C.3     1  UNL1        0.0381
     19 C          -3.0678  -18.0752   20.9700 C.3     1  UNL1        0.0734
     20 H          -8.0581  -20.8439   20.6562 H       1  UNL1        0.1466
     21 H          -7.2136  -21.7987   19.5236 H       1  UNL1        0.1466
     22 C          -9.0701  -17.8512   23.5532 C.ar    1  UNL1        0.0200
     23 C          -9.3709  -19.1190   24.2964 C.ar    1  UNL1        0.0989
     24 N         -10.7937  -19.5428   24.5114 N.ar    1  UNL1       -0.2414
     25 C         -11.9156  -18.6989   23.9831 C.ar    1  UNL1        0.1102
     26 C         -11.6148  -17.4312   23.2399 C.ar    1  UNL1        0.0768
     27 CL        -12.7367  -16.5873   22.7116 Cl      1  UNL1       -0.0806
     28 C         -10.1921  -17.0073   23.0249 C.ar    1  UNL1        0.0145
@<TRIPOS>BOND
     1     1     2    1
     2     2     3    2
     3     3     4    1
     4     4     5    1
     5     5     6    1
     6     4     7    1
     7     7     8   ar
     8     8     9   ar
     9     9    22    1
    10    22    23   ar
    11    23    24   ar
    12    24    25   ar
    13    25    26   ar
    14    26    27    1
    15    26    28   ar
    16     9    10   ar
    17    10    11   ar
    18    11    12   ar
    19    12    13    1
    20    13    14    1
    21    14    15    1
    22    15    16    1
    23    16    17    1
    24    17    18    1
    25    19    18    1
    26     6     2    1
    27    12     7   ar
    28    19    14    1
    29    19     4    1
    30    28    22   ar
    31     1    20    1
    32     1    21    1
@<TRIPOS>MOLECULE
*****
 28 32 0 0 0
SMALL
GASTEIGER

@<TRIPOS>ATOM
      1 N          -4.3115    2.5602   20.8570 N.pl3   1  UNL1       -0.3133
      2 C          -4.9224    3.2730   22.0269 C.2     1  UNL1        0.2770
      3 N          -4.2398    3.5800   23.3268 N.2     1  UNL1       -0.2203
      4 C          -5.2186    4.3007   24.2056 C.3     1  UNL1        0.1539
      5 C          -6.5063    4.4392   23.4489 C.3     1  UNL1        0.2350
      6 O          -6.3232    3.8041   22.1023 O.2     1  UNL1       -0.4478
      7 C          -3.8742    4.0884   24.8360 C.ar    1  UNL1        0.0355
      8 C          -2.7923    3.3808   24.0750 C.ar    1  UNL1        0.0007
      9 C          -1.4479    3.1686   24.7053 C.ar    1  UNL1        0.0015
     10 C          -1.1852    3.6638   26.0966 C.ar    1  UNL1        0.0031
     11 C          -2.2670    4.3713   26.8576 C.ar    1  UNL1        0.0366
     12 C          -3.6115    4.5837   26.2273 C.ar    1  UNL1        0.1363
     13 O          -4.6933    5.2912   26.9883 O.3     1  UNL1       -0.4768
     14 C          -6.0378    5.5035   26.3579 C.3     1  UNL1        0.1975
     15 C          -7.1196    6.2110   27.1189 C.3     1  UNL1        0.1855
     16 O          -8.4640    6.4233   26.4886 O.3     1  UNL1       -0.3499
     17 C          -8.7267    5.9281   25.0973 C.3     1  UNL1        0.1425
     18 C          -7.6449    5.2206   24.3363 C.3     1  UNL1        0.0381
     19 C          -6.3005    5.0083   24.9666 C.3     1  UNL1        0.0734
     20 H          -3.3792    2.2476   20.9032 H       1  UNL1        0.1466
     21 H          -4.8430    2.4050   20.0429 H       1  UNL1        0.1466
     22 C          -0.3661    2.4610   23.9443 C.ar    1  UNL1        0.0200
     23 C          -0.2164    2.6867   22.4690 C.ar    1  UNL1        0.0989
     24 N           0.8654    1.9791   21.7080 N.ar    1  UNL1       -0.2414
     25 C           1.7975    1.0459   22.4224 C.ar    1  UNL1        0.1102
     26 C           1.6478    0.8202   23.8977 C.ar    1  UNL1        0.0768
     27 CL          2.5798   -0.1129   24.6121 Cl      1  UNL1       -0.0806
     28 C           0.5660    1.5278   24.6587 C.ar    1  UNL1        0.0145
@<TRIPOS>BOND
     1     1     2    1
     2     2     3    2
     3     3     4    1
     4     4     5    1
     5     5     6    1
     6     4     7    1
     7     7     8   ar
     8     8     9   ar
     9     9    22    1
    10    22    23   ar
    11    23    24   ar
    12    24    25   ar
    13    25    26   ar
    14    26    27    1
    15    26    28   ar
    16     9    10   ar
    17    10    11   ar
    18    11    12   ar
    19    12    13    1
    20    13    14    1
    21    14    15    1
    22    15    16    1
    23    16    17    1
    24    17    18    1
    25    19    18    1
    26     6     2    1
    27    12     7   ar
    28    19    14    1
    29    19     4    1
    30    28    22   ar
    31     1    20    1
    32     1    21    1
