@<TRIPOS>MOLECULE
*****
 19 22 0 0 0
SMALL
GASTEIGER

@<TRIPOS>ATOM
      1 C         -13.0951  -17.7828   21.6015 C.ar    1  UNL1       -0.0000
      2 C         -12.4730  -16.5716   20.9722 C.ar    1  UNL1       -0.0000
      3 C         -11.2268  -15.9779   21.5592 C.ar    1  UNL1       -0.0000
      4 C         -10.6028  -16.5953   22.7755 C.ar    1  UNL1       -0.0003
      5 C          -9.3566  -16.0016   23.3625 C.ar    1  UNL1       -0.0042
      6 C          -8.7326  -16.6190   24.5788 C.ar    1  UNL1       -0.0215
      7 C          -9.3548  -17.8302   25.2081 C.ar    1  UNL1       -0.0042
      8 C         -10.6009  -18.4239   24.6211 C.ar    1  UNL1       -0.0003
      9 C         -11.2249  -17.8064   23.4047 C.ar    1  UNL1       -0.0000
     10 C         -12.4711  -18.4002   22.8177 C.ar    1  UNL1       -0.0000
     11 C          -7.4865  -16.0252   25.1658 C.3     1  UNL1        0.0347
     12 C          -8.5435  -16.0298   26.2299 C.3     1  UNL1        0.0054
     13 C          -7.9507  -15.4389   27.4747 C.3     1  UNL1        0.0004
     14 C          -6.5272  -15.0692   27.1797 C.3     1  UNL1        0.0017
     15 C          -6.2403  -15.4315   25.7528 C.3     1  UNL1        0.0208
     16 C          -5.1833  -15.4269   24.6885 C.3     1  UNL1        0.0689
     17 N          -5.7761  -16.0178   23.4438 N.3     1  UNL1       -0.2972
     18 C          -7.1995  -16.3876   23.7387 C.3     1  UNL1        0.0726
     19 H          -5.2517  -16.8493   23.1716 H       1  UNL1        0.1233
@<TRIPOS>BOND
     1     1     2   ar
     2     2     3   ar
     3     3     4   ar
     4     4     5   ar
     5     5     6   ar
     6    11     6    1
     7    11    12    1
     8    12    13    1
     9    13    14    1
    10    15    14    1
    11    15    16    1
    12    16    17    1
    13    17    18    1
    14     6     7   ar
    15     7     8   ar
    16     8     9   ar
    17     9    10   ar
    18    10     1   ar
    19     9     4   ar
    20    15    11    1
    21    18    11    1
    22    17    19    1
@<TRIPOS>MOLECULE
*****
 19 22 0 0 0
SMALL
GASTEIGER

@<TRIPOS>ATOM
      1 C          -6.2290  -15.1712   26.9103 C.ar    1  UNL1       -0.0000
      2 C          -7.3445  -15.9174   27.5803 C.ar    1  UNL1       -0.0000
      3 C          -8.4263  -16.5488   26.7552 C.ar    1  UNL1       -0.0000
      4 C          -8.3928  -16.4339   25.2600 C.ar    1  UNL1       -0.0003
      5 C          -9.4747  -17.0653   24.4348 C.ar    1  UNL1       -0.0042
      6 C          -9.4411  -16.9504   22.9396 C.ar    1  UNL1       -0.0215
      7 C          -8.3257  -16.2042   22.2695 C.ar    1  UNL1       -0.0042
      8 C          -7.2438  -15.5728   23.0947 C.ar    1  UNL1       -0.0003
      9 C          -7.2774  -15.6877   24.5900 C.ar    1  UNL1       -0.0000
     10 C          -6.1955  -15.0564   25.4151 C.ar    1  UNL1       -0.0000
     11 C         -10.5230  -17.5818   22.1144 C.3     1  UNL1        0.0347
     12 C         -11.1170  -16.4111   22.8399 C.3     1  UNL1        0.0054
     13 C         -12.5659  -16.3189   22.4632 C.3     1  UNL1        0.0004
     14 C         -12.8674  -17.4326   21.5048 C.3     1  UNL1        0.0017
     15 C         -11.6049  -18.2132   21.2892 C.3     1  UNL1        0.0208
     16 C         -11.0109  -19.3840   20.5637 C.3     1  UNL1        0.0689
     17 N          -9.5619  -19.4762   20.9404 N.3     1  UNL1       -0.2972
     18 C          -9.2604  -18.3624   21.8988 C.3     1  UNL1        0.0726
     19 H          -8.9810  -19.3827   20.1072 H       1  UNL1        0.1233
@<TRIPOS>BOND
     1     1     2   ar
     2     2     3   ar
     3     3     4   ar
     4     4     5   ar
     5     5     6   ar
     6    11     6    1
     7    11    12    1
     8    12    13    1
     9    13    14    1
    10    15    14    1
    11    15    16    1
    12    16    17    1
    13    17    18    1
    14     6     7   ar
    15     7     8   ar
    16     8     9   ar
    17     9    10   ar
    18    10     1   ar
    19     9     4   ar
    20    15    11    1
    21    18    11    1
    22    17    19    1
@<TRIPOS>MOLECULE
*****
 19 22 0 0 0
SMALL
GASTEIGER

@<TRIPOS>ATOM
      1 C          -1.8888  -18.6271   22.0709 C.ar    1  UNL1       -0.0000
      2 C          -2.5903  -17.7223   23.0399 C.ar    1  UNL1       -0.0000
      3 C          -4.0881  -17.7277   23.1215 C.ar    1  UNL1       -0.0000
      4 C          -4.8843  -18.6379   22.2341 C.ar    1  UNL1       -0.0003
      5 C          -6.3821  -18.6433   22.3157 C.ar    1  UNL1       -0.0042
      6 C          -7.1783  -19.5534   21.4283 C.ar    1  UNL1       -0.0215
      7 C          -6.4767  -20.4583   20.4591 C.ar    1  UNL1       -0.0042
      8 C          -4.9789  -20.4529   20.3775 C.ar    1  UNL1       -0.0003
      9 C          -4.1827  -19.5426   21.2651 C.ar    1  UNL1       -0.0000
     10 C          -2.6850  -19.5372   21.1834 C.ar    1  UNL1       -0.0000
     11 C          -8.6760  -19.5588   21.5099 C.3     1  UNL1        0.0347
     12 C          -8.1384  -20.0331   22.8273 C.3     1  UNL1        0.0054
     13 C          -9.3038  -20.3317   23.7232 C.3     1  UNL1        0.0004
     14 C         -10.5617  -20.0418   22.9594 C.3     1  UNL1        0.0017
     15 C         -10.1738  -19.5642   21.5915 C.3     1  UNL1        0.0208
     16 C         -10.7115  -19.0899   20.2739 C.3     1  UNL1        0.0689
     17 N          -9.5461  -18.7914   19.3780 N.3     1  UNL1       -0.2972
     18 C          -8.2881  -19.0812   20.1419 C.3     1  UNL1        0.0726
     19 H          -9.5647  -17.8098   19.1014 H       1  UNL1        0.1233
@<TRIPOS>BOND
     1     1     2   ar
     2     2     3   ar
     3     3     4   ar
     4     4     5   ar
     5     5     6   ar
     6    11     6    1
     7    11    12    1
     8    12    13    1
     9    13    14    1
    10    15    14    1
    11    15    16    1
    12    16    17    1
    13    17    18    1
    14     6     7   ar
    15     7     8   ar
    16     8     9   ar
    17     9    10   ar
    18    10     1   ar
    19     9     4   ar
    20    15    11    1
    21    18    11    1
    22    17    19    1
@<TRIPOS>MOLECULE
*****
 19 22 0 0 0
SMALL
GASTEIGER

@<TRIPOS>ATOM
      1 C          -2.8975  -19.8781   20.6732 C.ar    1  UNL1       -0.0000
      2 C          -2.8270  -19.1419   21.9782 C.ar    1  UNL1       -0.0000
      3 C          -4.0877  -18.6886   22.6528 C.ar    1  UNL1       -0.0000
      4 C          -5.4190  -18.9714   22.0223 C.ar    1  UNL1       -0.0003
      5 C          -6.6798  -18.5181   22.6968 C.ar    1  UNL1       -0.0042
      6 C          -8.0111  -18.8009   22.0664 C.ar    1  UNL1       -0.0215
      7 C          -8.0817  -19.5370   20.7613 C.ar    1  UNL1       -0.0042
      8 C          -6.8210  -19.9903   20.0867 C.ar    1  UNL1       -0.0003
      9 C          -5.4896  -19.7075   20.7173 C.ar    1  UNL1       -0.0000
     10 C          -4.2289  -20.1608   20.0427 C.ar    1  UNL1       -0.0000
     11 C          -9.2719  -18.3475   22.7409 C.3     1  UNL1        0.0347
     12 C          -9.0299  -19.7775   23.1234 C.3     1  UNL1        0.0054
     13 C         -10.1411  -20.2081   24.0344 C.3     1  UNL1        0.0004
     14 C         -11.0698  -19.0440   24.2148 C.3     1  UNL1        0.0017
     15 C         -10.5326  -17.8942   23.4154 C.3     1  UNL1        0.0208
     16 C         -10.7745  -16.4641   23.0329 C.3     1  UNL1        0.0689
     17 N          -9.6633  -16.0336   22.1219 N.3     1  UNL1       -0.2972
     18 C          -8.7346  -17.1976   21.9415 C.3     1  UNL1        0.0726
     19 H          -9.1595  -15.2499   22.5370 H       1  UNL1        0.1233
@<TRIPOS>BOND
     1     1     2   ar
     2     2     3   ar
     3     3     4   ar
     4     4     5   ar
     5     5     6   ar
     6    11     6    1
     7    11    12    1
     8    12    13    1
     9    13    14    1
    10    15    14    1
    11    15    16    1
    12    16    17    1
    13    17    18    1
    14     6     7   ar
    15     7     8   ar
    16     8     9   ar
    17     9    10   ar
    18    10     1   ar
    19     9     4   ar
    20    15    11    1
    21    18    11    1
    22    17    19    1
@<TRIPOS>MOLECULE
*****
 19 22 0 0 0
SMALL
GASTEIGER

@<TRIPOS>ATOM
      1 C          -1.9283  -18.7421   21.9216 C.ar    1  UNL1       -0.0000
      2 C          -2.6128  -17.8184   22.8849 C.ar    1  UNL1       -0.0000
      3 C          -4.1091  -17.8194   22.9906 C.ar    1  UNL1       -0.0000
      4 C          -4.9209  -18.7441   22.1328 C.ar    1  UNL1       -0.0003
      5 C          -6.4171  -18.7451   22.2384 C.ar    1  UNL1       -0.0042
      6 C          -7.2289  -19.6699   21.3806 C.ar    1  UNL1       -0.0215
      7 C          -6.5444  -20.5936   20.4171 C.ar    1  UNL1       -0.0042
      8 C          -5.0482  -20.5926   20.3115 C.ar    1  UNL1       -0.0003
      9 C          -4.2364  -19.6678   21.1694 C.ar    1  UNL1       -0.0000
     10 C          -2.7401  -19.6668   21.0638 C.ar    1  UNL1       -0.0000
     11 C          -8.7252  -19.6709   21.4862 C.3     1  UNL1        0.0347
     12 C          -8.3617  -19.4001   20.0564 C.3     1  UNL1        0.0054
     13 C          -9.6332  -19.2338   19.2783 C.3     1  UNL1        0.0004
     14 C         -10.7826  -19.4018   20.2273 C.3     1  UNL1        0.0017
     15 C         -10.2215  -19.6719   21.5918 C.3     1  UNL1        0.0208
     16 C         -10.5850  -19.9426   23.0217 C.3     1  UNL1        0.0689
     17 N          -9.3135  -20.1090   23.7998 N.3     1  UNL1       -0.2972
     18 C          -8.1641  -19.9410   22.8508 C.3     1  UNL1        0.0726
     19 H          -9.2833  -21.0383   24.2190 H       1  UNL1        0.1233
@<TRIPOS>BOND
     1     1     2   ar
     2     2     3   ar
     3     3     4   ar
     4     4     5   ar
     5     5     6   ar
     6    11     6    1
     7    11    12    1
     8    12    13    1
     9    13    14    1
    10    15    14    1
    11    15    16    1
    12    16    17    1
    13    17    18    1
    14     6     7   ar
    15     7     8   ar
    16     8     9   ar
    17     9    10   ar
    18    10     1   ar
    19     9     4   ar
    20    15    11    1
    21    18    11    1
    22    17    19    1
@<TRIPOS>MOLECULE
*****
 19 22 0 0 0
SMALL
GASTEIGER

@<TRIPOS>ATOM
      1 C          -3.7166  -17.6982   23.1915 C.ar    1  UNL1       -0.0000
      2 C          -4.2337  -18.8339   22.3594 C.ar    1  UNL1       -0.0000
      3 C          -5.7041  -18.9576   22.0901 C.ar    1  UNL1       -0.0000
      4 C          -6.6574  -17.9455   22.6529 C.ar    1  UNL1       -0.0003
      5 C          -8.1279  -18.0692   22.3836 C.ar    1  UNL1       -0.0042
      6 C          -9.0812  -17.0572   22.9465 C.ar    1  UNL1       -0.0215
      7 C          -8.5640  -15.9213   23.7787 C.ar    1  UNL1       -0.0042
      8 C          -7.0936  -15.7976   24.0480 C.ar    1  UNL1       -0.0003
      9 C          -6.1403  -16.8098   23.4851 C.ar    1  UNL1       -0.0000
     10 C          -4.6699  -16.6861   23.7544 C.ar    1  UNL1       -0.0000
     11 C         -10.5516  -17.1809   22.6772 C.3     1  UNL1        0.0347
     12 C         -10.2402  -17.9639   23.9180 C.3     1  UNL1        0.0054
     13 C         -11.5181  -18.5715   24.4157 C.3     1  UNL1        0.0004
     14 C         -12.6193  -18.1640   23.4823 C.3     1  UNL1        0.0017
     15 C         -12.0220  -17.3045   22.4079 C.3     1  UNL1        0.0208
     16 C         -12.3335  -16.5215   21.1670 C.3     1  UNL1        0.0689
     17 N         -11.0555  -15.9138   20.6694 N.3     1  UNL1       -0.2972
     18 C          -9.9543  -16.3213   21.6027 C.3     1  UNL1        0.0726
     19 H         -11.1383  -14.8973   20.6546 H       1  UNL1        0.1233
@<TRIPOS>BOND
     1     1     2   ar
     2     2     3   ar
     3     3     4   ar
     4     4     5   ar
     5     5     6   ar
     6    11     6    1
     7    11    12    1
     8    12    13    1
     9    13    14    1
    10    15    14    1
    11    15    16    1
    12    16    17    1
    13    17    18    1
    14     6     7   ar
    15     7     8   ar
    16     8     9   ar
    17     9    10   ar
    18    10     1   ar
    19     9     4   ar
    20    15    11    1
    21    18    11    1
    22    17    19    1
@<TRIPOS>MOLECULE
*****
 19 22 0 0 0
SMALL
GASTEIGER

@<TRIPOS>ATOM
      1 C         -12.5938  -17.2746   22.8481 C.ar    1  UNL1       -0.0000
      2 C         -11.8835  -16.1766   22.1135 C.ar    1  UNL1       -0.0000
      3 C         -10.4365  -16.3315   21.7496 C.ar    1  UNL1       -0.0000
      4 C          -9.6999  -17.5844   22.1204 C.ar    1  UNL1       -0.0003
      5 C          -8.2530  -17.7393   21.7565 C.ar    1  UNL1       -0.0042
      6 C          -7.5163  -18.9922   22.1273 C.ar    1  UNL1       -0.0215
      7 C          -8.2266  -20.0903   22.8620 C.ar    1  UNL1       -0.0042
      8 C          -9.6736  -19.9354   23.2259 C.ar    1  UNL1       -0.0003
      9 C         -10.4102  -18.6824   22.8550 C.ar    1  UNL1       -0.0000
     10 C         -11.8571  -18.5276   23.2189 C.ar    1  UNL1       -0.0000
     11 C          -6.0694  -19.1470   21.7635 C.3     1  UNL1        0.0347
     12 C          -6.8514  -20.1761   21.0024 C.3     1  UNL1        0.0054
     13 C          -5.8879  -20.9670   20.1681 C.3     1  UNL1        0.0004
     14 C          -4.5103  -20.4267   20.4136 C.3     1  UNL1        0.0017
     15 C          -4.6225  -19.3019   21.3996 C.3     1  UNL1        0.0208
     16 C          -3.8404  -18.2728   22.1607 C.3     1  UNL1        0.0689
     17 N          -4.8040  -17.4819   22.9950 N.3     1  UNL1       -0.2972
     18 C          -6.1815  -18.0222   22.7495 C.3     1  UNL1        0.0726
     19 H          -4.7655  -16.4980   22.7290 H       1  UNL1        0.1233
@<TRIPOS>BOND
     1     1     2   ar
     2     2     3   ar
     3     3     4   ar
     4     4     5   ar
     5     5     6   ar
     6    11     6    1
     7    11    12    1
     8    12    13    1
     9    13    14    1
    10    15    14    1
    11    15    16    1
    12    16    17    1
    13    17    18    1
    14     6     7   ar
    15     7     8   ar
    16     8     9   ar
    17     9    10   ar
    18    10     1   ar
    19     9     4   ar
    20    15    11    1
    21    18    11    1
    22    17    19    1
@<TRIPOS>MOLECULE
*****
 19 22 0 0 0
SMALL
GASTEIGER

@<TRIPOS>ATOM
      1 C          -4.0288  -19.8460   20.8845 C.ar    1  UNL1       -0.0000
      2 C          -4.9666  -20.7890   20.1907 C.ar    1  UNL1       -0.0000
      3 C          -6.4469  -20.6619   20.3975 C.ar    1  UNL1       -0.0000
      4 C          -6.9893  -19.5920   21.2979 C.ar    1  UNL1       -0.0003
      5 C          -8.4695  -19.4649   21.5047 C.ar    1  UNL1       -0.0042
      6 C          -9.0119  -18.3949   22.4052 C.ar    1  UNL1       -0.0215
      7 C          -8.0741  -17.4519   23.0989 C.ar    1  UNL1       -0.0042
      8 C          -6.5938  -17.5790   22.8922 C.ar    1  UNL1       -0.0003
      9 C          -6.0514  -18.6490   21.9917 C.ar    1  UNL1       -0.0000
     10 C          -4.5712  -18.7761   21.7849 C.ar    1  UNL1       -0.0000
     11 C         -10.4922  -18.2679   22.6119 C.3     1  UNL1        0.0347
     12 C         -10.1857  -17.8698   21.1986 C.3     1  UNL1        0.0054
     13 C         -11.4765  -17.4967   20.5318 C.3     1  UNL1        0.0004
     14 C         -12.5807  -17.6643   21.5331 C.3     1  UNL1        0.0017
     15 C         -11.9724  -18.1409   22.8186 C.3     1  UNL1        0.0208
     16 C         -12.2789  -18.5390   24.2320 C.3     1  UNL1        0.0689
     17 N         -10.9881  -18.9121   24.8988 N.3     1  UNL1       -0.2972
     18 C          -9.8838  -18.7445   23.8975 C.3     1  UNL1        0.0726
     19 H         -11.0277  -19.8822   25.2113 H       1  UNL1        0.1233
@<TRIPOS>BOND
     1     1     2   ar
     2     2     3   ar
     3     3     4   ar
     4     4     5   ar
     5     5     6   ar
     6    11     6    1
     7    11    12    1
     8    12    13    1
     9    13    14    1
    10    15    14    1
    11    15    16    1
    12    16    17    1
    13    17    18    1
    14     6     7   ar
    15     7     8   ar
    16     8     9   ar
    17     9    10   ar
    18    10     1   ar
    19     9     4   ar
    20    15    11    1
    21    18    11    1
    22    17    19    1
@<TRIPOS>MOLECULE
*****
 19 22 0 0 0
SMALL
GASTEIGER

@<TRIPOS>ATOM
      1 C          -3.9448  -17.8521   22.9502 C.ar    1  UNL1       -0.0000
      2 C          -4.5112  -16.6148   23.5813 C.ar    1  UNL1       -0.0000
      3 C          -5.9962  -16.4077   23.6250 C.ar    1  UNL1       -0.0000
      4 C          -6.9148  -17.4379   23.0377 C.ar    1  UNL1       -0.0003
      5 C          -8.3998  -17.2307   23.0814 C.ar    1  UNL1       -0.0042
      6 C          -9.3183  -18.2609   22.4941 C.ar    1  UNL1       -0.0215
      7 C          -8.7519  -19.4982   21.8629 C.ar    1  UNL1       -0.0042
      8 C          -7.2669  -19.7053   21.8192 C.ar    1  UNL1       -0.0003
      9 C          -6.3483  -18.6751   22.4066 C.ar    1  UNL1       -0.0000
     10 C          -4.8634  -18.8822   22.3629 C.ar    1  UNL1       -0.0000
     11 C         -10.8033  -18.0538   22.5378 C.3     1  UNL1        0.0347
     12 C         -10.3118  -17.6032   21.1942 C.3     1  UNL1        0.0054
     13 C         -11.4931  -17.1176   20.4075 C.3     1  UNL1        0.0004
     14 C         -12.7146  -17.2681   21.2650 C.3     1  UNL1        0.0017
     15 C         -12.2883  -17.8467   22.5815 C.3     1  UNL1        0.0208
     16 C         -12.7798  -18.2973   23.9252 C.3     1  UNL1        0.0689
     17 N         -11.5986  -18.7829   24.7119 N.3     1  UNL1       -0.2972
     18 C         -10.3770  -18.6324   23.8544 C.3     1  UNL1        0.0726
     19 H         -11.7280  -19.7635   24.9609 H       1  UNL1        0.1233
@<TRIPOS>BOND
     1     1     2   ar
     2     2     3   ar
     3     3     4   ar
     4     4     5   ar
     5     5     6   ar
     6    11     6    1
     7    11    12    1
     8    12    13    1
     9    13    14    1
    10    15    14    1
    11    15    16    1
    12    16    17    1
    13    17    18    1
    14     6     7   ar
    15     7     8   ar
    16     8     9   ar
    17     9    10   ar
    18    10     1   ar
    19     9     4   ar
    20    15    11    1
    21    18    11    1
    22    17    19    1
