@<TRIPOS>MOLECULE
*****
 22 24 0 0 0
SMALL
GASTEIGER

@<TRIPOS>ATOM
      1 C          -9.9887  -18.8216   20.8616 C.ar    1  UNL1        0.0000
      2 C         -10.4074  -19.5150   19.5991 C.ar    1  UNL1       -0.0000
      3 C          -9.3707  -20.0870   18.6783 C.ar    1  UNL1        0.0000
      4 C          -7.9151  -19.9657   19.0200 C.ar    1  UNL1        0.0015
      5 C          -7.4964  -19.2723   20.2826 C.ar    1  UNL1        0.0172
      6 C          -8.5333  -18.7003   21.2034 C.ar    1  UNL1        0.0015
      7 C         -11.6014  -16.8912   21.5119 C.ar    1  UNL1        0.0714
      8 C         -12.6382  -16.3193   22.4327 C.ar    1  UNL1        0.0039
      9 C         -13.0992  -17.1057   23.6240 C.ar    1  UNL1       -0.0001
     10 C         -12.5234  -18.4641   23.8944 C.ar    1  UNL1       -0.0000
     11 C         -11.4866  -19.0360   22.9736 C.ar    1  UNL1       -0.0001
     12 C         -11.0256  -18.2496   21.7824 C.ar    1  UNL1        0.0039
     13 F         -10.6794  -15.3184   19.1295 F       1  UNL1       -0.1659
     14 C         -11.1404  -16.1048   20.3207 C.3     1  UNL1        0.4186
     15 F         -10.0505  -15.4904   21.1481 F       1  UNL1       -0.1659
     16 F         -12.2304  -16.7192   19.4933 F       1  UNL1       -0.1659
     17 C          -6.0409  -19.1510   20.6243 C.ar    1  UNL1        0.0772
     18 C          -5.4099  -19.5145   21.9357 C.ar    1  UNL1        0.1175
     19 N          -3.9399  -19.2330   21.8365 N.ar    1  UNL1       -0.2225
     20 C          -3.6624  -18.6955   20.4638 C.ar    1  UNL1        0.1750
     21 N          -4.9609  -18.6448   19.7147 N.ar    1  UNL1       -0.3349
     22 H          -5.0830  -18.3340   18.7886 H       1  UNL1        0.1675
@<TRIPOS>BOND
     1    13    14    1
     2    14    15    1
     3    14    16    1
     4    14     7    1
     5     7     8   ar
     6     8     9   ar
     7     9    10   ar
     8    10    11   ar
     9    11    12   ar
    10    12     1    1
    11     1     2   ar
    12     2     3   ar
    13     3     4   ar
    14     4     5   ar
    15     5    17    1
    16    17    18   ar
    17    18    19   ar
    18    19    20   ar
    19    20    21   ar
    20     5     6   ar
    21    12     7   ar
    22     6     1   ar
    23    21    17   ar
    24    21    22    1
@<TRIPOS>MOLECULE
*****
 22 24 0 0 0
SMALL
GASTEIGER

@<TRIPOS>ATOM
      1 C          -9.4237  -18.6085   21.0955 C.ar    1  UNL1        0.0000
      2 C          -9.5414  -19.3018   19.7706 C.ar    1  UNL1       -0.0000
      3 C          -8.3135  -19.8242   19.0857 C.ar    1  UNL1        0.0000
      4 C          -6.9676  -19.6533   19.7257 C.ar    1  UNL1        0.0015
      5 C          -6.8498  -18.9599   21.0507 C.ar    1  UNL1        0.0172
      6 C          -8.0779  -18.4375   21.7355 C.ar    1  UNL1        0.0015
      7 C         -11.1428  -18.7373   23.0393 C.ar    1  UNL1        0.0714
      8 C         -12.3708  -18.2149   23.7241 C.ar    1  UNL1        0.0039
      9 C         -13.1078  -17.0413   23.1500 C.ar    1  UNL1       -0.0001
     10 C         -12.6167  -16.3900   21.8912 C.ar    1  UNL1       -0.0000
     11 C         -11.3887  -16.9125   21.2064 C.ar    1  UNL1       -0.0001
     12 C         -10.6518  -18.0861   21.7804 C.ar    1  UNL1        0.0039
     13 F          -9.6689  -21.0845   24.1873 F       1  UNL1       -0.1659
     14 C         -10.4059  -19.9109   23.6133 C.3     1  UNL1        0.4186
     15 F          -9.7601  -19.0108   24.6246 F       1  UNL1       -0.1659
     16 F         -11.0516  -20.8110   22.6019 F       1  UNL1       -0.1659
     17 C          -5.5041  -18.7890   21.6907 C.ar    1  UNL1        0.0772
     18 C          -4.2826  -19.6128   21.4088 C.ar    1  UNL1        0.1175
     19 N          -3.1671  -19.0971   22.2689 N.ar    1  UNL1       -0.2225
     20 C          -3.6992  -17.9546   23.0823 C.ar    1  UNL1        0.1750
     21 N          -5.1435  -17.7642   22.7249 N.ar    1  UNL1       -0.3349
     22 H          -5.7485  -17.0857   23.1029 H       1  UNL1        0.1675
@<TRIPOS>BOND
     1    13    14    1
     2    14    15    1
     3    14    16    1
     4    14     7    1
     5     7     8   ar
     6     8     9   ar
     7     9    10   ar
     8    10    11   ar
     9    11    12   ar
    10    12     1    1
    11     1     2   ar
    12     2     3   ar
    13     3     4   ar
    14     4     5   ar
    15     5    17    1
    16    17    18   ar
    17    18    19   ar
    18    19    20   ar
    19    20    21   ar
    20     5     6   ar
    21    12     7   ar
    22     6     1   ar
    23    21    17   ar
    24    21    22    1
@<TRIPOS>MOLECULE
*****
 22 24 0 0 0
SMALL
GASTEIGER

@<TRIPOS>ATOM
      1 C          -8.7292  -16.5739   23.3620 C.ar    1  UNL1        0.0000
      2 C          -8.8095  -15.7053   24.5822 C.ar    1  UNL1       -0.0000
      3 C          -7.5566  -15.3141   25.3082 C.ar    1  UNL1        0.0000
      4 C          -6.2232  -15.7915   24.8140 C.ar    1  UNL1        0.0015
      5 C          -6.1429  -16.6601   23.5937 C.ar    1  UNL1        0.0172
      6 C          -7.3959  -17.0513   22.8677 C.ar    1  UNL1        0.0015
      7 C         -10.6611  -18.2633   22.9576 C.ar    1  UNL1        0.0714
      8 C         -11.9141  -18.6545   22.2317 C.ar    1  UNL1        0.0039
      9 C         -12.4881  -17.7473   21.1840 C.ar    1  UNL1       -0.0001
     10 C         -11.8092  -16.4491   20.8623 C.ar    1  UNL1       -0.0000
     11 C         -10.5562  -16.0579   21.5883 C.ar    1  UNL1       -0.0001
     12 C          -9.9822  -16.9651   22.6360 C.ar    1  UNL1        0.0039
     13 F          -9.5131  -20.0776   25.0530 F       1  UNL1       -0.1659
     14 C         -10.0871  -19.1705   24.0053 C.3     1  UNL1        0.4186
     15 F         -10.8935  -18.4668   25.0564 F       1  UNL1       -0.1659
     16 F          -9.2807  -19.8741   22.9543 F       1  UNL1       -0.1659
     17 C          -4.8096  -17.1375   23.0994 C.ar    1  UNL1        0.0772
     18 C          -4.4457  -18.5563   22.7757 C.ar    1  UNL1        0.1175
     19 N          -3.0173  -18.5757   22.3183 N.ar    1  UNL1       -0.2225
     20 C          -2.4984  -17.1688   22.3593 C.ar    1  UNL1        0.1750
     21 N          -3.6061  -16.2801   22.8420 N.ar    1  UNL1       -0.3349
     22 H          -3.5526  -15.3051   22.9679 H       1  UNL1        0.1675
@<TRIPOS>BOND
     1    13    14    1
     2    14    15    1
     3    14    16    1
     4    14     7    1
     5     7     8   ar
     6     8     9   ar
     7     9    10   ar
     8    10    11   ar
     9    11    12   ar
    10    12     1    1
    11     1     2   ar
    12     2     3   ar
    13     3     4   ar
    14     4     5   ar
    15     5    17    1
    16    17    18   ar
    17    18    19   ar
    18    19    20   ar
    19    20    21   ar
    20     5     6   ar
    21    12     7   ar
    22     6     1   ar
    23    21    17   ar
    24    21    22    1
@<TRIPOS>MOLECULE
*****
 22 24 0 0 0
SMALL
GASTEIGER

@<TRIPOS>ATOM
      1 C         -12.4350   -4.4175   18.6714 C.ar    1  UNL1        0.0000
      2 C         -12.8998   -3.5030   19.7658 C.ar    1  UNL1       -0.0000
      3 C         -14.0307   -3.9175   20.6597 C.ar    1  UNL1        0.0000
      4 C         -14.6969   -5.2465   20.4592 C.ar    1  UNL1        0.0015
      5 C         -14.2320   -6.1610   19.3648 C.ar    1  UNL1        0.0172
      6 C         -13.1010   -5.7464   18.4709 C.ar    1  UNL1        0.0015
      7 C         -10.0449   -4.8170   17.7343 C.ar    1  UNL1        0.0714
      8 C          -8.9140   -4.4024   16.8404 C.ar    1  UNL1        0.0039
      9 C          -9.0422   -3.1738   15.9896 C.ar    1  UNL1       -0.0001
     10 C         -10.3013   -2.3597   16.0326 C.ar    1  UNL1       -0.0000
     11 C         -11.4322   -2.7742   16.9266 C.ar    1  UNL1       -0.0001
     12 C         -11.3040   -4.0029   17.7774 C.ar    1  UNL1        0.0039
     13 F          -9.7885   -7.2743   19.4360 F       1  UNL1       -0.1659
     14 C          -9.9167   -6.0457   18.5852 C.3     1  UNL1        0.4186
     15 F         -10.3307   -6.8954   17.4205 F       1  UNL1       -0.1659
     16 F          -9.5027   -5.1959   19.7499 F       1  UNL1       -0.1659
     17 C         -14.8981   -7.4899   19.1644 C.ar    1  UNL1        0.0772
     18 C         -14.3686   -8.6262   18.3406 C.ar    1  UNL1        0.1175
     19 N         -15.3539   -9.7545   18.4196 N.ar    1  UNL1       -0.2225
     20 C         -16.4923   -9.3155   19.2922 C.ar    1  UNL1        0.1750
     21 N         -16.2105   -7.9159   19.7525 N.ar    1  UNL1       -0.3349
     22 H         -16.7860   -7.3724   20.3378 H       1  UNL1        0.1675
@<TRIPOS>BOND
     1    13    14    1
     2    14    15    1
     3    14    16    1
     4    14     7    1
     5     7     8   ar
     6     8     9   ar
     7     9    10   ar
     8    10    11   ar
     9    11    12   ar
    10    12     1    1
    11     1     2   ar
    12     2     3   ar
    13     3     4   ar
    14     4     5   ar
    15     5    17    1
    16    17    18   ar
    17    18    19   ar
    18    19    20   ar
    19    20    21   ar
    20     5     6   ar
    21    12     7   ar
    22     6     1   ar
    23    21    17   ar
    24    21    22    1
@<TRIPOS>MOLECULE
*****
 22 24 0 0 0
SMALL
GASTEIGER

@<TRIPOS>ATOM
      1 C          -8.2317  -18.6019   21.9651 C.ar    1  UNL1        0.0000
      2 C          -8.4321  -19.1496   20.5831 C.ar    1  UNL1       -0.0000
      3 C          -9.8102  -19.5060   20.1102 C.ar    1  UNL1        0.0000
      4 C         -10.9880  -19.3148   21.0192 C.ar    1  UNL1        0.0015
      5 C         -10.7876  -18.7671   22.4012 C.ar    1  UNL1        0.0172
      6 C          -9.4094  -18.4107   22.8742 C.ar    1  UNL1        0.0015
      7 C          -6.6324  -16.9876   23.2247 C.ar    1  UNL1        0.0714
      8 C          -5.2543  -16.6312   23.6976 C.ar    1  UNL1        0.0039
      9 C          -4.0972  -17.5327   23.3838 C.ar    1  UNL1       -0.0001
     10 C          -4.3182  -18.7906   22.5972 C.ar    1  UNL1       -0.0000
     11 C          -5.6964  -19.1470   22.1243 C.ar    1  UNL1       -0.0001
     12 C          -6.8535  -18.2455   22.4380 C.ar    1  UNL1        0.0039
     13 F          -8.9466  -15.1846   23.8521 F       1  UNL1       -0.1659
     14 C          -7.7895  -16.0861   23.5384 C.3     1  UNL1        0.4186
     15 F          -7.7964  -15.6009   22.1190 F       1  UNL1       -0.1659
     16 F          -7.7827  -16.5712   24.9578 F       1  UNL1       -0.1659
     17 C         -11.9653  -18.5759   23.3103 C.ar    1  UNL1        0.0772
     18 C         -13.2830  -17.9683   22.9301 C.ar    1  UNL1        0.1175
     19 N         -14.1642  -17.9756   24.1440 N.ar    1  UNL1       -0.2225
     20 C         -13.3910  -18.5877   25.2743 C.ar    1  UNL1        0.1750
     21 N         -12.0321  -18.9587   24.7590 N.ar    1  UNL1       -0.3349
     22 H         -11.3106  -19.3795   25.2802 H       1  UNL1        0.1675
@<TRIPOS>BOND
     1    13    14    1
     2    14    15    1
     3    14    16    1
     4    14     7    1
     5     7     8   ar
     6     8     9   ar
     7     9    10   ar
     8    10    11   ar
     9    11    12   ar
    10    12     1    1
    11     1     2   ar
    12     2     3   ar
    13     3     4   ar
    14     4     5   ar
    15     5    17    1
    16    17    18   ar
    17    18    19   ar
    18    19    20   ar
    19    20    21   ar
    20     5     6   ar
    21    12     7   ar
    22     6     1   ar
    23    21    17   ar
    24    21    22    1
@<TRIPOS>MOLECULE
*****
 22 24 0 0 0
SMALL
GASTEIGER

@<TRIPOS>ATOM
      1 C          -6.9634  -19.7094   20.2496 C.ar    1  UNL1        0.0000
      2 C          -6.7093  -21.1824   20.1238 C.ar    1  UNL1       -0.0000
      3 C          -5.3021  -21.6987   20.0683 C.ar    1  UNL1        0.0000
      4 C          -4.1489  -20.7420   20.1387 C.ar    1  UNL1        0.0015
      5 C          -4.4030  -19.2690   20.2646 C.ar    1  UNL1        0.0172
      6 C          -5.8103  -18.7528   20.3201 C.ar    1  UNL1        0.0015
      7 C          -8.7783  -18.2417   21.3907 C.ar    1  UNL1        0.0714
      8 C         -10.1856  -17.7255   21.4461 C.ar    1  UNL1        0.0039
      9 C         -11.1852  -18.1607   20.4160 C.ar    1  UNL1       -0.0001
     10 C         -10.7776  -19.1122   19.3304 C.ar    1  UNL1       -0.0000
     11 C          -9.3704  -19.6284   19.2749 C.ar    1  UNL1       -0.0001
     12 C          -8.3707  -19.1932   20.3051 C.ar    1  UNL1        0.0039
     13 F          -6.7790  -17.3712   23.4510 F       1  UNL1       -0.1659
     14 C          -7.7787  -17.8065   22.4209 C.3     1  UNL1        0.4186
     15 F          -7.7710  -19.1908   22.9983 F       1  UNL1       -0.1659
     16 F          -7.7863  -16.4221   21.8434 F       1  UNL1       -0.1659
     17 C          -3.2498  -18.3124   20.3350 C.ar    1  UNL1        0.0772
     18 C          -2.1459  -18.1864   19.3273 C.ar    1  UNL1        0.1175
     19 N          -1.2119  -17.1099   19.7950 N.ar    1  UNL1       -0.2225
     20 C          -1.7387  -16.5705   21.0918 C.ar    1  UNL1        0.1750
     21 N          -2.9981  -17.3137   21.4255 N.ar    1  UNL1       -0.3349
     22 H          -3.5608  -17.1710   22.2207 H       1  UNL1        0.1675
@<TRIPOS>BOND
     1    13    14    1
     2    14    15    1
     3    14    16    1
     4    14     7    1
     5     7     8   ar
     6     8     9   ar
     7     9    10   ar
     8    10    11   ar
     9    11    12   ar
    10    12     1    1
    11     1     2   ar
    12     2     3   ar
    13     3     4   ar
    14     4     5   ar
    15     5    17    1
    16    17    18   ar
    17    18    19   ar
    18    19    20   ar
    19    20    21   ar
    20     5     6   ar
    21    12     7   ar
    22     6     1   ar
    23    21    17   ar
    24    21    22    1
@<TRIPOS>MOLECULE
*****
 22 24 0 0 0
SMALL
GASTEIGER

@<TRIPOS>ATOM
      1 C         -11.4615   -4.2103   18.3888 C.ar    1  UNL1        0.0000
      2 C         -10.1326   -4.7188   18.8637 C.ar    1  UNL1       -0.0000
      3 C          -9.9244   -6.1891   19.0757 C.ar    1  UNL1        0.0000
      4 C         -11.0451   -7.1509   18.8129 C.ar    1  UNL1        0.0015
      5 C         -12.3740   -6.6424   18.3381 C.ar    1  UNL1        0.0172
      6 C         -12.5822   -5.1721   18.1261 C.ar    1  UNL1        0.0015
      7 C         -12.8460   -2.0512   18.8027 C.ar    1  UNL1        0.0714
      8 C         -13.0542   -0.5809   18.5906 C.ar    1  UNL1        0.0039
      9 C         -12.0860    0.2005   17.7527 C.ar    1  UNL1       -0.0001
     10 C         -10.9098   -0.4884   17.1268 C.ar    1  UNL1       -0.0000
     11 C         -10.7016   -1.9586   17.3389 C.ar    1  UNL1       -0.0001
     12 C         -11.6697   -2.7400   18.1768 C.ar    1  UNL1        0.0039
     13 F         -14.7823   -3.6139   20.4786 F       1  UNL1       -0.1659
     14 C         -13.8142   -2.8326   19.6406 C.3     1  UNL1        0.4186
     15 F         -12.8276   -2.8434   20.7704 F       1  UNL1       -0.1659
     16 F         -14.8008   -2.8217   18.5108 F       1  UNL1       -0.1659
     17 C         -13.4947   -7.6042   18.0753 C.ar    1  UNL1        0.0772
     18 C         -14.4214   -7.5772   16.8961 C.ar    1  UNL1        0.1175
     19 N         -15.3849   -8.7181   17.0376 N.ar    1  UNL1       -0.2225
     20 C         -15.0536   -9.4502   18.3043 C.ar    1  UNL1        0.1750
     21 N         -13.8854   -8.7617   18.9456 N.ar    1  UNL1       -0.3349
     22 H         -13.4513   -9.0236   19.7895 H       1  UNL1        0.1675
@<TRIPOS>BOND
     1    13    14    1
     2    14    15    1
     3    14    16    1
     4    14     7    1
     5     7     8   ar
     6     8     9   ar
     7     9    10   ar
     8    10    11   ar
     9    11    12   ar
    10    12     1    1
    11     1     2   ar
    12     2     3   ar
    13     3     4   ar
    14     4     5   ar
    15     5    17    1
    16    17    18   ar
    17    18    19   ar
    18    19    20   ar
    19    20    21   ar
    20     5     6   ar
    21    12     7   ar
    22     6     1   ar
    23    21    17   ar
    24    21    22    1
@<TRIPOS>MOLECULE
*****
 22 24 0 0 0
SMALL
GASTEIGER

@<TRIPOS>ATOM
      1 C         -12.7137   -5.2797   17.3859 C.ar    1  UNL1        0.0000
      2 C         -11.8334   -5.8814   16.3308 C.ar    1  UNL1       -0.0000
      3 C         -11.9564   -7.3374   15.9923 C.ar    1  UNL1        0.0000
      4 C         -12.9596   -8.1919   16.7089 C.ar    1  UNL1        0.0015
      5 C         -13.8399   -7.5903   17.7640 C.ar    1  UNL1        0.0172
      6 C         -13.7169   -6.1341   18.1024 C.ar    1  UNL1        0.0015
      7 C         -11.3584   -3.3148   18.4119 C.ar    1  UNL1        0.0714
      8 C         -11.2355   -1.8587   18.7503 C.ar    1  UNL1        0.0039
      9 C         -12.3448   -0.9113   18.4012 C.ar    1  UNL1       -0.0001
     10 C         -13.5770   -1.4200   17.7137 C.ar    1  UNL1       -0.0000
     11 C         -13.7000   -2.8761   17.3753 C.ar    1  UNL1       -0.0001
     12 C         -12.5907   -3.8235   17.7243 C.ar    1  UNL1        0.0039
     13 F          -9.1398   -5.2096   19.1101 F       1  UNL1       -0.1659
     14 C         -10.2491   -4.2622   18.7610 C.3     1  UNL1        0.4186
     15 F         -11.1133   -4.8850   19.8171 F       1  UNL1       -0.1659
     16 F          -9.3849   -3.6395   17.7049 F       1  UNL1       -0.1659
     17 C         -14.8431   -8.4447   18.4805 C.ar    1  UNL1        0.0772
     18 C         -15.2527   -9.8351   18.0947 C.ar    1  UNL1        0.1175
     19 N         -16.2756  -10.3085   19.0845 N.ar    1  UNL1       -0.2225
     20 C         -16.4982   -9.2105   20.0820 C.ar    1  UNL1        0.1750
     21 N         -15.6128   -8.0586   19.7087 N.ar    1  UNL1       -0.3349
     22 H         -15.5483   -7.2000   20.1860 H       1  UNL1        0.1675
@<TRIPOS>BOND
     1    13    14    1
     2    14    15    1
     3    14    16    1
     4    14     7    1
     5     7     8   ar
     6     8     9   ar
     7     9    10   ar
     8    10    11   ar
     9    11    12   ar
    10    12     1    1
    11     1     2   ar
    12     2     3   ar
    13     3     4   ar
    14     4     5   ar
    15     5    17    1
    16    17    18   ar
    17    18    19   ar
    18    19    20   ar
    19    20    21   ar
    20     5     6   ar
    21    12     7   ar
    22     6     1   ar
    23    21    17   ar
    24    21    22    1
@<TRIPOS>MOLECULE
*****
 22 24 0 0 0
SMALL
GASTEIGER

@<TRIPOS>ATOM
      1 C           3.1729   -2.1107   20.0276 C.ar    1  UNL1        0.0000
      2 C           3.1887   -3.2739   19.0807 C.ar    1  UNL1       -0.0000
      3 C           3.9764   -4.5050   19.4181 C.ar    1  UNL1        0.0000
      4 C           4.7484   -4.5729   20.7024 C.ar    1  UNL1        0.0015
      5 C           4.7326   -3.4097   21.6493 C.ar    1  UNL1        0.0172
      6 C           3.9448   -2.1785   21.3119 C.ar    1  UNL1        0.0015
      7 C           2.8880    0.0688   18.6424 C.ar    1  UNL1        0.0714
      8 C           2.1002    1.2999   18.3050 C.ar    1  UNL1        0.0039
      9 C           0.8096    1.5826   19.0152 C.ar    1  UNL1       -0.0001
     10 C           0.3068    0.6342   20.0629 C.ar    1  UNL1       -0.0000
     11 C           1.0945   -0.5969   20.4003 C.ar    1  UNL1       -0.0001
     12 C           2.3851   -0.8795   19.6901 C.ar    1  UNL1        0.0039
     13 F           5.4692   -0.4965   17.2219 F       1  UNL1       -0.1659
     14 C           4.1786   -0.2138   17.9322 C.3     1  UNL1        0.4186
     15 F           3.4173   -0.8158   16.7885 F       1  UNL1       -0.1659
     16 F           4.9399    0.3882   19.0759 F       1  UNL1       -0.1659
     17 C           5.5045   -3.4775   22.9336 C.ar    1  UNL1        0.0772
     18 C           6.8019   -4.2000   23.1455 C.ar    1  UNL1        0.1175
     19 N           7.2138   -4.0038   24.5744 N.ar    1  UNL1       -0.2225
     20 C           6.1710   -3.1600   25.2457 C.ar    1  UNL1        0.1750
     21 N           5.1146   -2.8348   24.2316 N.ar    1  UNL1       -0.3349
     22 H           4.3071   -2.2943   24.3902 H       1  UNL1        0.1675
@<TRIPOS>BOND
     1    13    14    1
     2    14    15    1
     3    14    16    1
     4    14     7    1
     5     7     8   ar
     6     8     9   ar
     7     9    10   ar
     8    10    11   ar
     9    11    12   ar
    10    12     1    1
    11     1     2   ar
    12     2     3   ar
    13     3     4   ar
    14     4     5   ar
    15     5    17    1
    16    17    18   ar
    17    18    19   ar
    18    19    20   ar
    19    20    21   ar
    20     5     6   ar
    21    12     7   ar
    22     6     1   ar
    23    21    17   ar
    24    21    22    1
