@<TRIPOS>MOLECULE
*****
 35 38 0 0 0
SMALL
GASTEIGER

@<TRIPOS>ATOM
      1 N           7.2667   -4.9317   25.3782 N.3     1  UNL1       -0.2653
      2 C           7.5993   -6.1683   26.1591 C.3     1  UNL1        0.1036
      3 C           7.5364   -6.1485   27.6577 C.3     1  UNL1        0.1470
      4 C           7.4735   -6.1288   29.1563 C.3     1  UNL1        0.1035
      5 N           7.0780   -4.8723   29.8738 N.3     1  UNL1       -0.2673
      6 C           6.7453   -3.6356   29.0927 C.3     1  UNL1        0.1035
      7 C           6.8082   -3.6554   27.5942 C.3     1  UNL1        0.1470
      8 C           6.8711   -3.6752   26.0957 C.3     1  UNL1        0.1036
      9 O           7.1409   -4.8921   28.3752 O.3     1  UNL1       -0.3530
     10 C           7.3296   -4.9514   23.8796 C.3     1  UNL1        0.1202
     11 C           6.5811   -3.9235   23.0839 C.3     1  UNL1        0.2226
     12 O           5.6302   -4.3551   22.0070 O.3     1  UNL1       -0.4740
     13 C           2.6478   -1.4299   20.3341 C.ar    1  UNL1        0.0686
     14 C           3.1284   -1.2853   21.7477 C.ar    1  UNL1        0.0134
     15 C           4.1225   -2.2603   22.3053 C.ar    1  UNL1        0.0376
     16 C           4.6361   -3.3800   21.4494 C.ar    1  UNL1        0.1387
     17 C           4.1555   -3.5247   20.0359 C.ar    1  UNL1        0.0376
     18 C           3.1613   -2.5496   19.4782 C.ar    1  UNL1        0.0134
     19 N           0.6595    0.5202   19.2189 N.1     1  UNL1       -0.1908
     20 C           1.6537   -0.4549   19.7765 C.1     1  UNL1        0.1004
     21 C           7.0151   -4.8525   31.3723 C.3     1  UNL1        0.0913
     22 C           6.6369   -3.5911   32.0905 C.3     1  UNL1        0.1087
     23 N           5.3045   -3.4864   32.7715 N.3     1  UNL1       -0.1779
     24 H           5.3097   -4.1635   33.5344 H       1  UNL1        0.1488
     25 S           4.8620   -2.1781   33.3567 S.O2    1  UNL1        0.0609
     26 O           3.6344   -2.8401   33.9085 O.2     1  UNL1       -0.1530
     27 O           6.0897   -1.5161   32.8049 O.2     1  UNL1       -0.1530
     28 C           4.4196   -0.8697   33.9419 C.ar    1  UNL1        0.1315
     29 C           4.8034   -0.5082   35.3462 C.ar    1  UNL1        0.0206
     30 C           4.3610    0.8001   35.9314 C.ar    1  UNL1        0.0014
     31 C           3.5349    1.7470   35.1123 C.ar    1  UNL1        0.0008
     32 C           3.1511    1.3855   33.7080 C.ar    1  UNL1        0.0116
     33 C           3.5935    0.0772   33.1228 C.ar    1  UNL1        0.0870
     34 C           3.2097   -0.2843   31.7185 C.1     1  UNL1        0.1018
     35 N           2.8260   -0.6458   30.3142 N.1     1  UNL1       -0.1908
@<TRIPOS>BOND
     1    19    20    3
     2    20    13    1
     3    13    14   ar
     4    14    15   ar
     5    15    16   ar
     6    16    12    1
     7    12    11    1
     8    11    10    1
     9    10     1    1
    10     1     2    1
    11     2     3    1
    12     3     4    1
    13     4     5    1
    14     5    21    1
    15    21    22    1
    16    22    23    1
    17    23    25    1
    18    25    26    2
    19    25    27    2
    20    25    28    1
    21    28    29   ar
    22    29    30   ar
    23    30    31   ar
    24    31    32   ar
    25    32    33   ar
    26    33    34    1
    27    34    35    3
    28     5     6    1
    29     6     7    1
    30     7     8    1
    31     7     9    1
    32    16    17   ar
    33    17    18   ar
    34    18    13   ar
    35     8     1    1
    36     9     3    1
    37    33    28   ar
    38    23    24    1
@<TRIPOS>MOLECULE
*****
 35 38 0 0 0
SMALL
GASTEIGER

@<TRIPOS>ATOM
      1 N           8.3400   -8.1284   26.3997 N.3     1  UNL1       -0.2653
      2 C           9.2292   -8.0577   25.1938 C.3     1  UNL1        0.1036
      3 C           9.0696   -6.9377   24.2089 C.3     1  UNL1        0.1470
      4 C           8.9101   -5.8176   23.2240 C.3     1  UNL1        0.1035
      5 N           7.8613   -4.7682   23.4450 N.3     1  UNL1       -0.2673
      6 C           6.9720   -4.8390   24.6510 C.3     1  UNL1        0.1035
      7 C           7.1316   -5.9590   25.6359 C.3     1  UNL1        0.1470
      8 C           7.2912   -7.0791   26.6207 C.3     1  UNL1        0.1036
      9 O           8.0208   -5.8883   24.4300 O.3     1  UNL1       -0.3530
     10 C           8.4995   -9.2485   27.3846 C.3     1  UNL1        0.1202
     11 C           7.2901   -9.9653   27.9077 C.3     1  UNL1        0.2226
     12 O           7.2404  -11.4644   27.8894 O.3     1  UNL1       -0.4740
     13 C           3.2746  -13.5861   28.0336 C.ar    1  UNL1        0.0686
     14 C           3.6822  -12.6807   29.1580 C.ar    1  UNL1        0.0134
     15 C           5.0041  -11.9735   29.1099 C.ar    1  UNL1        0.0376
     16 C           5.9185  -12.1716   27.9375 C.ar    1  UNL1        0.1387
     17 C           5.5110  -13.0769   26.8131 C.ar    1  UNL1        0.0376
     18 C           4.1890  -13.7842   26.8611 C.ar    1  UNL1        0.0134
     19 N           0.6308  -15.0006   28.1297 N.1     1  UNL1       -0.1908
     20 C           1.9527  -14.2933   28.0816 C.1     1  UNL1        0.1004
     21 C           7.7017   -3.6482   22.4602 C.3     1  UNL1        0.0913
     22 C           6.4057   -2.8969   22.3822 C.3     1  UNL1        0.1087
     23 N           5.2810   -3.4268   21.5430 N.3     1  UNL1       -0.1779
     24 H           4.6539   -3.9271   22.1730 H       1  UNL1        0.1488
     25 S           4.4310   -2.4825   20.7457 S.O2    1  UNL1        0.0609
     26 O           3.8237   -3.6445   20.0170 O.2     1  UNL1       -0.1530
     27 O           5.0382   -1.3205   21.4743 O.2     1  UNL1       -0.1530
     28 C           3.5809   -1.5382   19.9483 C.ar    1  UNL1        0.1315
     29 C           2.2735   -1.0554   20.5029 C.ar    1  UNL1        0.0206
     30 C           1.4234   -0.1112   19.7056 C.ar    1  UNL1        0.0014
     31 C           1.8808    0.3503   18.3537 C.ar    1  UNL1        0.0008
     32 C           3.1882   -0.1324   17.7991 C.ar    1  UNL1        0.0116
     33 C           4.0382   -1.0767   18.5964 C.ar    1  UNL1        0.0870
     34 C           5.3457   -1.5594   18.0417 C.1     1  UNL1        0.1018
     35 N           6.6531   -2.0422   17.4871 N.1     1  UNL1       -0.1908
@<TRIPOS>BOND
     1    19    20    3
     2    20    13    1
     3    13    14   ar
     4    14    15   ar
     5    15    16   ar
     6    16    12    1
     7    12    11    1
     8    11    10    1
     9    10     1    1
    10     1     2    1
    11     2     3    1
    12     3     4    1
    13     4     5    1
    14     5    21    1
    15    21    22    1
    16    22    23    1
    17    23    25    1
    18    25    26    2
    19    25    27    2
    20    25    28    1
    21    28    29   ar
    22    29    30   ar
    23    30    31   ar
    24    31    32   ar
    25    32    33   ar
    26    33    34    1
    27    34    35    3
    28     5     6    1
    29     6     7    1
    30     7     8    1
    31     7     9    1
    32    16    17   ar
    33    17    18   ar
    34    18    13   ar
    35     8     1    1
    36     9     3    1
    37    33    28   ar
    38    23    24    1
@<TRIPOS>MOLECULE
*****
 35 38 0 0 0
SMALL
GASTEIGER

@<TRIPOS>ATOM
      1 N          -1.5310  -17.3240   21.7579 N.3     1  UNL1       -0.2653
      2 C          -2.2732  -18.3465   22.5662 C.3     1  UNL1        0.1036
      3 C          -3.5180  -17.9573   23.3071 C.3     1  UNL1        0.1470
      4 C          -4.7629  -17.5681   24.0480 C.3     1  UNL1        0.1035
      5 N          -5.2655  -16.1564   23.9804 N.3     1  UNL1       -0.2673
      6 C          -4.5232  -15.1339   23.1720 C.3     1  UNL1        0.1035
      7 C          -3.2783  -15.5231   22.4312 C.3     1  UNL1        0.1470
      8 C          -2.0335  -15.9123   21.6903 C.3     1  UNL1        0.1036
      9 O          -4.0206  -16.5456   23.2395 O.3     1  UNL1       -0.3530
     10 C          -0.2860  -17.7132   21.0170 C.3     1  UNL1        0.1202
     11 C          -0.2198  -17.5551   19.5268 C.3     1  UNL1        0.2226
     12 O          -1.0796  -18.4093   18.6430 O.3     1  UNL1       -0.4740
     13 C          -5.2132  -19.5826   19.9796 C.ar    1  UNL1        0.0686
     14 C          -4.0843  -20.5650   20.0833 C.ar    1  UNL1        0.0134
     15 C          -2.7065  -20.1738   19.6378 C.ar    1  UNL1        0.0376
     16 C          -2.4574  -18.8004   19.0885 C.ar    1  UNL1        0.1387
     17 C          -3.5862  -17.8181   18.9848 C.ar    1  UNL1        0.0376
     18 C          -4.9642  -18.2092   19.4304 C.ar    1  UNL1        0.0134
     19 N          -7.9689  -20.3648   20.8707 N.1     1  UNL1       -0.1908
     20 C          -6.5911  -19.9737   20.4251 C.1     1  UNL1        0.1004
     21 C          -6.5103  -15.7672   24.7213 C.3     1  UNL1        0.0913
     22 C          -7.4591  -14.7714   24.1225 C.3     1  UNL1        0.1087
     23 N          -8.1813  -15.0957   22.8485 N.3     1  UNL1       -0.1779
     24 H          -7.4846  -15.0825   22.1036 H       1  UNL1        0.1488
     25 S          -8.9293  -16.3894   22.7189 S.O2    1  UNL1        0.0609
     26 O          -7.9442  -16.8558   21.6884 O.2     1  UNL1       -0.1530
     27 O          -9.9145  -15.9229   23.7493 O.2     1  UNL1       -0.1530
     28 C          -9.6774  -17.6831   22.5893 C.ar    1  UNL1        0.1315
     29 C          -9.4643  -18.7766   23.5937 C.ar    1  UNL1        0.0206
     30 C         -10.2123  -20.0702   23.4641 C.ar    1  UNL1        0.0014
     31 C         -11.1736  -20.2704   22.3302 C.ar    1  UNL1        0.0008
     32 C         -11.3868  -19.1769   21.3258 C.ar    1  UNL1        0.0116
     33 C         -10.6387  -17.8832   21.4553 C.ar    1  UNL1        0.0870
     34 C         -10.8519  -16.7897   20.4509 C.1     1  UNL1        0.1018
     35 N         -11.0650  -15.6962   19.4465 N.1     1  UNL1       -0.1908
@<TRIPOS>BOND
     1    19    20    3
     2    20    13    1
     3    13    14   ar
     4    14    15   ar
     5    15    16   ar
     6    16    12    1
     7    12    11    1
     8    11    10    1
     9    10     1    1
    10     1     2    1
    11     2     3    1
    12     3     4    1
    13     4     5    1
    14     5    21    1
    15    21    22    1
    16    22    23    1
    17    23    25    1
    18    25    26    2
    19    25    27    2
    20    25    28    1
    21    28    29   ar
    22    29    30   ar
    23    30    31   ar
    24    31    32   ar
    25    32    33   ar
    26    33    34    1
    27    34    35    3
    28     5     6    1
    29     6     7    1
    30     7     8    1
    31     7     9    1
    32    16    17   ar
    33    17    18   ar
    34    18    13   ar
    35     8     1    1
    36     9     3    1
    37    33    28   ar
    38    23    24    1
@<TRIPOS>MOLECULE
*****
 35 38 0 0 0
SMALL
GASTEIGER

@<TRIPOS>ATOM
      1 N          -1.7912  -17.5886   21.4299 N.3     1  UNL1       -0.2653
      2 C          -2.3916  -18.5140   22.4463 C.3     1  UNL1        0.1036
      3 C          -3.4324  -18.0069   23.4000 C.3     1  UNL1        0.1470
      4 C          -4.4732  -17.4998   24.3538 C.3     1  UNL1        0.1035
      5 N          -4.9135  -16.0672   24.2911 N.3     1  UNL1       -0.2673
      6 C          -4.3131  -15.1418   23.2747 C.3     1  UNL1        0.1035
      7 C          -3.2723  -15.6490   22.3210 C.3     1  UNL1        0.1470
      8 C          -2.2316  -16.1561   21.3672 C.3     1  UNL1        0.1036
      9 O          -3.8727  -16.5744   23.3374 O.3     1  UNL1       -0.3530
     10 C          -0.7504  -18.0958   20.4761 C.3     1  UNL1        0.1202
     11 C          -1.0418  -18.1467   19.0056 C.3     1  UNL1        0.2226
     12 O          -2.1093  -19.0623   18.4838 O.3     1  UNL1       -0.4740
     13 C          -5.8545  -19.7490   20.8822 C.ar    1  UNL1        0.0686
     14 C          -4.8231  -20.8329   20.7751 C.ar    1  UNL1        0.0134
     15 C          -3.5747  -20.6040   19.9757 C.ar    1  UNL1        0.0376
     16 C          -3.3577  -19.2912   19.2833 C.ar    1  UNL1        0.1387
     17 C          -4.3890  -18.2073   19.3903 C.ar    1  UNL1        0.0376
     18 C          -5.6374  -18.4362   20.1898 C.ar    1  UNL1        0.0134
     19 N          -8.3512  -20.2068   22.4810 N.1     1  UNL1       -0.1908
     20 C          -7.1029  -19.9779   21.6816 C.1     1  UNL1        0.1004
     21 C          -5.9543  -15.5601   25.2449 C.3     1  UNL1        0.0913
     22 C          -7.3503  -15.2989   24.7622 C.3     1  UNL1        0.1087
     23 N          -7.6798  -15.4439   23.3060 N.3     1  UNL1       -0.1779
     24 H          -6.9597  -16.0408   22.8992 H       1  UNL1        0.1488
     25 S          -9.0024  -16.0161   22.8898 S.O2    1  UNL1        0.0609
     26 O          -8.3797  -16.5385   21.6292 O.2     1  UNL1       -0.1530
     27 O          -9.6251  -15.4938   24.1505 O.2     1  UNL1       -0.1530
     28 C         -10.3251  -16.5883   22.4736 C.ar    1  UNL1        0.1315
     29 C         -11.0215  -16.0584   21.2553 C.ar    1  UNL1        0.0206
     30 C         -12.3442  -16.6305   20.8391 C.ar    1  UNL1        0.0014
     31 C         -12.9704  -17.7325   21.6412 C.ar    1  UNL1        0.0008
     32 C         -12.2740  -18.2624   22.8595 C.ar    1  UNL1        0.0116
     33 C         -10.9514  -17.6903   23.2757 C.ar    1  UNL1        0.0870
     34 C         -10.2550  -18.2201   24.4940 C.1     1  UNL1        0.1018
     35 N          -9.5586  -18.7500   25.7124 N.1     1  UNL1       -0.1908
@<TRIPOS>BOND
     1    19    20    3
     2    20    13    1
     3    13    14   ar
     4    14    15   ar
     5    15    16   ar
     6    16    12    1
     7    12    11    1
     8    11    10    1
     9    10     1    1
    10     1     2    1
    11     2     3    1
    12     3     4    1
    13     4     5    1
    14     5    21    1
    15    21    22    1
    16    22    23    1
    17    23    25    1
    18    25    26    2
    19    25    27    2
    20    25    28    1
    21    28    29   ar
    22    29    30   ar
    23    30    31   ar
    24    31    32   ar
    25    32    33   ar
    26    33    34    1
    27    34    35    3
    28     5     6    1
    29     6     7    1
    30     7     8    1
    31     7     9    1
    32    16    17   ar
    33    17    18   ar
    34    18    13   ar
    35     8     1    1
    36     9     3    1
    37    33    28   ar
    38    23    24    1
@<TRIPOS>MOLECULE
*****
 35 38 0 0 0
SMALL
GASTEIGER

@<TRIPOS>ATOM
      1 N           6.9826   -5.1605   28.4709 N.3     1  UNL1       -0.2653
      2 C           7.4995   -6.2944   27.6361 C.3     1  UNL1        0.1036
      3 C           7.5943   -6.1464   26.1464 C.3     1  UNL1        0.1470
      4 C           7.6892   -5.9985   24.6567 C.3     1  UNL1        0.1035
      5 N           7.2672   -4.7166   24.0020 N.3     1  UNL1       -0.2673
      6 C           6.7502   -3.5827   24.8369 C.3     1  UNL1        0.1035
      7 C           6.6554   -3.7307   26.3266 C.3     1  UNL1        0.1470
      8 C           6.5605   -3.8787   27.8162 C.3     1  UNL1        0.1036
      9 O           7.1723   -4.8646   25.4917 O.3     1  UNL1       -0.3530
     10 C           6.8877   -5.3085   29.9607 C.3     1  UNL1        0.1202
     11 C           8.0531   -4.9334   30.8273 C.3     1  UNL1        0.2226
     12 O           7.9295   -3.7984   31.8004 O.3     1  UNL1       -0.4740
     13 C           4.3724   -1.0488   31.6103 C.ar    1  UNL1        0.0686
     14 C           5.5319   -0.8406   30.6815 C.ar    1  UNL1        0.0134
     15 C           6.7175   -1.7571   30.7449 C.ar    1  UNL1        0.0376
     16 C           6.7439   -2.8819   31.7370 C.ar    1  UNL1        0.1387
     17 C           5.5845   -3.0901   32.6657 C.ar    1  UNL1        0.0376
     18 C           4.3988   -2.1736   32.6023 C.ar    1  UNL1        0.0134
     19 N           2.0011    0.7843   31.4835 N.1     1  UNL1       -0.1908
     20 C           3.1868   -0.1322   31.5469 C.1     1  UNL1        0.1004
     21 C           7.3620   -4.5686   22.5123 C.3     1  UNL1        0.0913
     22 C           6.5542   -3.5177   21.8100 C.3     1  UNL1        0.1087
     23 N           5.1666   -3.8315   21.3346 N.3     1  UNL1       -0.1779
     24 H           4.6241   -4.0891   22.1591 H       1  UNL1        0.1488
     25 S           4.3722   -2.7921   20.6009 S.O2    1  UNL1        0.0609
     26 O           5.0001   -1.7195   21.4407 O.2     1  UNL1       -0.1530
     27 O           3.7444   -3.8647   19.7611 O.2     1  UNL1       -0.1530
     28 C           3.5778   -1.7526   19.8671 C.ar    1  UNL1        0.1315
     29 C           2.2774   -1.2644   20.4334 C.ar    1  UNL1        0.0206
     30 C           1.4830   -0.2249   19.6996 C.ar    1  UNL1        0.0014
     31 C           1.9889    0.3263   18.3996 C.ar    1  UNL1        0.0008
     32 C           3.2893   -0.1620   17.8333 C.ar    1  UNL1        0.0116
     33 C           4.0837   -1.2014   18.5670 C.ar    1  UNL1        0.0870
     34 C           5.3841   -1.6896   18.0007 C.1     1  UNL1        0.1018
     35 N           6.6844   -2.1779   17.4344 N.1     1  UNL1       -0.1908
@<TRIPOS>BOND
     1    19    20    3
     2    20    13    1
     3    13    14   ar
     4    14    15   ar
     5    15    16   ar
     6    16    12    1
     7    12    11    1
     8    11    10    1
     9    10     1    1
    10     1     2    1
    11     2     3    1
    12     3     4    1
    13     4     5    1
    14     5    21    1
    15    21    22    1
    16    22    23    1
    17    23    25    1
    18    25    26    2
    19    25    27    2
    20    25    28    1
    21    28    29   ar
    22    29    30   ar
    23    30    31   ar
    24    31    32   ar
    25    32    33   ar
    26    33    34    1
    27    34    35    3
    28     5     6    1
    29     6     7    1
    30     7     8    1
    31     7     9    1
    32    16    17   ar
    33    17    18   ar
    34    18    13   ar
    35     8     1    1
    36     9     3    1
    37    33    28   ar
    38    23    24    1
@<TRIPOS>MOLECULE
*****
 35 38 0 0 0
SMALL
GASTEIGER

@<TRIPOS>ATOM
      1 N           8.1908   -6.9551   25.9969 N.3     1  UNL1       -0.2653
      2 C           9.2237   -7.1989   27.0568 C.3     1  UNL1        0.1036
      3 C           9.0044   -6.6870   28.4496 C.3     1  UNL1        0.1470
      4 C           8.7850   -6.1751   29.8424 C.3     1  UNL1        0.1035
      5 N           7.5327   -5.4195   30.1752 N.3     1  UNL1       -0.2673
      6 C           6.4998   -5.1757   29.1152 C.3     1  UNL1        0.1035
      7 C           6.7191   -5.6876   27.7224 C.3     1  UNL1        0.1470
      8 C           6.9385   -6.1995   26.3297 C.3     1  UNL1        0.1036
      9 O           7.7521   -5.9314   28.7824 O.3     1  UNL1       -0.3530
     10 C           8.4101   -7.4670   24.6040 C.3     1  UNL1        0.1202
     11 C           9.1632   -6.6347   23.6090 C.3     1  UNL1        0.2226
     12 O           8.9454   -5.1515   23.5541 O.3     1  UNL1       -0.4740
     13 C           5.4706   -3.4718   21.2402 C.ar    1  UNL1        0.0686
     14 C           6.7269   -3.8696   20.5235 C.ar    1  UNL1        0.0134
     15 C           7.8851   -4.4295   21.2948 C.ar    1  UNL1        0.0376
     16 C           7.7872   -4.5916   22.7828 C.ar    1  UNL1        0.1387
     17 C           6.5309   -4.1939   23.4995 C.ar    1  UNL1        0.0376
     18 C           5.3726   -3.6339   22.7281 C.ar    1  UNL1        0.0134
     19 N           3.1542   -2.3520   19.6975 N.1     1  UNL1       -0.1908
     20 C           4.3124   -2.9119   20.4688 C.1     1  UNL1        0.1004
     21 C           7.3134   -4.9076   31.5680 C.3     1  UNL1        0.0913
     22 C           6.6157   -3.5974   31.7844 C.3     1  UNL1        0.1087
     23 N           5.3608   -3.5423   32.6042 N.3     1  UNL1       -0.1779
     24 H           5.4704   -4.2224   33.3564 H       1  UNL1        0.1488
     25 S           4.9391   -2.2530   33.2441 S.O2    1  UNL1        0.0609
     26 O           6.1642   -1.5813   32.6982 O.2     1  UNL1       -0.1530
     27 O           3.7140   -2.9246   33.7901 O.2     1  UNL1       -0.1530
     28 C           4.5173   -0.9635   33.8842 C.ar    1  UNL1        0.1315
     29 C           4.9602   -0.6391   35.2801 C.ar    1  UNL1        0.0206
     30 C           4.5385    0.6503   35.9201 C.ar    1  UNL1        0.0014
     31 C           3.6739    1.6151   35.1643 C.ar    1  UNL1        0.0008
     32 C           3.2310    1.2907   33.7684 C.ar    1  UNL1        0.0116
     33 C           3.6527    0.0013   33.1283 C.ar    1  UNL1        0.0870
     34 C           3.2098   -0.3231   31.7324 C.1     1  UNL1        0.1018
     35 N           2.7669   -0.6476   30.3365 N.1     1  UNL1       -0.1908
@<TRIPOS>BOND
     1    19    20    3
     2    20    13    1
     3    13    14   ar
     4    14    15   ar
     5    15    16   ar
     6    16    12    1
     7    12    11    1
     8    11    10    1
     9    10     1    1
    10     1     2    1
    11     2     3    1
    12     3     4    1
    13     4     5    1
    14     5    21    1
    15    21    22    1
    16    22    23    1
    17    23    25    1
    18    25    26    2
    19    25    27    2
    20    25    28    1
    21    28    29   ar
    22    29    30   ar
    23    30    31   ar
    24    31    32   ar
    25    32    33   ar
    26    33    34    1
    27    34    35    3
    28     5     6    1
    29     6     7    1
    30     7     8    1
    31     7     9    1
    32    16    17   ar
    33    17    18   ar
    34    18    13   ar
    35     8     1    1
    36     9     3    1
    37    33    28   ar
    38    23    24    1
@<TRIPOS>MOLECULE
*****
 35 38 0 0 0
SMALL
GASTEIGER

@<TRIPOS>ATOM
      1 N         -10.5951  -15.8252   21.6811 N.3     1  UNL1       -0.2653
      2 C          -9.2950  -15.2230   21.2372 C.3     1  UNL1        0.1036
      3 C          -8.1399  -15.1458   22.1910 C.3     1  UNL1        0.1470
      4 C          -6.9847  -15.0686   23.1449 C.3     1  UNL1        0.1035
      5 N          -7.1297  -15.5935   24.5425 N.3     1  UNL1       -0.2673
      6 C          -8.4300  -16.1957   24.9863 C.3     1  UNL1        0.1035
      7 C          -9.5850  -16.2729   24.0326 C.3     1  UNL1        0.1470
      8 C         -10.7401  -16.3501   23.0788 C.3     1  UNL1        0.1036
      9 O          -8.2849  -15.6707   23.5887 O.3     1  UNL1       -0.3530
     10 C         -11.7503  -15.9024   20.7273 C.3     1  UNL1        0.1202
     11 C         -11.6116  -16.6621   19.4414 C.3     1  UNL1        0.2226
     12 O         -10.6838  -17.8381   19.3613 O.3     1  UNL1       -0.4740
     13 C          -9.8709  -20.3167   23.0281 C.ar    1  UNL1        0.0686
     14 C         -11.2688  -20.1998   22.4965 C.ar    1  UNL1        0.0134
     15 C         -11.5397  -19.3736   21.2743 C.ar    1  UNL1        0.0376
     16 C         -10.4129  -18.6643   20.5835 C.ar    1  UNL1        0.1387
     17 C          -9.0151  -18.7812   21.1150 C.ar    1  UNL1        0.0376
     18 C          -8.7441  -19.6074   22.3373 C.ar    1  UNL1        0.0134
     19 N          -9.3291  -21.9691   25.4726 N.1     1  UNL1       -0.1908
     20 C          -9.6000  -21.1429   24.2503 C.1     1  UNL1        0.1004
     21 C          -5.9747  -15.5163   25.4963 C.3     1  UNL1        0.0913
     22 C          -4.6335  -16.0553   25.0952 C.3     1  UNL1        0.1087
     23 N          -4.5375  -17.3668   24.3736 N.3     1  UNL1       -0.1779
     24 H          -5.4899  -17.6396   24.1308 H       1  UNL1        0.1488
     25 S          -3.7229  -17.4744   23.1187 S.O2    1  UNL1        0.0609
     26 O          -3.4884  -18.9298   23.3958 O.2     1  UNL1       -0.1530
     27 O          -3.9574  -16.0190   22.8417 O.2     1  UNL1       -0.1530
     28 C          -2.9083  -17.5820   21.8638 C.ar    1  UNL1        0.1315
     29 C          -1.7012  -16.7115   21.6763 C.ar    1  UNL1        0.0206
     30 C          -0.8866  -16.8190   20.4214 C.ar    1  UNL1        0.0014
     31 C          -1.2790  -17.7971   19.3540 C.ar    1  UNL1        0.0008
     32 C          -2.4861  -18.6676   19.5415 C.ar    1  UNL1        0.0116
     33 C          -3.3008  -18.5600   20.7964 C.ar    1  UNL1        0.0870
     34 C          -4.5079  -19.4305   20.9839 C.1     1  UNL1        0.1018
     35 N          -5.7150  -20.3010   21.1714 N.1     1  UNL1       -0.1908
@<TRIPOS>BOND
     1    19    20    3
     2    20    13    1
     3    13    14   ar
     4    14    15   ar
     5    15    16   ar
     6    16    12    1
     7    12    11    1
     8    11    10    1
     9    10     1    1
    10     1     2    1
    11     2     3    1
    12     3     4    1
    13     4     5    1
    14     5    21    1
    15    21    22    1
    16    22    23    1
    17    23    25    1
    18    25    26    2
    19    25    27    2
    20    25    28    1
    21    28    29   ar
    22    29    30   ar
    23    30    31   ar
    24    31    32   ar
    25    32    33   ar
    26    33    34    1
    27    34    35    3
    28     5     6    1
    29     6     7    1
    30     7     8    1
    31     7     9    1
    32    16    17   ar
    33    17    18   ar
    34    18    13   ar
    35     8     1    1
    36     9     3    1
    37    33    28   ar
    38    23    24    1
@<TRIPOS>MOLECULE
*****
 35 38 0 0 0
SMALL
GASTEIGER

@<TRIPOS>ATOM
      1 N           0.5255    1.7932   19.7730 N.3     1  UNL1       -0.2653
      2 C           1.4213    1.9519   18.5805 C.3     1  UNL1        0.1036
      3 C           2.4095    0.8771   18.2365 C.3     1  UNL1        0.1470
      4 C           3.3978   -0.1977   17.8925 C.3     1  UNL1        0.1035
      5 N           3.4902   -1.4311   18.7411 N.3     1  UNL1       -0.2673
      6 C           2.5943   -1.5897   19.9338 C.3     1  UNL1        0.1035
      7 C           1.6061   -0.5150   20.2777 C.3     1  UNL1        0.1470
      8 C           0.6178    0.5598   20.6217 C.3     1  UNL1        0.1036
      9 O           2.5019   -0.3563   19.0851 O.3     1  UNL1       -0.3530
     10 C          -0.4628    2.8679   20.1170 C.3     1  UNL1        0.1202
     11 C          -1.1422    2.8619   21.4543 C.3     1  UNL1        0.2226
     12 O          -0.5032    3.5512   22.6234 O.3     1  UNL1       -0.4740
     13 C          -0.6777    1.6772   26.7108 C.ar    1  UNL1        0.0686
     14 C           0.2434    1.1172   25.6676 C.ar    1  UNL1        0.0134
     15 C           0.3015    1.7419   24.3052 C.ar    1  UNL1        0.0376
     16 C          -0.5614    2.9266   23.9858 C.ar    1  UNL1        0.1387
     17 C          -1.4825    3.4865   25.0289 C.ar    1  UNL1        0.0376
     18 C          -1.5406    2.8618   26.3914 C.ar    1  UNL1        0.0134
     19 N          -0.7940    0.4278   29.4357 N.1     1  UNL1       -0.1908
     20 C          -0.7359    1.0525   28.0733 C.1     1  UNL1        0.1004
     21 C           4.4784   -2.5058   18.3972 C.3     1  UNL1        0.0913
     22 C           4.3964   -3.8436   19.0708 C.3     1  UNL1        0.1087
     23 N           5.4353   -4.2417   20.0768 N.3     1  UNL1       -0.1779
     24 H           6.3408   -3.9903   19.6801 H       1  UNL1        0.1488
     25 S           5.3957   -3.6691   21.4626 S.O2    1  UNL1        0.0609
     26 O           4.2283   -4.5510   21.7935 O.2     1  UNL1       -0.1530
     27 O           6.5631   -2.7873   21.1317 O.2     1  UNL1       -0.1530
     28 C           5.3561   -3.0965   22.8485 C.ar    1  UNL1        0.1315
     29 C           4.4255   -1.9636   23.1655 C.ar    1  UNL1        0.0206
     30 C           4.3858   -1.3910   24.5513 C.ar    1  UNL1        0.0014
     31 C           5.2767   -1.9513   25.6201 C.ar    1  UNL1        0.0008
     32 C           6.2073   -3.0842   25.3030 C.ar    1  UNL1        0.0116
     33 C           6.2469   -3.6568   23.9172 C.ar    1  UNL1        0.0870
     34 C           7.1775   -4.7898   23.6002 C.1     1  UNL1        0.1018
     35 N           8.1081   -5.9227   23.2832 N.1     1  UNL1       -0.1908
@<TRIPOS>BOND
     1    19    20    3
     2    20    13    1
     3    13    14   ar
     4    14    15   ar
     5    15    16   ar
     6    16    12    1
     7    12    11    1
     8    11    10    1
     9    10     1    1
    10     1     2    1
    11     2     3    1
    12     3     4    1
    13     4     5    1
    14     5    21    1
    15    21    22    1
    16    22    23    1
    17    23    25    1
    18    25    26    2
    19    25    27    2
    20    25    28    1
    21    28    29   ar
    22    29    30   ar
    23    30    31   ar
    24    31    32   ar
    25    32    33   ar
    26    33    34    1
    27    34    35    3
    28     5     6    1
    29     6     7    1
    30     7     8    1
    31     7     9    1
    32    16    17   ar
    33    17    18   ar
    34    18    13   ar
    35     8     1    1
    36     9     3    1
    37    33    28   ar
    38    23    24    1
@<TRIPOS>MOLECULE
*****
 35 38 0 0 0
SMALL
GASTEIGER

@<TRIPOS>ATOM
      1 N           7.6046   -4.4583   29.3812 N.3     1  UNL1       -0.2653
      2 C           7.2840   -5.7156   28.6287 C.3     1  UNL1        0.1036
      3 C           7.0857   -5.6702   27.1426 C.3     1  UNL1        0.1470
      4 C           6.8874   -5.6249   25.6564 C.3     1  UNL1        0.1035
      5 N           7.0097   -4.3222   24.9228 N.3     1  UNL1       -0.2673
      6 C           7.3303   -3.0649   25.6754 C.3     1  UNL1        0.1035
      7 C           7.5286   -3.1102   27.1615 C.3     1  UNL1        0.1470
      8 C           7.7269   -3.1556   28.6477 C.3     1  UNL1        0.1036
      9 O           7.2080   -4.3675   26.4090 O.3     1  UNL1       -0.3530
     10 C           7.8029   -4.5036   30.8674 C.3     1  UNL1        0.1202
     11 C           6.8446   -3.7897   31.7740 C.3     1  UNL1        0.2226
     12 O           6.9436   -2.3031   31.9490 O.3     1  UNL1       -0.4740
     13 C           5.0946   -0.3330   35.5475 C.ar    1  UNL1        0.0686
     14 C           6.5210   -0.0441   35.1843 C.ar    1  UNL1        0.0134
     15 C           7.1374   -0.7008   33.9848 C.ar    1  UNL1        0.0376
     16 C           6.3273   -1.6464   33.1484 C.ar    1  UNL1        0.1387
     17 C           4.9009   -1.9354   33.5116 C.ar    1  UNL1        0.0376
     18 C           4.2845   -1.2786   34.7111 C.ar    1  UNL1        0.0134
     19 N           3.8619    0.9804   37.9465 N.1     1  UNL1       -0.1908
     20 C           4.4783    0.3237   36.7470 C.1     1  UNL1        0.1004
     21 C           6.8114   -4.2769   23.4367 C.3     1  UNL1        0.0913
     22 C           5.5768   -3.6465   22.8636 C.3     1  UNL1        0.1087
     23 N           5.2241   -3.8632   21.4219 N.3     1  UNL1       -0.1779
     24 H           4.6812   -4.7256   21.3779 H       1  UNL1        0.1488
     25 S           4.4437   -2.8217   20.6760 S.O2    1  UNL1        0.0609
     26 O           5.1107   -1.7458   21.4806 O.2     1  UNL1       -0.1530
     27 O           3.7768   -3.8977   19.8715 O.2     1  UNL1       -0.1530
     28 C           3.6633   -1.7803   19.9301 C.ar    1  UNL1        0.1315
     29 C           2.3552   -1.2894   20.4759 C.ar    1  UNL1        0.0206
     30 C           1.5748   -0.2480   19.7300 C.ar    1  UNL1        0.0014
     31 C           2.1024    0.3025   18.4384 C.ar    1  UNL1        0.0008
     32 C           3.4105   -0.1883   17.8926 C.ar    1  UNL1        0.0116
     33 C           4.1910   -1.2297   18.6384 C.ar    1  UNL1        0.0870
     34 C           5.4991   -1.7206   18.0926 C.1     1  UNL1        0.1018
     35 N           6.8072   -2.2115   17.5468 N.1     1  UNL1       -0.1908
@<TRIPOS>BOND
     1    19    20    3
     2    20    13    1
     3    13    14   ar
     4    14    15   ar
     5    15    16   ar
     6    16    12    1
     7    12    11    1
     8    11    10    1
     9    10     1    1
    10     1     2    1
    11     2     3    1
    12     3     4    1
    13     4     5    1
    14     5    21    1
    15    21    22    1
    16    22    23    1
    17    23    25    1
    18    25    26    2
    19    25    27    2
    20    25    28    1
    21    28    29   ar
    22    29    30   ar
    23    30    31   ar
    24    31    32   ar
    25    32    33   ar
    26    33    34    1
    27    34    35    3
    28     5     6    1
    29     6     7    1
    30     7     8    1
    31     7     9    1
    32    16    17   ar
    33    17    18   ar
    34    18    13   ar
    35     8     1    1
    36     9     3    1
    37    33    28   ar
    38    23    24    1
