@<TRIPOS>MOLECULE
*****
 45 48 0 0 0
SMALL
GASTEIGER

@<TRIPOS>ATOM
      1 N           2.8815    1.2238   29.5064 N.am    1  UNL1       -0.2724
      2 C           3.6466    0.4484   30.5376 C.2     1  UNL1        0.2491
      3 O           5.1170    0.2117   30.3597 O.2     1  UNL1       -0.2727
      4 C           1.4110    1.4605   29.6843 C.3     1  UNL1        0.1111
      5 C           0.6483    2.2462   28.6592 C.3     1  UNL1        0.0939
      6 N          -0.5327    1.6310   27.9689 N.3     1  UNL1       -0.2712
      7 C           0.0333    1.1920   25.4715 C.3     1  UNL1        0.0188
      8 C          -0.7770    1.9035   26.5142 C.3     1  UNL1        0.0722
      9 C          -1.4695    0.7432   28.7333 C.3     1  UNL1        0.0722
     10 C          -1.3444   -0.7478   28.6268 C.3     1  UNL1        0.0188
     11 C           3.5869    1.7625   28.2972 C.3     1  UNL1        0.1202
     12 C           3.6948    0.9257   27.0569 C.ar    1  UNL1       -0.0023
     13 C           3.7707    1.5848   25.7117 C.ar    1  UNL1       -0.0026
     14 C           3.8786    0.7481   24.4715 C.ar    1  UNL1       -0.0003
     15 C           3.9105   -0.7479   24.5765 C.ar    1  UNL1       -0.0000
     16 C           3.8346   -1.4071   25.9217 C.ar    1  UNL1       -0.0003
     17 C           3.7267   -0.5703   27.1619 C.ar    1  UNL1       -0.0026
     18 C           4.0183   -1.5847   23.3362 C.ar    1  UNL1       -0.0000
     19 C           3.3733   -1.1246   22.0626 C.ar    1  UNL1       -0.0001
     20 C           3.4812   -1.9614   20.8223 C.ar    1  UNL1        0.0039
     21 C           4.2341   -3.2583   20.8558 C.ar    1  UNL1        0.0714
     22 C           4.8791   -3.7184   22.1295 C.ar    1  UNL1        0.0039
     23 C           4.7712   -2.8816   23.3697 C.ar    1  UNL1       -0.0001
     24 C           4.3419   -4.0951   19.6156 C.3     1  UNL1        0.4186
     25 F           4.4498   -4.9319   18.3754 F       1  UNL1       -0.1659
     26 F           5.7702   -4.4075   19.9506 F       1  UNL1       -0.1659
     27 F           2.9136   -3.7827   19.2806 F       1  UNL1       -0.1659
     28 C           2.9410   -0.0903   31.7468 C.3     1  UNL1        0.1931
     29 N           3.5286    0.1152   33.1116 N.ar    1  UNL1       -0.3027
     30 C           3.2153    1.3631   33.8829 C.ar    1  UNL1        0.0445
     31 C           2.3144    2.4053   33.2894 C.3     1  UNL1        0.0502
     32 C           3.8029    1.5686   35.2476 C.ar    1  UNL1        0.0753
     33 C           4.7038    0.5263   35.8410 C.ar    1  UNL1        0.2821
     34 O           5.2914    0.7319   37.2058 O.2     1  UNL1       -0.2651
     35 N           5.0171   -0.7214   35.0697 N.ar    1  UNL1       -0.1844
     36 C           4.4295   -0.9269   33.7050 C.ar    1  UNL1        0.1748
     37 S           4.7428   -2.1747   32.9337 S.3     1  UNL1       -0.0724
     38 C           6.1606   -2.4870   32.5561 C.3     1  UNL1        0.0913
     39 C           6.4454   -3.4589   31.4497 C.ar    1  UNL1       -0.0108
     40 C           6.8294   -4.8722   31.7734 C.ar    1  UNL1       -0.0011
     41 C           7.1142   -5.8442   30.6669 C.ar    1  UNL1        0.0293
     42 C           7.0150   -5.4028   29.2368 C.ar    1  UNL1        0.1401
     43 F           7.2998   -6.3747   28.1304 F       1  UNL1       -0.2042
     44 C           6.6309   -3.9893   28.9132 C.ar    1  UNL1        0.0293
     45 C           6.3461   -3.0174   30.0196 C.ar    1  UNL1       -0.0011
@<TRIPOS>BOND
     1     7     8    1
     2     8     6    1
     3     6     9    1
     4     9    10    1
     5     6     5    1
     6     5     4    1
     7     4     1    1
     8     1    11    1
     9    11    12    1
    10    12    13   ar
    11    13    14   ar
    12    14    15   ar
    13    15    18    1
    14    18    19   ar
    15    19    20   ar
    16    20    21   ar
    17    21    24    1
    18    24    25    1
    19    24    26    1
    20    24    27    1
    21    21    22   ar
    22    22    23   ar
    23    15    16   ar
    24    16    17   ar
    25     1     2   am
    26     2     3    2
    27     2    28    1
    28    28    29    1
    29    29    30   ar
    30    30    31    1
    31    30    32   ar
    32    32    33   ar
    33    33    34    2
    34    33    35   ar
    35    35    36   ar
    36    36    37    1
    37    37    38    1
    38    38    39    1
    39    39    40   ar
    40    40    41   ar
    41    41    42   ar
    42    42    43    1
    43    42    44   ar
    44    44    45   ar
    45    17    12   ar
    46    36    29   ar
    47    45    39   ar
    48    23    18   ar
@<TRIPOS>MOLECULE
*****
 45 48 0 0 0
SMALL
GASTEIGER

@<TRIPOS>ATOM
      1 N           0.7792    3.9266   25.4296 N.am    1  UNL1       -0.2724
      2 C          -0.6110    3.4070   25.2119 C.2     1  UNL1        0.2491
      3 O          -0.8948    1.9411   25.3554 O.2     1  UNL1       -0.2727
      4 C           1.0630    5.3925   25.2861 C.3     1  UNL1        0.1111
      5 C           1.6411    6.1608   26.4374 C.3     1  UNL1        0.0939
      6 N           1.0144    6.0600   27.7964 N.3     1  UNL1       -0.2712
      7 C           0.8984    3.9275   29.2760 C.3     1  UNL1        0.0188
      8 C           1.6209    5.1668   28.8377 C.3     1  UNL1        0.0722
      9 C          -0.2189    6.8525   28.1142 C.3     1  UNL1        0.0722
     10 C          -1.5737    6.2304   27.9477 C.3     1  UNL1        0.0188
     11 C           1.8856    2.9803   25.7907 C.3     1  UNL1        0.1202
     12 C           2.2650    1.8758   24.8493 C.ar    1  UNL1       -0.0023
     13 C           2.7133    0.5504   25.3900 C.ar    1  UNL1       -0.0026
     14 C           3.0927   -0.5540   24.4487 C.ar    1  UNL1       -0.0003
     15 C           3.0239   -0.3330   22.9666 C.ar    1  UNL1       -0.0000
     16 C           2.5757    0.9923   22.4259 C.ar    1  UNL1       -0.0003
     17 C           2.1962    2.0968   23.3673 C.ar    1  UNL1       -0.0026
     18 C           3.4034   -1.4376   22.0252 C.ar    1  UNL1       -0.0000
     19 C           4.2564   -2.5735   22.5068 C.ar    1  UNL1       -0.0001
     20 C           4.6359   -3.6780   21.5654 C.ar    1  UNL1        0.0039
     21 C           4.1623   -3.6465   20.1425 C.ar    1  UNL1        0.0714
     22 C           3.3093   -2.5105   19.6609 C.ar    1  UNL1        0.0039
     23 C           2.9299   -1.4060   20.6023 C.ar    1  UNL1       -0.0001
     24 C           4.5417   -4.7510   19.2011 C.3     1  UNL1        0.4186
     25 F           4.9212   -5.8554   18.2598 F       1  UNL1       -0.1659
     26 F           3.1268   -4.8164   18.7076 F       1  UNL1       -0.1659
     27 F           5.9567   -4.6855   19.6947 F       1  UNL1       -0.1659
     28 C          -1.7174    4.3533   24.8508 C.3     1  UNL1        0.1931
     29 N          -2.6309    4.0364   23.7040 N.ar    1  UNL1       -0.3027
     30 C          -4.0706    3.7033   23.9618 C.ar    1  UNL1        0.0445
     31 C          -4.5968    3.6871   25.3664 C.3     1  UNL1        0.0502
     32 C          -4.9841    3.3865   22.8150 C.ar    1  UNL1        0.0753
     33 C          -4.4578    3.4027   21.4104 C.ar    1  UNL1        0.2821
     34 O          -5.3713    3.0859   20.2635 O.2     1  UNL1       -0.2651
     35 N          -3.0182    3.7358   21.1526 N.ar    1  UNL1       -0.1844
     36 C          -2.1047    4.0527   22.2994 C.ar    1  UNL1        0.1748
     37 S          -0.6651    4.3857   22.0417 S.3     1  UNL1       -0.0724
     38 C          -0.1927    4.6373   20.6403 C.3     1  UNL1        0.0913
     39 C           0.6000    3.5896   19.9166 C.ar    1  UNL1       -0.0108
     40 C           0.0382    2.2094   19.7451 C.ar    1  UNL1       -0.0011
     41 C           0.8310    1.1616   19.0213 C.ar    1  UNL1        0.0293
     42 C           2.1854    1.4940   18.4692 C.ar    1  UNL1        0.1401
     43 F           2.9782    0.4463   17.7455 F       1  UNL1       -0.2042
     44 C           2.7472    2.8743   18.6407 C.ar    1  UNL1        0.0293
     45 C           1.9544    3.9220   19.3644 C.ar    1  UNL1       -0.0011
@<TRIPOS>BOND
     1     7     8    1
     2     8     6    1
     3     6     9    1
     4     9    10    1
     5     6     5    1
     6     5     4    1
     7     4     1    1
     8     1    11    1
     9    11    12    1
    10    12    13   ar
    11    13    14   ar
    12    14    15   ar
    13    15    18    1
    14    18    19   ar
    15    19    20   ar
    16    20    21   ar
    17    21    24    1
    18    24    25    1
    19    24    26    1
    20    24    27    1
    21    21    22   ar
    22    22    23   ar
    23    15    16   ar
    24    16    17   ar
    25     1     2   am
    26     2     3    2
    27     2    28    1
    28    28    29    1
    29    29    30   ar
    30    30    31    1
    31    30    32   ar
    32    32    33   ar
    33    33    34    2
    34    33    35   ar
    35    35    36   ar
    36    36    37    1
    37    37    38    1
    38    38    39    1
    39    39    40   ar
    40    40    41   ar
    41    41    42   ar
    42    42    43    1
    43    42    44   ar
    44    44    45   ar
    45    17    12   ar
    46    36    29   ar
    47    45    39   ar
    48    23    18   ar
@<TRIPOS>MOLECULE
*****
 45 48 0 0 0
SMALL
GASTEIGER

@<TRIPOS>ATOM
      1 N           3.1270    0.7799   26.7533 N.am    1  UNL1       -0.2724
      2 C           3.6178    0.1943   25.4625 C.2     1  UNL1        0.2491
      3 O           3.6895    1.0476   24.2310 O.2     1  UNL1       -0.2727
      4 C           3.0554   -0.0735   27.9848 C.3     1  UNL1        0.1111
      5 C           1.7222   -0.4501   28.5598 C.3     1  UNL1        0.0939
      6 N           0.9443    0.5473   29.3659 N.3     1  UNL1       -0.2712
      7 C           0.8471    2.2566   31.3201 C.3     1  UNL1        0.0188
      8 C           1.6447    1.4007   30.3815 C.3     1  UNL1        0.0722
      9 C          -0.5340    0.6914   29.1566 C.3     1  UNL1        0.0722
     10 C          -1.3538   -0.4980   28.7524 C.3     1  UNL1        0.0188
     11 C           2.7079    2.2189   26.8126 C.3     1  UNL1        0.1202
     12 C           1.2906    2.6007   26.5033 C.ar    1  UNL1       -0.0023
     13 C           0.5394    1.8825   25.4217 C.ar    1  UNL1       -0.0026
     14 C          -0.8779    2.2643   25.1125 C.ar    1  UNL1       -0.0003
     15 C          -1.5439    3.3642   25.8850 C.ar    1  UNL1       -0.0000
     16 C          -0.7927    4.0823   26.9666 C.ar    1  UNL1       -0.0003
     17 C           0.6245    3.7006   27.2757 C.ar    1  UNL1       -0.0026
     18 C          -2.9612    3.7459   25.5757 C.ar    1  UNL1       -0.0000
     19 C          -3.5837    3.3292   24.2762 C.ar    1  UNL1       -0.0001
     20 C          -5.0010    3.7109   23.9669 C.ar    1  UNL1        0.0039
     21 C          -5.7958    4.5093   24.9573 C.ar    1  UNL1        0.0714
     22 C          -5.1733    4.9260   26.2569 C.ar    1  UNL1        0.0039
     23 C          -3.7560    4.5443   26.5661 C.ar    1  UNL1       -0.0001
     24 C          -7.2131    4.8911   24.6481 C.3     1  UNL1        0.4186
     25 F          -8.6303    5.2728   24.3390 F       1  UNL1       -0.1659
     26 F          -7.2886    5.6545   25.9371 F       1  UNL1       -0.1659
     27 F          -7.1375    4.1277   23.3592 F       1  UNL1       -0.1659
     28 C           4.0370   -1.2448   25.4033 C.3     1  UNL1        0.1931
     29 N           5.3437   -1.6199   24.7694 N.ar    1  UNL1       -0.3027
     30 C           6.6074   -1.5808   25.5766 C.ar    1  UNL1        0.0445
     31 C           6.5644   -1.1666   27.0176 C.3     1  UNL1        0.0502
     32 C           7.9142   -1.9558   24.9427 C.ar    1  UNL1        0.0753
     33 C           7.9572   -2.3700   23.5016 C.ar    1  UNL1        0.2821
     34 O           9.2639   -2.7450   22.8677 O.2     1  UNL1       -0.2651
     35 N           6.6935   -2.4090   22.6945 N.ar    1  UNL1       -0.1844
     36 C           5.3868   -2.0340   23.3284 C.ar    1  UNL1        0.1748
     37 S           4.1231   -2.0731   22.5212 S.3     1  UNL1       -0.0724
     38 C           4.1894   -2.0560   21.0227 C.3     1  UNL1        0.0913
     39 C           3.2580   -1.1780   20.2407 C.ar    1  UNL1       -0.0108
     40 C           3.6879   -0.6205   18.9163 C.ar    1  UNL1       -0.0011
     41 C           2.7565    0.2576   18.1342 C.ar    1  UNL1        0.0293
     42 C           1.3952    0.5780   18.6766 C.ar    1  UNL1        0.1401
     43 F           0.4638    1.4561   17.8946 F       1  UNL1       -0.2042
     44 C           0.9654    0.0204   20.0012 C.ar    1  UNL1        0.0293
     45 C           1.8967   -0.8576   20.7832 C.ar    1  UNL1       -0.0011
@<TRIPOS>BOND
     1     7     8    1
     2     8     6    1
     3     6     9    1
     4     9    10    1
     5     6     5    1
     6     5     4    1
     7     4     1    1
     8     1    11    1
     9    11    12    1
    10    12    13   ar
    11    13    14   ar
    12    14    15   ar
    13    15    18    1
    14    18    19   ar
    15    19    20   ar
    16    20    21   ar
    17    21    24    1
    18    24    25    1
    19    24    26    1
    20    24    27    1
    21    21    22   ar
    22    22    23   ar
    23    15    16   ar
    24    16    17   ar
    25     1     2   am
    26     2     3    2
    27     2    28    1
    28    28    29    1
    29    29    30   ar
    30    30    31    1
    31    30    32   ar
    32    32    33   ar
    33    33    34    2
    34    33    35   ar
    35    35    36   ar
    36    36    37    1
    37    37    38    1
    38    38    39    1
    39    39    40   ar
    40    40    41   ar
    41    41    42   ar
    42    42    43    1
    43    42    44   ar
    44    44    45   ar
    45    17    12   ar
    46    36    29   ar
    47    45    39   ar
    48    23    18   ar
@<TRIPOS>MOLECULE
*****
 45 48 0 0 0
SMALL
GASTEIGER

@<TRIPOS>ATOM
      1 N           1.4433    1.1237   19.2776 N.am    1  UNL1       -0.2724
      2 C           0.3984    1.9271   19.9937 C.2     1  UNL1        0.2491
      3 O          -0.5773    1.2450   20.9062 O.2     1  UNL1       -0.2727
      4 C           2.4191    1.8058   18.3651 C.3     1  UNL1        0.1111
      5 C           3.8237    2.0611   18.8251 C.3     1  UNL1        0.0939
      6 N           4.8643    0.9895   18.6879 N.3     1  UNL1       -0.2712
      7 C           4.1397   -0.7367   16.8864 C.3     1  UNL1        0.0188
      8 C           5.0865    0.3253   17.3614 C.3     1  UNL1        0.0722
      9 C           5.6826    0.5821   19.8771 C.3     1  UNL1        0.0722
     10 C           5.6033    1.3735   21.1489 C.3     1  UNL1        0.0188
     11 C           1.5124   -0.3618   19.4740 C.3     1  UNL1        0.1202
     12 C           2.4074   -0.9377   20.5310 C.ar    1  UNL1       -0.0023
     13 C           2.3966   -0.3643   21.9170 C.ar    1  UNL1       -0.0026
     14 C           3.2916   -0.9403   22.9740 C.ar    1  UNL1       -0.0003
     15 C           4.1975   -2.0897   22.6449 C.ar    1  UNL1       -0.0000
     16 C           4.2083   -2.6631   21.2590 C.ar    1  UNL1       -0.0003
     17 C           3.3133   -2.0871   20.2020 C.ar    1  UNL1       -0.0026
     18 C           5.0925   -2.6656   23.7020 C.ar    1  UNL1       -0.0000
     19 C           5.1836   -2.0084   25.0472 C.ar    1  UNL1       -0.0001
     20 C           6.0787   -2.5844   26.1043 C.ar    1  UNL1        0.0039
     21 C           6.8825   -3.8176   25.8160 C.ar    1  UNL1        0.0714
     22 C           6.7913   -4.4748   24.4706 C.ar    1  UNL1        0.0039
     23 C           5.8963   -3.8988   23.4137 C.ar    1  UNL1       -0.0001
     24 C           7.7775   -4.3935   26.8729 C.3     1  UNL1        0.4186
     25 F           8.6725   -4.9695   27.9299 F       1  UNL1       -0.1659
     26 F           6.9361   -3.7511   27.9355 F       1  UNL1       -0.1659
     27 F           8.6190   -5.0360   25.8103 F       1  UNL1       -0.1659
     28 C           0.3293    3.4126   19.7973 C.3     1  UNL1        0.1931
     29 N          -1.0024    4.0913   19.6712 N.ar    1  UNL1       -0.3027
     30 C          -1.6328    4.2612   18.3207 C.ar    1  UNL1        0.0445
     31 C          -0.9314    3.7525   17.0963 C.3     1  UNL1        0.0502
     32 C          -2.9645    4.9399   18.1947 C.ar    1  UNL1        0.0753
     33 C          -3.6659    5.4487   19.4192 C.ar    1  UNL1        0.2821
     34 O          -4.9976    6.1274   19.2931 O.2     1  UNL1       -0.2651
     35 N          -3.0355    5.2787   20.7696 N.ar    1  UNL1       -0.1844
     36 C          -1.7038    4.6000   20.8956 C.ar    1  UNL1        0.1748
     37 S          -1.0735    4.4300   22.2461 S.3     1  UNL1       -0.0724
     38 C          -1.8662    3.8405   23.3749 C.3     1  UNL1        0.0913
     39 C          -1.1783    3.0222   24.4272 C.ar    1  UNL1       -0.0108
     40 C          -1.6715    3.0542   25.8434 C.ar    1  UNL1       -0.0011
     41 C          -0.9837    2.2359   26.8958 C.ar    1  UNL1        0.0293
     42 C           0.1973    1.3856   26.5318 C.ar    1  UNL1        0.1401
     43 F           0.8851    0.5674   27.5840 F       1  UNL1       -0.2042
     44 C           0.6904    1.3537   25.1155 C.ar    1  UNL1        0.0293
     45 C           0.0026    2.1720   24.0632 C.ar    1  UNL1       -0.0011
@<TRIPOS>BOND
     1     7     8    1
     2     8     6    1
     3     6     9    1
     4     9    10    1
     5     6     5    1
     6     5     4    1
     7     4     1    1
     8     1    11    1
     9    11    12    1
    10    12    13   ar
    11    13    14   ar
    12    14    15   ar
    13    15    18    1
    14    18    19   ar
    15    19    20   ar
    16    20    21   ar
    17    21    24    1
    18    24    25    1
    19    24    26    1
    20    24    27    1
    21    21    22   ar
    22    22    23   ar
    23    15    16   ar
    24    16    17   ar
    25     1     2   am
    26     2     3    2
    27     2    28    1
    28    28    29    1
    29    29    30   ar
    30    30    31    1
    31    30    32   ar
    32    32    33   ar
    33    33    34    2
    34    33    35   ar
    35    35    36   ar
    36    36    37    1
    37    37    38    1
    38    38    39    1
    39    39    40   ar
    40    40    41   ar
    41    41    42   ar
    42    42    43    1
    43    42    44   ar
    44    44    45   ar
    45    17    12   ar
    46    36    29   ar
    47    45    39   ar
    48    23    18   ar
@<TRIPOS>MOLECULE
*****
 45 48 0 0 0
SMALL
GASTEIGER

@<TRIPOS>ATOM
      1 N           4.1865   -0.0627   30.9904 N.am    1  UNL1       -0.2724
      2 C           3.6778    1.2030   31.6141 C.2     1  UNL1        0.2491
      3 O           4.1271    2.5329   31.0855 O.2     1  UNL1       -0.2727
      4 C           3.7372   -1.3926   31.5191 C.3     1  UNL1        0.1111
      5 C           4.4470   -2.0150   32.6847 C.3     1  UNL1        0.0939
      6 N           5.9307   -2.2289   32.6320 N.3     1  UNL1       -0.2712
      7 C           8.3402   -1.4258   33.1794 C.3     1  UNL1        0.0188
      8 C           6.8582   -1.1950   33.1984 C.3     1  UNL1        0.0722
      9 C           6.4871   -3.4768   32.0128 C.3     1  UNL1        0.0722
     10 C           6.6287   -3.5759   30.5228 C.3     1  UNL1        0.0188
     11 C           5.1445    0.0014   29.8380 C.3     1  UNL1        0.1202
     12 C           4.6246    0.0318   28.4312 C.ar    1  UNL1       -0.0023
     13 C           4.4344   -1.2490   27.6741 C.ar    1  UNL1       -0.0026
     14 C           3.9145   -1.2185   26.2674 C.ar    1  UNL1       -0.0003
     15 C           3.5849    0.0928   25.6179 C.ar    1  UNL1       -0.0000
     16 C           3.7752    1.3736   26.3750 C.ar    1  UNL1       -0.0003
     17 C           4.2951    1.3431   27.7817 C.ar    1  UNL1       -0.0026
     18 C           3.0650    0.1232   24.2111 C.ar    1  UNL1       -0.0000
     19 C           3.3372   -1.0256   23.2859 C.ar    1  UNL1       -0.0001
     20 C           2.8173   -0.9952   21.8792 C.ar    1  UNL1        0.0039
     21 C           2.0253    0.1841   21.3977 C.ar    1  UNL1        0.0714
     22 C           1.7531    1.3330   22.3230 C.ar    1  UNL1        0.0039
     23 C           2.2730    1.3026   23.7297 C.ar    1  UNL1       -0.0001
     24 C           1.5054    0.2146   19.9911 C.3     1  UNL1        0.4186
     25 F           0.9855    0.2451   18.5844 F       1  UNL1       -0.1659
     26 F           2.3781    1.3979   19.6942 F       1  UNL1       -0.1659
     27 F           0.6327   -0.9687   20.2879 F       1  UNL1       -0.1659
     28 C           2.7198    1.1389   32.7666 C.3     1  UNL1        0.1931
     29 N           2.3899    2.3825   33.5378 N.ar    1  UNL1       -0.3027
     30 C           3.1536    2.7162   34.7850 C.ar    1  UNL1        0.0445
     31 C           4.2470    1.8064   35.2610 C.3     1  UNL1        0.0502
     32 C           2.8237    3.9598   35.5562 C.ar    1  UNL1        0.0753
     33 C           1.7302    4.8696   35.0801 C.ar    1  UNL1        0.2821
     34 O           1.4003    6.1132   35.8513 O.2     1  UNL1       -0.2651
     35 N           0.9666    4.5358   33.8330 N.ar    1  UNL1       -0.1844
     36 C           1.2965    3.2922   33.0618 C.ar    1  UNL1        0.1748
     37 S           0.5329    2.9584   31.8146 S.3     1  UNL1       -0.0724
     38 C           0.9334    3.5685   30.5041 C.3     1  UNL1        0.0913
     39 C           0.6323    2.8530   29.2206 C.ar    1  UNL1       -0.0108
     40 C           0.2556    3.6344   27.9969 C.ar    1  UNL1       -0.0011
     41 C          -0.0455    2.9189   26.7133 C.ar    1  UNL1        0.0293
     42 C           0.0303    1.4220   26.6535 C.ar    1  UNL1        0.1401
     43 F          -0.2707    0.7065   25.3700 F       1  UNL1       -0.2042
     44 C           0.4071    0.6406   27.8772 C.ar    1  UNL1        0.0293
     45 C           0.7081    1.3561   29.1607 C.ar    1  UNL1       -0.0011
@<TRIPOS>BOND
     1     7     8    1
     2     8     6    1
     3     6     9    1
     4     9    10    1
     5     6     5    1
     6     5     4    1
     7     4     1    1
     8     1    11    1
     9    11    12    1
    10    12    13   ar
    11    13    14   ar
    12    14    15   ar
    13    15    18    1
    14    18    19   ar
    15    19    20   ar
    16    20    21   ar
    17    21    24    1
    18    24    25    1
    19    24    26    1
    20    24    27    1
    21    21    22   ar
    22    22    23   ar
    23    15    16   ar
    24    16    17   ar
    25     1     2   am
    26     2     3    2
    27     2    28    1
    28    28    29    1
    29    29    30   ar
    30    30    31    1
    31    30    32   ar
    32    32    33   ar
    33    33    34    2
    34    33    35   ar
    35    35    36   ar
    36    36    37    1
    37    37    38    1
    38    38    39    1
    39    39    40   ar
    40    40    41   ar
    41    41    42   ar
    42    42    43    1
    43    42    44   ar
    44    44    45   ar
    45    17    12   ar
    46    36    29   ar
    47    45    39   ar
    48    23    18   ar
@<TRIPOS>MOLECULE
*****
 45 48 0 0 0
SMALL
GASTEIGER

@<TRIPOS>ATOM
      1 N           4.4504    0.1869   31.1992 N.am    1  UNL1       -0.2724
      2 C           3.9275    1.4723   31.7688 C.2     1  UNL1        0.2491
      3 O           4.5300    2.7795   31.3469 O.2     1  UNL1       -0.2727
      4 C           3.8479   -1.1204   31.6211 C.3     1  UNL1        0.1111
      5 C           4.4533   -1.8941   32.7546 C.3     1  UNL1        0.0939
      6 N           5.9002   -1.7059   33.1027 N.3     1  UNL1       -0.2712
      7 C           5.3286   -0.2140   35.1515 C.3     1  UNL1        0.0188
      8 C           6.3016   -0.6608   34.1011 C.3     1  UNL1        0.0722
      9 C           6.9456   -2.5629   32.4526 C.3     1  UNL1        0.0722
     10 C           6.5408   -3.6362   31.4860 C.3     1  UNL1        0.0188
     11 C           5.5757    0.2088   30.2076 C.3     1  UNL1        0.1202
     12 C           5.3511   -0.2800   28.8074 C.ar    1  UNL1       -0.0023
     13 C           5.7004   -1.6919   28.4408 C.ar    1  UNL1       -0.0026
     14 C           5.4758   -2.1807   27.0406 C.ar    1  UNL1       -0.0003
     15 C           4.9020   -1.2575   26.0069 C.ar    1  UNL1       -0.0000
     16 C           4.5528    0.1544   26.3735 C.ar    1  UNL1       -0.0003
     17 C           4.7774    0.6432   27.7737 C.ar    1  UNL1       -0.0026
     18 C           4.6775   -1.7463   24.6067 C.ar    1  UNL1       -0.0000
     19 C           3.6823   -1.0560   23.7218 C.ar    1  UNL1       -0.0001
     20 C           3.4577   -1.5448   22.3215 C.ar    1  UNL1        0.0039
     21 C           4.2284   -2.7240   21.8062 C.ar    1  UNL1        0.0714
     22 C           5.2237   -3.4143   22.6911 C.ar    1  UNL1        0.0039
     23 C           5.4482   -2.9255   24.0913 C.ar    1  UNL1       -0.0001
     24 C           4.0039   -3.2128   20.4060 C.3     1  UNL1        0.4186
     25 F           3.7794   -3.7017   19.0058 F       1  UNL1       -0.1659
     26 F           4.0217   -1.7977   19.9091 F       1  UNL1       -0.1659
     27 F           3.9861   -4.6280   20.9029 F       1  UNL1       -0.1659
     28 C           2.8022    1.4503   32.7604 C.3     1  UNL1        0.1931
     29 N           1.9675    2.6780   32.9749 N.ar    1  UNL1       -0.3027
     30 C           0.8081    2.9647   32.0673 C.ar    1  UNL1        0.0445
     31 C           0.4834    2.0237   30.9453 C.3     1  UNL1        0.0502
     32 C          -0.0265    4.1924   32.2818 C.ar    1  UNL1        0.0753
     33 C           0.2982    5.1335   33.4039 C.ar    1  UNL1        0.2821
     34 O          -0.5365    6.3612   33.6184 O.2     1  UNL1       -0.2651
     35 N           1.4576    4.8468   34.3114 N.ar    1  UNL1       -0.1844
     36 C           2.2922    3.6190   34.0969 C.ar    1  UNL1        0.1748
     37 S           3.4516    3.3323   35.0045 S.3     1  UNL1       -0.0724
     38 C           3.3865    3.7240   36.4510 C.3     1  UNL1        0.0913
     39 C           2.7162    2.8205   37.4432 C.ar    1  UNL1       -0.0108
     40 C           3.2794    1.4574   37.7162 C.ar    1  UNL1       -0.0011
     41 C           2.6091    0.5538   38.7084 C.ar    1  UNL1        0.0293
     42 C           1.3755    1.0135   39.4275 C.ar    1  UNL1        0.1401
     43 F           0.7052    0.1100   40.4196 F       1  UNL1       -0.2042
     44 C           0.8123    2.3767   39.1544 C.ar    1  UNL1        0.0293
     45 C           1.4826    3.2801   38.1623 C.ar    1  UNL1       -0.0011
@<TRIPOS>BOND
     1     7     8    1
     2     8     6    1
     3     6     9    1
     4     9    10    1
     5     6     5    1
     6     5     4    1
     7     4     1    1
     8     1    11    1
     9    11    12    1
    10    12    13   ar
    11    13    14   ar
    12    14    15   ar
    13    15    18    1
    14    18    19   ar
    15    19    20   ar
    16    20    21   ar
    17    21    24    1
    18    24    25    1
    19    24    26    1
    20    24    27    1
    21    21    22   ar
    22    22    23   ar
    23    15    16   ar
    24    16    17   ar
    25     1     2   am
    26     2     3    2
    27     2    28    1
    28    28    29    1
    29    29    30   ar
    30    30    31    1
    31    30    32   ar
    32    32    33   ar
    33    33    34    2
    34    33    35   ar
    35    35    36   ar
    36    36    37    1
    37    37    38    1
    38    38    39    1
    39    39    40   ar
    40    40    41   ar
    41    41    42   ar
    42    42    43    1
    43    42    44   ar
    44    44    45   ar
    45    17    12   ar
    46    36    29   ar
    47    45    39   ar
    48    23    18   ar
@<TRIPOS>MOLECULE
*****
 45 48 0 0 0
SMALL
GASTEIGER

@<TRIPOS>ATOM
      1 N           4.8068   -0.4175   31.0984 N.am    1  UNL1       -0.2724
      2 C           4.0701    0.8557   31.3920 C.2     1  UNL1        0.2491
      3 O           4.4280    2.1152   30.6603 O.2     1  UNL1       -0.2727
      4 C           4.4489   -1.6771   31.8301 C.3     1  UNL1        0.1111
      5 C           5.2143   -2.0749   33.0572 C.3     1  UNL1        0.0939
      6 N           6.2531   -1.1536   33.6246 N.3     1  UNL1       -0.2712
      7 C           4.9649   -0.4239   35.7596 C.3     1  UNL1        0.0188
      8 C           5.8563   -0.0865   34.6014 C.3     1  UNL1        0.0722
      9 C           7.6888   -1.2993   33.2154 C.3     1  UNL1        0.0722
     10 C           8.1322   -2.5135   32.4543 C.3     1  UNL1        0.0188
     11 C           5.9015   -0.4311   30.0730 C.3     1  UNL1        0.1202
     12 C           5.5965   -0.8147   28.6552 C.ar    1  UNL1       -0.0023
     13 C           6.7146   -1.0188   27.6764 C.ar    1  UNL1       -0.0026
     14 C           6.4095   -1.4023   26.2587 C.ar    1  UNL1       -0.0003
     15 C           4.9864   -1.5817   25.8199 C.ar    1  UNL1       -0.0000
     16 C           3.8683   -1.3776   26.7988 C.ar    1  UNL1       -0.0003
     17 C           4.1734   -0.9941   28.2165 C.ar    1  UNL1       -0.0026
     18 C           4.6813   -1.9653   24.4022 C.ar    1  UNL1       -0.0000
     19 C           5.3145   -3.1857   23.8026 C.ar    1  UNL1       -0.0001
     20 C           5.0095   -3.5692   22.3848 C.ar    1  UNL1        0.0039
     21 C           4.0712   -2.7323   21.5668 C.ar    1  UNL1        0.0714
     22 C           3.4380   -1.5118   22.1665 C.ar    1  UNL1        0.0039
     23 C           3.7430   -1.1284   23.5841 C.ar    1  UNL1       -0.0001
     24 C           3.7662   -3.1158   20.1491 C.3     1  UNL1        0.4186
     25 F           3.4611   -3.4993   18.7314 F       1  UNL1       -0.1659
     26 F           2.6768   -2.0856   20.1049 F       1  UNL1       -0.1659
     27 F           4.8556   -4.1459   20.1934 F       1  UNL1       -0.1659
     28 C           2.9753    0.8693   32.4175 C.3     1  UNL1        0.1931
     29 N           2.0268    2.0292   32.4865 N.ar    1  UNL1       -0.3027
     30 C           2.0535    2.9505   33.6701 C.ar    1  UNL1        0.0445
     31 C           3.0287    2.7117   34.7845 C.3     1  UNL1        0.0502
     32 C           1.1050    4.1104   33.7391 C.ar    1  UNL1        0.0753
     33 C           0.1297    4.3492   32.6247 C.ar    1  UNL1        0.2821
     34 O          -0.8188    5.5091   32.6937 O.2     1  UNL1       -0.2651
     35 N           0.1031    3.4280   31.4412 N.ar    1  UNL1       -0.1844
     36 C           1.0516    2.2680   31.3721 C.ar    1  UNL1        0.1748
     37 S           1.0249    1.3468   30.1887 S.3     1  UNL1       -0.0724
     38 C          -0.2121    1.2433   29.3465 C.3     1  UNL1        0.0913
     39 C          -0.1321    1.4677   27.8656 C.ar    1  UNL1       -0.0108
     40 C           1.0371    0.9387   27.0890 C.ar    1  UNL1       -0.0011
     41 C           1.1171    1.1630   25.6080 C.ar    1  UNL1        0.0293
     42 C           0.0279    1.9164   24.9036 C.ar    1  UNL1        0.1401
     43 F           0.1079    2.1407   23.4227 F       1  UNL1       -0.2042
     44 C          -1.1413    2.4454   25.6803 C.ar    1  UNL1        0.0293
     45 C          -1.2213    2.2210   27.1612 C.ar    1  UNL1       -0.0011
@<TRIPOS>BOND
     1     7     8    1
     2     8     6    1
     3     6     9    1
     4     9    10    1
     5     6     5    1
     6     5     4    1
     7     4     1    1
     8     1    11    1
     9    11    12    1
    10    12    13   ar
    11    13    14   ar
    12    14    15   ar
    13    15    18    1
    14    18    19   ar
    15    19    20   ar
    16    20    21   ar
    17    21    24    1
    18    24    25    1
    19    24    26    1
    20    24    27    1
    21    21    22   ar
    22    22    23   ar
    23    15    16   ar
    24    16    17   ar
    25     1     2   am
    26     2     3    2
    27     2    28    1
    28    28    29    1
    29    29    30   ar
    30    30    31    1
    31    30    32   ar
    32    32    33   ar
    33    33    34    2
    34    33    35   ar
    35    35    36   ar
    36    36    37    1
    37    37    38    1
    38    38    39    1
    39    39    40   ar
    40    40    41   ar
    41    41    42   ar
    42    42    43    1
    43    42    44   ar
    44    44    45   ar
    45    17    12   ar
    46    36    29   ar
    47    45    39   ar
    48    23    18   ar
@<TRIPOS>MOLECULE
*****
 45 48 0 0 0
SMALL
GASTEIGER

@<TRIPOS>ATOM
      1 N           4.3969    0.0168   26.9833 N.am    1  UNL1       -0.2724
      2 C           5.1800    0.0137   28.2626 C.2     1  UNL1        0.2491
      3 O           5.6660    1.3066   28.8476 O.2     1  UNL1       -0.2727
      4 C           3.9109   -1.2761   26.3983 C.3     1  UNL1        0.1111
      5 C           4.3084   -1.6654   25.0053 C.3     1  UNL1        0.0939
      6 N           5.7537   -1.8905   24.6730 N.3     1  UNL1       -0.2712
      7 C           6.7934   -3.7769   26.1257 C.3     1  UNL1        0.0188
      8 C           6.3449   -3.2642   24.7894 C.3     1  UNL1        0.0722
      9 C           6.6078   -0.7419   24.2244 C.3     1  UNL1        0.0722
     10 C           7.5667   -0.1009   25.1835 C.3     1  UNL1        0.0188
     11 C           4.0998    1.3128   26.2889 C.3     1  UNL1        0.1202
     12 C           2.6798    1.7675   26.1250 C.ar    1  UNL1       -0.0023
     13 C           2.1652    2.9244   26.9291 C.ar    1  UNL1       -0.0026
     14 C           0.7452    3.3791   26.7652 C.ar    1  UNL1       -0.0003
     15 C          -0.1602    2.6769   25.7972 C.ar    1  UNL1       -0.0000
     16 C           0.3544    1.5199   24.9930 C.ar    1  UNL1       -0.0003
     17 C           1.7744    1.0653   25.1570 C.ar    1  UNL1       -0.0026
     18 C          -1.5802    3.1316   25.6333 C.ar    1  UNL1       -0.0000
     19 C          -2.3915    3.5062   26.8380 C.ar    1  UNL1       -0.0001
     20 C          -3.8116    3.9609   26.6741 C.ar    1  UNL1        0.0039
     21 C          -4.4202    4.0410   25.3054 C.ar    1  UNL1        0.0714
     22 C          -3.6088    3.6664   24.1007 C.ar    1  UNL1        0.0039
     23 C          -2.1888    3.2117   24.2646 C.ar    1  UNL1       -0.0001
     24 C          -5.8401    4.4957   25.1415 C.3     1  UNL1        0.4186
     25 F          -7.2601    4.9504   24.9775 F       1  UNL1       -0.1659
     26 F          -5.8081    5.0919   26.5175 F       1  UNL1       -0.1659
     27 F          -5.8722    3.8996   23.7654 F       1  UNL1       -0.1659
     28 C           5.4771   -1.2823   28.9570 C.3     1  UNL1        0.1931
     29 N           6.3261   -1.2932   30.1936 N.ar    1  UNL1       -0.3027
     30 C           7.8162   -1.4216   30.0792 C.ar    1  UNL1        0.0445
     31 C           8.4574   -1.5391   28.7283 C.3     1  UNL1        0.0502
     32 C           8.6652   -1.4325   31.3158 C.ar    1  UNL1        0.0753
     33 C           8.0239   -1.3151   32.6668 C.ar    1  UNL1        0.2821
     34 O           8.8729   -1.3260   33.9034 O.2     1  UNL1       -0.2651
     35 N           6.5338   -1.1867   32.7811 N.ar    1  UNL1       -0.1844
     36 C           5.6849   -1.1758   31.5445 C.ar    1  UNL1        0.1748
     37 S           4.1948   -1.0474   31.6588 S.3     1  UNL1       -0.0724
     38 C           3.5466    0.2999   31.5378 C.3     1  UNL1        0.0913
     39 C           2.3074    0.4643   30.7087 C.ar    1  UNL1       -0.0108
     40 C           1.9819   -0.5367   29.6401 C.ar    1  UNL1       -0.0011
     41 C           0.7427   -0.3724   28.8109 C.ar    1  UNL1        0.0293
     42 C          -0.1709    0.7929   29.0504 C.ar    1  UNL1        0.1401
     43 F          -1.4101    0.9572   28.2214 F       1  UNL1       -0.2042
     44 C           0.1547    1.7939   30.1191 C.ar    1  UNL1        0.0293
     45 C           1.3938    1.6296   30.9482 C.ar    1  UNL1       -0.0011
@<TRIPOS>BOND
     1     7     8    1
     2     8     6    1
     3     6     9    1
     4     9    10    1
     5     6     5    1
     6     5     4    1
     7     4     1    1
     8     1    11    1
     9    11    12    1
    10    12    13   ar
    11    13    14   ar
    12    14    15   ar
    13    15    18    1
    14    18    19   ar
    15    19    20   ar
    16    20    21   ar
    17    21    24    1
    18    24    25    1
    19    24    26    1
    20    24    27    1
    21    21    22   ar
    22    22    23   ar
    23    15    16   ar
    24    16    17   ar
    25     1     2   am
    26     2     3    2
    27     2    28    1
    28    28    29    1
    29    29    30   ar
    30    30    31    1
    31    30    32   ar
    32    32    33   ar
    33    33    34    2
    34    33    35   ar
    35    35    36   ar
    36    36    37    1
    37    37    38    1
    38    38    39    1
    39    39    40   ar
    40    40    41   ar
    41    41    42   ar
    42    42    43    1
    43    42    44   ar
    44    44    45   ar
    45    17    12   ar
    46    36    29   ar
    47    45    39   ar
    48    23    18   ar
@<TRIPOS>MOLECULE
*****
 45 48 0 0 0
SMALL
GASTEIGER

@<TRIPOS>ATOM
      1 N           2.8828    0.6197   24.3130 N.am    1  UNL1       -0.2724
      2 C           3.3306    0.2792   25.7035 C.2     1  UNL1        0.2491
      3 O           3.3749    1.3440   26.7590 O.2     1  UNL1       -0.2727
      4 C           2.8386   -0.4453   23.2575 C.3     1  UNL1        0.1111
      5 C           3.7458   -0.3586   22.0661 C.3     1  UNL1        0.0939
      6 N           3.1708   -0.3967   20.6812 N.3     1  UNL1       -0.2712
      7 C           0.6200   -0.0717   20.3101 C.3     1  UNL1        0.0188
      8 C           1.8071   -0.9777   20.4510 C.3     1  UNL1        0.0722
      9 C           3.9595    0.1461   19.5265 C.3     1  UNL1        0.0722
     10 C           3.6858   -0.3434   18.1352 C.3     1  UNL1        0.0188
     11 C           2.4793    2.0249   23.9780 C.3     1  UNL1        0.1202
     12 C           1.0325    2.4192   24.0164 C.ar    1  UNL1       -0.0023
     13 C           0.3679    2.9542   22.7827 C.ar    1  UNL1       -0.0026
     14 C          -1.0788    3.3485   22.8212 C.ar    1  UNL1       -0.0003
     15 C          -1.8610    3.2077   24.0934 C.ar    1  UNL1       -0.0000
     16 C          -1.1964    2.6727   25.3271 C.ar    1  UNL1       -0.0003
     17 C           0.2503    2.2784   25.2886 C.ar    1  UNL1       -0.0026
     18 C          -3.3078    3.6020   24.1318 C.ar    1  UNL1       -0.0000
     19 C          -3.9634    3.9218   25.4424 C.ar    1  UNL1       -0.0001
     20 C          -5.4102    4.3161   25.4809 C.ar    1  UNL1        0.0039
     21 C          -6.2013    4.3905   24.2086 C.ar    1  UNL1        0.0714
     22 C          -5.5456    4.0706   22.8979 C.ar    1  UNL1        0.0039
     23 C          -4.0989    3.6764   22.8596 C.ar    1  UNL1       -0.0001
     24 C          -7.6480    4.7847   24.2470 C.3     1  UNL1        0.4186
     25 F          -9.0947    5.1790   24.2854 F       1  UNL1       -0.1659
     26 F          -7.3805    5.6498   25.4428 F       1  UNL1       -0.1659
     27 F          -7.9155    3.9197   23.0512 F       1  UNL1       -0.1659
     28 C           3.7342   -1.1262   26.0385 C.3     1  UNL1        0.1931
     29 N           5.0091   -1.3824   26.7860 N.ar    1  UNL1       -0.3027
     30 C           5.0390   -1.2629   28.2810 C.ar    1  UNL1        0.0445
     31 C           3.7939   -0.8872   29.0284 C.3     1  UNL1        0.0502
     32 C           6.3140   -1.5191   29.0286 C.ar    1  UNL1        0.0753
     33 C           7.5591   -1.8948   28.2811 C.ar    1  UNL1        0.2821
     34 O           8.8340   -2.1510   29.0286 O.2     1  UNL1       -0.2651
     35 N           7.5292   -2.0143   26.7862 N.ar    1  UNL1       -0.1844
     36 C           6.2542   -1.7581   26.0387 C.ar    1  UNL1        0.1748
     37 S           6.2243   -1.8776   24.5438 S.3     1  UNL1       -0.0724
     38 C           5.9821   -3.2119   23.9027 C.3     1  UNL1        0.0913
     39 C           5.7676   -3.3043   22.4210 C.ar    1  UNL1       -0.0108
     40 C           4.4926   -3.8823   21.8824 C.ar    1  UNL1       -0.0011
     41 C           4.2781   -3.9746   20.4006 C.ar    1  UNL1        0.0293
     42 C           5.3387   -3.4890   19.4576 C.ar    1  UNL1        0.1401
     43 F           5.1243   -3.5814   17.9759 F       1  UNL1       -0.2042
     44 C           6.6138   -2.9110   19.9963 C.ar    1  UNL1        0.0293
     45 C           6.8282   -2.8186   21.4780 C.ar    1  UNL1       -0.0011
@<TRIPOS>BOND
     1     7     8    1
     2     8     6    1
     3     6     9    1
     4     9    10    1
     5     6     5    1
     6     5     4    1
     7     4     1    1
     8     1    11    1
     9    11    12    1
    10    12    13   ar
    11    13    14   ar
    12    14    15   ar
    13    15    18    1
    14    18    19   ar
    15    19    20   ar
    16    20    21   ar
    17    21    24    1
    18    24    25    1
    19    24    26    1
    20    24    27    1
    21    21    22   ar
    22    22    23   ar
    23    15    16   ar
    24    16    17   ar
    25     1     2   am
    26     2     3    2
    27     2    28    1
    28    28    29    1
    29    29    30   ar
    30    30    31    1
    31    30    32   ar
    32    32    33   ar
    33    33    34    2
    34    33    35   ar
    35    35    36   ar
    36    36    37    1
    37    37    38    1
    38    38    39    1
    39    39    40   ar
    40    40    41   ar
    41    41    42   ar
    42    42    43    1
    43    42    44   ar
    44    44    45   ar
    45    17    12   ar
    46    36    29   ar
    47    45    39   ar
    48    23    18   ar
