@<TRIPOS>MOLECULE
*****
 34 37 0 0 0
SMALL
GASTEIGER

@<TRIPOS>ATOM
      1 N           7.0788   -2.8489   30.2914 N.3     1  UNL1       -0.2689
      2 C           7.1112   -1.5351   29.5683 C.3     1  UNL1        0.0741
      3 C           6.7170   -1.4647   28.1227 C.3     1  UNL1        0.0369
      4 C           6.2904   -2.7081   27.4003 C.3     1  UNL1        0.0747
      5 C           6.2581   -4.0219   28.1234 C.3     1  UNL1        0.0369
      6 C           6.6523   -4.0923   29.5689 C.3     1  UNL1        0.0741
      7 N           5.8963   -2.6377   25.9547 N.am    1  UNL1       -0.2999
      8 C           4.6150   -1.9658   25.5586 C.2     1  UNL1        0.2806
      9 O           3.7279   -1.3643   26.6079 O.2     1  UNL1       -0.2668
     10 H           6.4785   -3.0325   25.2660 H       1  UNL1        0.1498
     11 C           4.2209   -1.8955   24.1129 C.ar    1  UNL1        0.2014
     12 C           3.3786   -0.7564   23.6198 C.ar    1  UNL1        0.0843
     13 C           2.9844   -0.6860   22.1743 C.ar    1  UNL1        0.2018
     14 O           2.1421    0.4530   21.6812 O.2     1  UNL1       -0.2864
     15 C           3.4325   -1.7547   21.2218 C.ar    1  UNL1        0.0737
     16 C           3.0384   -1.6843   19.7762 C.ar    1  UNL1        0.0085
     17 C           3.4865   -2.7529   18.8238 C.ar    1  UNL1        0.0299
     18 C           4.3288   -3.8919   19.3169 C.ar    1  UNL1        0.1432
     19 F           4.7769   -4.9606   18.3644 F       1  UNL1       -0.2041
     20 C           4.7230   -3.9623   20.7624 C.ar    1  UNL1        0.0672
     21 C           4.2748   -2.8937   21.7149 C.ar    1  UNL1        0.1508
     22 O           4.6690   -2.9641   23.1605 O.2     1  UNL1       -0.4486
     23 C           7.4730   -2.9193   31.7370 C.3     1  UNL1        0.0991
     24 C           5.1843   -0.5604   34.8107 C.ar    1  UNL1        0.0503
     25 C           4.5057   -1.6634   34.0539 C.ar    1  UNL1        0.0144
     26 C           5.2686   -2.4497   33.0293 C.ar    1  UNL1       -0.0016
     27 C           6.7101   -2.1330   32.7615 C.ar    1  UNL1       -0.0061
     28 C           7.3887   -1.0300   33.5183 C.ar    1  UNL1       -0.0016
     29 C           6.6258   -0.2437   34.5429 C.ar    1  UNL1        0.0144
     30 C           3.0270    2.3198   36.4841 C.3     1  UNL1        0.0949
     31 C           3.7899    1.5335   35.4595 C.2     1  UNL1        0.2266
     32 O           3.9212    2.0549   34.0592 O.2     1  UNL1       -0.2748
     33 N           4.4215    0.2259   35.8353 N.am    1  UNL1       -0.2839
     34 H           4.3353   -0.1163   36.7543 H       1  UNL1        0.1549
@<TRIPOS>BOND
     1    30    31    1
     2    31    32    2
     3    31    33   am
     4    33    24    1
     5    24    25   ar
     6    25    26   ar
     7    26    27   ar
     8    27    23    1
     9    23     1    1
    10     1     2    1
    11     2     3    1
    12     3     4    1
    13     4     7    1
    14     7     8   am
    15     8     9    2
    16     8    11    1
    17    11    12   ar
    18    12    13   ar
    19    13    14    2
    20    13    15   ar
    21    15    16   ar
    22    16    17   ar
    23    17    18   ar
    24    18    19    1
    25    18    20   ar
    26    20    21   ar
    27    21    22   ar
    28     4     5    1
    29     5     6    1
    30    27    28   ar
    31    28    29   ar
    32    29    24   ar
    33     6     1    1
    34    22    11   ar
    35    21    15   ar
    36    33    34    1
    37     7    10    1
@<TRIPOS>MOLECULE
*****
 34 37 0 0 0
SMALL
GASTEIGER

@<TRIPOS>ATOM
      1 N           6.8889   -3.7422   30.1270 N.3     1  UNL1       -0.2689
      2 C           6.6043   -2.4225   29.4732 C.3     1  UNL1        0.0741
      3 C           6.3688   -2.3539   27.9934 C.3     1  UNL1        0.0369
      4 C           6.4178   -3.6050   27.1674 C.3     1  UNL1        0.0747
      5 C           6.7024   -4.9247   27.8211 C.3     1  UNL1        0.0369
      6 C           6.9379   -4.9933   29.3009 C.3     1  UNL1        0.0741
      7 N           6.1823   -3.5364   25.6876 N.am    1  UNL1       -0.2999
      8 C           7.2687   -3.0456   24.7772 C.2     1  UNL1        0.2806
      9 O           8.5906   -2.6234   25.3466 O.2     1  UNL1       -0.2668
     10 H           5.3147   -3.8135   25.3139 H       1  UNL1        0.1498
     11 C           7.0331   -2.9770   23.2974 C.ar    1  UNL1        0.2014
     12 C           8.0524   -2.3333   22.4047 C.ar    1  UNL1        0.0843
     13 C           7.8168   -2.2647   20.9249 C.ar    1  UNL1        0.2018
     14 O           8.8361   -1.6211   20.0323 O.2     1  UNL1       -0.2864
     15 C           6.5620   -2.8397   20.3377 C.ar    1  UNL1        0.0737
     16 C           6.3264   -2.7711   18.8580 C.ar    1  UNL1        0.0085
     17 C           5.0716   -3.3461   18.2708 C.ar    1  UNL1        0.0299
     18 C           4.0524   -3.9898   19.1635 C.ar    1  UNL1        0.1432
     19 F           2.7975   -4.5648   18.5763 F       1  UNL1       -0.2041
     20 C           4.2879   -4.0584   20.6432 C.ar    1  UNL1        0.0672
     21 C           5.5427   -3.4834   21.2304 C.ar    1  UNL1        0.1508
     22 O           5.7783   -3.5520   22.7102 O.2     1  UNL1       -0.4486
     23 C           7.1244   -3.8108   31.6068 C.3     1  UNL1        0.0991
     24 C           5.2585   -0.7495   34.3265 C.ar    1  UNL1        0.0503
     25 C           4.4447   -1.9082   33.8315 C.ar    1  UNL1        0.0144
     26 C           5.0667   -2.9287   32.9249 C.ar    1  UNL1       -0.0016
     27 C           6.5025   -2.7904   32.5133 C.ar    1  UNL1       -0.0061
     28 C           7.3163   -1.6317   33.0084 C.ar    1  UNL1       -0.0016
     29 C           6.6943   -0.6113   33.9149 C.ar    1  UNL1        0.0144
     30 C           4.5038    1.4391   37.5499 C.3     1  UNL1        0.0949
     31 C           5.1257    0.4186   36.6433 C.2     1  UNL1        0.2266
     32 O           6.2369   -0.4541   37.1471 O.2     1  UNL1       -0.2748
     33 N           4.6366    0.2709   35.2331 N.am    1  UNL1       -0.2839
     34 H           3.9073    0.8437   34.9024 H       1  UNL1        0.1549
@<TRIPOS>BOND
     1    30    31    1
     2    31    32    2
     3    31    33   am
     4    33    24    1
     5    24    25   ar
     6    25    26   ar
     7    26    27   ar
     8    27    23    1
     9    23     1    1
    10     1     2    1
    11     2     3    1
    12     3     4    1
    13     4     7    1
    14     7     8   am
    15     8     9    2
    16     8    11    1
    17    11    12   ar
    18    12    13   ar
    19    13    14    2
    20    13    15   ar
    21    15    16   ar
    22    16    17   ar
    23    17    18   ar
    24    18    19    1
    25    18    20   ar
    26    20    21   ar
    27    21    22   ar
    28     4     5    1
    29     5     6    1
    30    27    28   ar
    31    28    29   ar
    32    29    24   ar
    33     6     1    1
    34    22    11   ar
    35    21    15   ar
    36    33    34    1
    37     7    10    1
@<TRIPOS>MOLECULE
*****
 34 37 0 0 0
SMALL
GASTEIGER

@<TRIPOS>ATOM
      1 N           7.2114   -3.3680   29.7438 N.3     1  UNL1       -0.2689
      2 C           7.5466   -2.1632   28.9155 C.3     1  UNL1        0.0741
      3 C           7.2245   -2.1470   27.4505 C.3     1  UNL1        0.0369
      4 C           6.5672   -3.3356   26.8139 C.3     1  UNL1        0.0747
      5 C           6.2321   -4.5404   27.6422 C.3     1  UNL1        0.0369
      6 C           6.5541   -4.5566   29.1071 C.3     1  UNL1        0.0741
      7 N           6.2452   -3.3193   25.3490 N.am    1  UNL1       -0.2999
      8 C           5.1375   -2.4487   24.8343 C.2     1  UNL1        0.2806
      9 O           4.3518   -1.5944   25.7844 O.2     1  UNL1       -0.2668
     10 H           6.7609   -3.8801   24.7254 H       1  UNL1        0.1498
     11 C           4.8154   -2.4325   23.3693 C.ar    1  UNL1        0.2014
     12 C           4.6622   -3.7233   22.6207 C.ar    1  UNL1        0.0843
     13 C           4.3402   -3.7072   21.1558 C.ar    1  UNL1        0.2018
     14 O           4.1870   -4.9980   20.4073 O.2     1  UNL1       -0.2864
     15 C           4.1714   -2.4001   20.4394 C.ar    1  UNL1        0.0737
     16 C           3.8493   -2.3839   18.9745 C.ar    1  UNL1        0.0085
     17 C           3.6805   -1.0770   18.2581 C.ar    1  UNL1        0.0299
     18 C           3.8337    0.2139   19.0066 C.ar    1  UNL1        0.1432
     19 F           3.6649    1.5209   18.2902 F       1  UNL1       -0.2041
     20 C           4.1558    0.1977   20.4715 C.ar    1  UNL1        0.0672
     21 C           4.3246   -1.1093   21.1879 C.ar    1  UNL1        0.1508
     22 O           4.6466   -1.1255   22.6529 O.2     1  UNL1       -0.4486
     23 C           7.5335   -3.3843   31.2087 C.3     1  UNL1        0.0991
     24 C           5.1746   -0.8235   34.0596 C.ar    1  UNL1        0.0503
     25 C           4.6253   -2.1440   33.6075 C.ar    1  UNL1        0.0144
     26 C           5.4116   -2.9976   32.6572 C.ar    1  UNL1       -0.0016
     27 C           6.7472   -2.5307   32.1590 C.ar    1  UNL1       -0.0061
     28 C           7.2964   -1.2102   32.6111 C.ar    1  UNL1       -0.0016
     29 C           6.5101   -0.3565   33.5614 C.ar    1  UNL1        0.0144
     30 C           4.0478    1.0258   37.3854 C.3     1  UNL1        0.0949
     31 C           4.8341    0.1722   36.4351 C.2     1  UNL1        0.2266
     32 O           6.0663   -0.5395   36.9100 O.2     1  UNL1       -0.2748
     33 N           4.3883    0.0302   35.0099 N.am    1  UNL1       -0.2839
     34 H           3.5796    0.4972   34.6983 H       1  UNL1        0.1549
@<TRIPOS>BOND
     1    30    31    1
     2    31    32    2
     3    31    33   am
     4    33    24    1
     5    24    25   ar
     6    25    26   ar
     7    26    27   ar
     8    27    23    1
     9    23     1    1
    10     1     2    1
    11     2     3    1
    12     3     4    1
    13     4     7    1
    14     7     8   am
    15     8     9    2
    16     8    11    1
    17    11    12   ar
    18    12    13   ar
    19    13    14    2
    20    13    15   ar
    21    15    16   ar
    22    16    17   ar
    23    17    18   ar
    24    18    19    1
    25    18    20   ar
    26    20    21   ar
    27    21    22   ar
    28     4     5    1
    29     5     6    1
    30    27    28   ar
    31    28    29   ar
    32    29    24   ar
    33     6     1    1
    34    22    11   ar
    35    21    15   ar
    36    33    34    1
    37     7    10    1
@<TRIPOS>MOLECULE
*****
 34 37 0 0 0
SMALL
GASTEIGER

@<TRIPOS>ATOM
      1 N           4.2817   -1.5136   19.5585 N.3     1  UNL1       -0.2689
      2 C           3.8551   -2.9429   19.7174 C.3     1  UNL1        0.0741
      3 C           4.5896   -3.8438   20.6655 C.3     1  UNL1        0.0369
      4 C           5.7506   -3.3156   21.4547 C.3     1  UNL1        0.0747
      5 C           6.1772   -1.8863   21.2959 C.3     1  UNL1        0.0369
      6 C           5.4428   -0.9853   20.3478 C.3     1  UNL1        0.0741
      7 N           6.4850   -4.2165   22.4028 N.am    1  UNL1       -0.2999
      8 C           6.3211   -4.0407   23.8834 C.2     1  UNL1        0.2806
      9 O           5.4228   -2.9640   24.4160 O.2     1  UNL1       -0.2668
     10 H           7.0745   -4.9232   22.0533 H       1  UNL1        0.1498
     11 C           7.0555   -4.9418   24.8315 C.ar    1  UNL1        0.2014
     12 C           7.9285   -6.0391   24.2989 C.ar    1  UNL1        0.0843
     13 C           8.6630   -6.9401   25.2469 C.ar    1  UNL1        0.2018
     14 O           9.5360   -8.0375   24.7143 O.2     1  UNL1       -0.2864
     15 C           8.5244   -6.7438   26.7276 C.ar    1  UNL1        0.0737
     16 C           9.2588   -7.6449   27.6756 C.ar    1  UNL1        0.0085
     17 C           9.1202   -7.4485   29.1562 C.ar    1  UNL1        0.0299
     18 C           8.2472   -6.3512   29.6888 C.ar    1  UNL1        0.1432
     19 F           8.1086   -6.1549   31.1695 F       1  UNL1       -0.2041
     20 C           7.5128   -5.4502   28.7408 C.ar    1  UNL1        0.0672
     21 C           7.6514   -5.6465   27.2602 C.ar    1  UNL1        0.1508
     22 O           6.9169   -4.7454   26.3121 O.2     1  UNL1       -0.4486
     23 C           3.5473   -0.6126   18.6105 C.3     1  UNL1        0.0991
     24 C          -0.0732    1.6606   20.0155 C.ar    1  UNL1        0.0503
     25 C           0.9002    2.3074   19.0753 C.ar    1  UNL1        0.0144
     26 C           2.1071    1.5497   18.6069 C.ar    1  UNL1       -0.0016
     27 C           2.3405    0.1451   19.0788 C.ar    1  UNL1       -0.0061
     28 C           1.3670   -0.5017   20.0190 C.ar    1  UNL1       -0.0016
     29 C           0.1602    0.2561   20.4873 C.ar    1  UNL1        0.0144
     30 C          -2.4201    3.9892   22.2108 C.3     1  UNL1        0.0949
     31 C          -1.2133    3.2315   21.7425 C.2     1  UNL1        0.2266
     32 O           0.0604    3.2869   22.5329 O.2     1  UNL1       -0.2748
     33 N          -1.2801    2.4184   20.4838 N.am    1  UNL1       -0.2839
     34 H          -2.1160    2.3820   19.9650 H       1  UNL1        0.1549
@<TRIPOS>BOND
     1    30    31    1
     2    31    32    2
     3    31    33   am
     4    33    24    1
     5    24    25   ar
     6    25    26   ar
     7    26    27   ar
     8    27    23    1
     9    23     1    1
    10     1     2    1
    11     2     3    1
    12     3     4    1
    13     4     7    1
    14     7     8   am
    15     8     9    2
    16     8    11    1
    17    11    12   ar
    18    12    13   ar
    19    13    14    2
    20    13    15   ar
    21    15    16   ar
    22    16    17   ar
    23    17    18   ar
    24    18    19    1
    25    18    20   ar
    26    20    21   ar
    27    21    22   ar
    28     4     5    1
    29     5     6    1
    30    27    28   ar
    31    28    29   ar
    32    29    24   ar
    33     6     1    1
    34    22    11   ar
    35    21    15   ar
    36    33    34    1
    37     7    10    1
@<TRIPOS>MOLECULE
*****
 34 37 0 0 0
SMALL
GASTEIGER

@<TRIPOS>ATOM
      1 N          -1.5273    3.3496   25.5805 N.3     1  UNL1       -0.2689
      2 C          -1.0886    4.0552   24.3317 C.3     1  UNL1        0.0741
      3 C          -0.0359    3.4438   23.4552 C.3     1  UNL1        0.0369
      4 C           0.5781    2.1269   23.8276 C.3     1  UNL1        0.0747
      5 C           0.1394    1.4213   25.0765 C.3     1  UNL1        0.0369
      6 C          -0.9132    2.0326   25.9529 C.3     1  UNL1        0.0741
      7 N           1.6307    1.5156   22.9511 N.am    1  UNL1       -0.2999
      8 C           1.2478    0.8960   21.6398 C.2     1  UNL1        0.2806
      9 O          -0.1878    0.8877   21.2050 O.2     1  UNL1       -0.2668
     10 H           2.5729    1.5211   23.2365 H       1  UNL1        0.1498
     11 C           2.3005    0.2847   20.7634 C.ar    1  UNL1        0.2014
     12 C           3.2589    1.1648   20.0170 C.ar    1  UNL1        0.0843
     13 C           4.3115    0.5535   19.1406 C.ar    1  UNL1        0.2018
     14 O           5.2699    1.4336   18.3943 O.2     1  UNL1       -0.2864
     15 C           4.4059   -0.9379   19.0104 C.ar    1  UNL1        0.0737
     16 C           5.4586   -1.5491   18.1340 C.ar    1  UNL1        0.0085
     17 C           5.5529   -3.0405   18.0039 C.ar    1  UNL1        0.0299
     18 C           4.5945   -3.9206   18.7502 C.ar    1  UNL1        0.1432
     19 F           4.6889   -5.4120   18.6200 F       1  UNL1       -0.2041
     20 C           3.5418   -3.3093   19.6266 C.ar    1  UNL1        0.0672
     21 C           3.4475   -1.8180   19.7567 C.ar    1  UNL1        0.1508
     22 O           2.3948   -1.2067   20.6332 O.2     1  UNL1       -0.4486
     23 C          -2.5799    3.9609   26.4570 C.3     1  UNL1        0.0991
     24 C          -6.3127    5.6811   24.6248 C.ar    1  UNL1        0.0503
     25 C          -5.3459    6.5781   25.3394 C.ar    1  UNL1        0.0144
     26 C          -4.1017    6.0047   25.9501 C.ar    1  UNL1       -0.0016
     27 C          -3.8242    4.5343   25.8463 C.ar    1  UNL1       -0.0061
     28 C          -4.7909    3.6373   25.1317 C.ar    1  UNL1       -0.0016
     29 C          -6.0352    4.2107   24.5210 C.ar    1  UNL1        0.0144
     30 C          -9.9892    7.1320   24.2672 C.3     1  UNL1        0.0949
     31 C          -8.7450    6.5586   24.8779 C.2     1  UNL1        0.2266
     32 O          -8.6887    6.2893   26.3525 O.2     1  UNL1       -0.2748
     33 N          -7.5570    6.2545   24.0141 N.am    1  UNL1       -0.2839
     34 H          -7.5939    6.4312   23.0463 H       1  UNL1        0.1549
@<TRIPOS>BOND
     1    30    31    1
     2    31    32    2
     3    31    33   am
     4    33    24    1
     5    24    25   ar
     6    25    26   ar
     7    26    27   ar
     8    27    23    1
     9    23     1    1
    10     1     2    1
    11     2     3    1
    12     3     4    1
    13     4     7    1
    14     7     8   am
    15     8     9    2
    16     8    11    1
    17    11    12   ar
    18    12    13   ar
    19    13    14    2
    20    13    15   ar
    21    15    16   ar
    22    16    17   ar
    23    17    18   ar
    24    18    19    1
    25    18    20   ar
    26    20    21   ar
    27    21    22   ar
    28     4     5    1
    29     5     6    1
    30    27    28   ar
    31    28    29   ar
    32    29    24   ar
    33     6     1    1
    34    22    11   ar
    35    21    15   ar
    36    33    34    1
    37     7    10    1
@<TRIPOS>MOLECULE
*****
 34 37 0 0 0
SMALL
GASTEIGER

@<TRIPOS>ATOM
      1 N           2.5028    0.8144   18.5657 N.3     1  UNL1       -0.2689
      2 C           1.6314   -0.1872   19.2639 C.3     1  UNL1        0.0741
      3 C           0.4652    0.2768   20.0854 C.3     1  UNL1        0.0369
      4 C           0.1703    1.7423   20.2085 C.3     1  UNL1        0.0747
      5 C           1.0416    2.7439   19.5102 C.3     1  UNL1        0.0369
      6 C           2.2078    2.2800   18.6888 C.3     1  UNL1        0.0741
      7 N          -0.9959    2.2063   21.0299 N.am    1  UNL1       -0.2999
      8 C          -2.0350    3.0995   20.4197 C.2     1  UNL1        0.2806
      9 O          -1.9080    3.5288   18.9881 O.2     1  UNL1       -0.2668
     10 H          -1.0793    1.9245   21.9695 H       1  UNL1        0.1498
     11 C          -3.2012    3.5634   21.2412 C.ar    1  UNL1        0.2014
     12 C          -4.4991    3.9089   20.5731 C.ar    1  UNL1        0.0843
     13 C          -5.6653    4.3728   21.3945 C.ar    1  UNL1        0.2018
     14 O          -6.9631    4.7182   20.7264 O.2     1  UNL1       -0.2864
     15 C          -5.5337    4.4912   22.8840 C.ar    1  UNL1        0.0737
     16 C          -6.6999    4.9551   23.7054 C.ar    1  UNL1        0.0085
     17 C          -6.5683    5.0736   25.1949 C.ar    1  UNL1        0.0299
     18 C          -5.2705    4.7281   25.8630 C.ar    1  UNL1        0.1432
     19 F          -5.1389    4.8466   27.3526 F       1  UNL1       -0.2041
     20 C          -4.1043    4.2642   25.0416 C.ar    1  UNL1        0.0672
     21 C          -4.2359    4.1458   23.5521 C.ar    1  UNL1        0.1508
     22 O          -3.0696    3.6818   22.7306 O.2     1  UNL1       -0.4486
     23 C           3.6689    0.3505   17.7443 C.3     1  UNL1        0.0991
     24 C           6.7897   -2.3240   19.5768 C.ar    1  UNL1        0.0503
     25 C           5.9672   -2.8132   18.4217 C.ar    1  UNL1        0.0144
     26 C           4.9270   -1.9217   17.8109 C.ar    1  UNL1       -0.0016
     27 C           4.7092   -0.5410   18.3551 C.ar    1  UNL1       -0.0061
     28 C           5.5317   -0.0518   19.5101 C.ar    1  UNL1       -0.0016
     29 C           6.5720   -0.9433   20.1209 C.ar    1  UNL1        0.0144
     30 C           8.4956   -5.0481   21.9047 C.3     1  UNL1        0.0949
     31 C           7.4554   -4.1566   21.2939 C.2     1  UNL1        0.2266
     32 O           6.0404   -4.2062   21.7894 O.2     1  UNL1       -0.2748
     33 N           7.8300   -3.2155   20.1876 N.am    1  UNL1       -0.2839
     34 H           8.7587   -3.1829   19.8624 H       1  UNL1        0.1549
@<TRIPOS>BOND
     1    30    31    1
     2    31    32    2
     3    31    33   am
     4    33    24    1
     5    24    25   ar
     6    25    26   ar
     7    26    27   ar
     8    27    23    1
     9    23     1    1
    10     1     2    1
    11     2     3    1
    12     3     4    1
    13     4     7    1
    14     7     8   am
    15     8     9    2
    16     8    11    1
    17    11    12   ar
    18    12    13   ar
    19    13    14    2
    20    13    15   ar
    21    15    16   ar
    22    16    17   ar
    23    17    18   ar
    24    18    19    1
    25    18    20   ar
    26    20    21   ar
    27    21    22   ar
    28     4     5    1
    29     5     6    1
    30    27    28   ar
    31    28    29   ar
    32    29    24   ar
    33     6     1    1
    34    22    11   ar
    35    21    15   ar
    36    33    34    1
    37     7    10    1
@<TRIPOS>MOLECULE
*****
 34 37 0 0 0
SMALL
GASTEIGER

@<TRIPOS>ATOM
      1 N           2.1936    0.5565   18.5968 N.3     1  UNL1       -0.2689
      2 C           1.4168   -0.2843   19.5662 C.3     1  UNL1        0.0741
      3 C           0.3119    0.3298   20.3739 C.3     1  UNL1        0.0369
      4 C          -0.0161    1.7845   20.2122 C.3     1  UNL1        0.0747
      5 C           0.7608    2.6252   19.2429 C.3     1  UNL1        0.0369
      6 C           1.8656    2.0113   18.4352 C.3     1  UNL1        0.0741
      7 N          -1.1209    2.3984   21.0199 N.am    1  UNL1       -0.2999
      8 C          -0.8019    3.1476   22.2797 C.2     1  UNL1        0.2806
      9 O           0.6219    3.2827   22.7318 O.2     1  UNL1       -0.2668
     10 H          -2.0554    2.3097   20.7232 H       1  UNL1        0.1498
     11 C          -1.9068    3.7615   23.0874 C.ar    1  UNL1        0.2014
     12 C          -1.5808    4.6223   24.2718 C.ar    1  UNL1        0.0843
     13 C          -2.6857    5.2362   25.0795 C.ar    1  UNL1        0.2018
     14 O          -2.3597    6.0970   26.2639 O.2     1  UNL1       -0.2864
     15 C          -4.1165    4.9895   24.7028 C.ar    1  UNL1        0.0737
     16 C          -5.2213    5.6034   25.5105 C.ar    1  UNL1        0.0085
     17 C          -6.6521    5.3566   25.1337 C.ar    1  UNL1        0.0299
     18 C          -6.9780    4.4958   23.9493 C.ar    1  UNL1        0.1432
     19 F          -8.4089    4.2490   23.5726 F       1  UNL1       -0.2041
     20 C          -5.8732    3.8819   23.1416 C.ar    1  UNL1        0.0672
     21 C          -4.4424    4.1287   23.5184 C.ar    1  UNL1        0.1508
     22 O          -3.3375    3.5147   22.7107 O.2     1  UNL1       -0.4486
     23 C           3.2984   -0.0575   17.7892 C.3     1  UNL1        0.0991
     24 C           6.5780   -2.3546   19.8428 C.ar    1  UNL1        0.0503
     25 C           5.8436   -2.9671   18.6872 C.ar    1  UNL1        0.0144
     26 C           4.7504   -2.2013   18.0026 C.ar    1  UNL1       -0.0016
     27 C           4.3916   -0.8232   18.4737 C.ar    1  UNL1       -0.0061
     28 C           5.1261   -0.2108   19.6293 C.ar    1  UNL1       -0.0016
     29 C           6.2193   -0.9765   20.3138 C.ar    1  UNL1        0.0144
     30 C           8.4285   -4.8613   22.3009 C.3     1  UNL1        0.0949
     31 C           7.3353   -4.0956   21.6163 C.2     1  UNL1        0.2266
     32 O           5.9061   -4.3052   22.0209 O.2     1  UNL1       -0.2748
     33 N           7.6712   -3.1204   20.5273 N.am    1  UNL1       -0.2839
     34 H           8.6092   -2.9828   20.2618 H       1  UNL1        0.1549
@<TRIPOS>BOND
     1    30    31    1
     2    31    32    2
     3    31    33   am
     4    33    24    1
     5    24    25   ar
     6    25    26   ar
     7    26    27   ar
     8    27    23    1
     9    23     1    1
    10     1     2    1
    11     2     3    1
    12     3     4    1
    13     4     7    1
    14     7     8   am
    15     8     9    2
    16     8    11    1
    17    11    12   ar
    18    12    13   ar
    19    13    14    2
    20    13    15   ar
    21    15    16   ar
    22    16    17   ar
    23    17    18   ar
    24    18    19    1
    25    18    20   ar
    26    20    21   ar
    27    21    22   ar
    28     4     5    1
    29     5     6    1
    30    27    28   ar
    31    28    29   ar
    32    29    24   ar
    33     6     1    1
    34    22    11   ar
    35    21    15   ar
    36    33    34    1
    37     7    10    1
@<TRIPOS>MOLECULE
*****
 34 37 0 0 0
SMALL
GASTEIGER

@<TRIPOS>ATOM
      1 N          -1.1188    3.6860   27.1082 N.3     1  UNL1       -0.2689
      2 C          -1.2560    2.2042   26.9194 C.3     1  UNL1        0.0741
      3 C          -0.4093    1.2639   27.7251 C.3     1  UNL1        0.0369
      4 C           0.5745    1.8054   28.7195 C.3     1  UNL1        0.0747
      5 C           0.7117    3.2871   28.9083 C.3     1  UNL1        0.0369
      6 C          -0.1349    4.2274   28.1027 C.3     1  UNL1        0.0741
      7 N           1.4211    0.8651   29.5252 N.am    1  UNL1       -0.2999
      8 C           2.8596    0.6498   29.1586 C.2     1  UNL1        0.2806
      9 O           3.4515    1.3748   27.9865 O.2     1  UNL1       -0.2668
     10 H           1.0326    0.3893   30.2945 H       1  UNL1        0.1498
     11 C           3.7062   -0.2905   29.9644 C.ar    1  UNL1        0.2014
     12 C           3.3144   -0.6346   31.3708 C.ar    1  UNL1        0.0843
     13 C           4.1609   -1.5749   32.1765 C.ar    1  UNL1        0.2018
     14 O           3.7691   -1.9189   33.5829 O.2     1  UNL1       -0.2864
     15 C           5.3994   -2.1711   31.5758 C.ar    1  UNL1        0.0737
     16 C           6.2459   -3.1114   32.3815 C.ar    1  UNL1        0.0085
     17 C           7.4843   -3.7076   31.7807 C.ar    1  UNL1        0.0299
     18 C           7.8761   -3.3635   30.3743 C.ar    1  UNL1        0.1432
     19 F           9.1145   -3.9598   29.7736 F       1  UNL1       -0.2041
     20 C           7.0296   -2.4233   29.5686 C.ar    1  UNL1        0.0672
     21 C           5.7912   -1.8271   30.1693 C.ar    1  UNL1        0.1508
     22 O           4.9446   -0.8867   29.3636 O.2     1  UNL1       -0.4486
     23 C          -1.9654    4.6262   26.3025 C.3     1  UNL1        0.0991
     24 C          -3.9063    3.2085   22.4982 C.ar    1  UNL1        0.0503
     25 C          -4.6964    3.2512   23.7726 C.ar    1  UNL1        0.0144
     26 C          -4.0494    3.7238   25.0407 C.ar    1  UNL1       -0.0016
     27 C          -2.6124    4.1536   25.0344 C.ar    1  UNL1       -0.0061
     28 C          -1.8223    4.1109   23.7601 C.ar    1  UNL1       -0.0016
     29 C          -2.4693    3.6383   22.4920 C.ar    1  UNL1        0.0144
     30 C          -5.9312    3.2363   19.0852 C.3     1  UNL1        0.0949
     31 C          -5.2842    3.7089   20.3533 C.2     1  UNL1        0.2266
     32 O          -5.3681    5.1546   20.7445 O.2     1  UNL1       -0.2748
     33 N          -4.5533    2.7359   21.2301 N.am    1  UNL1       -0.2839
     34 H          -4.4982    1.7870   20.9734 H       1  UNL1        0.1549
@<TRIPOS>BOND
     1    30    31    1
     2    31    32    2
     3    31    33   am
     4    33    24    1
     5    24    25   ar
     6    25    26   ar
     7    26    27   ar
     8    27    23    1
     9    23     1    1
    10     1     2    1
    11     2     3    1
    12     3     4    1
    13     4     7    1
    14     7     8   am
    15     8     9    2
    16     8    11    1
    17    11    12   ar
    18    12    13   ar
    19    13    14    2
    20    13    15   ar
    21    15    16   ar
    22    16    17   ar
    23    17    18   ar
    24    18    19    1
    25    18    20   ar
    26    20    21   ar
    27    21    22   ar
    28     4     5    1
    29     5     6    1
    30    27    28   ar
    31    28    29   ar
    32    29    24   ar
    33     6     1    1
    34    22    11   ar
    35    21    15   ar
    36    33    34    1
    37     7    10    1
@<TRIPOS>MOLECULE
*****
 34 37 0 0 0
SMALL
GASTEIGER

@<TRIPOS>ATOM
      1 N           3.7940   -1.3536   19.4440 N.3     1  UNL1       -0.2689
      2 C           3.9063   -0.6413   20.7593 C.3     1  UNL1        0.0741
      3 C           4.3117   -1.3976   21.9896 C.3     1  UNL1        0.0369
      4 C           4.6048   -2.8662   21.9047 C.3     1  UNL1        0.0747
      5 C           4.4925   -3.5786   20.5894 C.3     1  UNL1        0.0369
      6 C           4.0871   -2.8223   19.3591 C.3     1  UNL1        0.0741
      7 N           5.0103   -3.6225   23.1350 N.am    1  UNL1       -0.2999
      8 C           6.4629   -3.7796   23.4741 C.2     1  UNL1        0.2806
      9 O           7.5102   -3.1804   22.5829 O.2     1  UNL1       -0.2668
     10 H           4.3229   -4.0157   23.7199 H       1  UNL1        0.1498
     11 C           6.8683   -4.5358   24.7045 C.ar    1  UNL1        0.2014
     12 C           7.6542   -5.8073   24.5784 C.ar    1  UNL1        0.0843
     13 C           8.0596   -6.5636   25.8087 C.ar    1  UNL1        0.2018
     14 O           8.8455   -7.8350   25.6826 O.2     1  UNL1       -0.2864
     15 C           7.6791   -6.0484   27.1651 C.ar    1  UNL1        0.0737
     16 C           8.0845   -6.8047   28.3954 C.ar    1  UNL1        0.0085
     17 C           7.7040   -6.2896   29.7518 C.ar    1  UNL1        0.0299
     18 C           6.9182   -5.0181   29.8779 C.ar    1  UNL1        0.1432
     19 F           6.5377   -4.5030   31.2344 F       1  UNL1       -0.2041
     20 C           6.5128   -4.2619   28.6476 C.ar    1  UNL1        0.0672
     21 C           6.8933   -4.7770   27.2912 C.ar    1  UNL1        0.1508
     22 O           6.4879   -4.0207   26.0609 O.2     1  UNL1       -0.4486
     23 C           3.3885   -0.5974   18.2137 C.3     1  UNL1        0.0991
     24 C           1.1729    3.3006   18.5966 C.ar    1  UNL1        0.0503
     25 C           2.6596    3.2994   18.3975 C.ar    1  UNL1        0.0144
     26 C           3.3982    2.0000   18.2698 C.ar    1  UNL1       -0.0016
     27 C           2.6500    0.7019   18.3413 C.ar    1  UNL1       -0.0061
     28 C           1.1633    0.7032   18.5405 C.ar    1  UNL1       -0.0016
     29 C           0.4248    2.0025   18.6681 C.ar    1  UNL1        0.0144
     30 C          -1.3024    6.3003   17.8067 C.3     1  UNL1        0.0949
     31 C          -0.5639    5.0010   17.6790 C.2     1  UNL1        0.2266
     32 O          -0.8237    4.1027   16.5061 O.2     1  UNL1       -0.2748
     33 N           0.4344    4.5999   18.7242 N.am    1  UNL1       -0.2839
     34 H           0.6049    5.1895   19.4940 H       1  UNL1        0.1549
@<TRIPOS>BOND
     1    30    31    1
     2    31    32    2
     3    31    33   am
     4    33    24    1
     5    24    25   ar
     6    25    26   ar
     7    26    27   ar
     8    27    23    1
     9    23     1    1
    10     1     2    1
    11     2     3    1
    12     3     4    1
    13     4     7    1
    14     7     8   am
    15     8     9    2
    16     8    11    1
    17    11    12   ar
    18    12    13   ar
    19    13    14    2
    20    13    15   ar
    21    15    16   ar
    22    16    17   ar
    23    17    18   ar
    24    18    19    1
    25    18    20   ar
    26    20    21   ar
    27    21    22   ar
    28     4     5    1
    29     5     6    1
    30    27    28   ar
    31    28    29   ar
    32    29    24   ar
    33     6     1    1
    34    22    11   ar
    35    21    15   ar
    36    33    34    1
    37     7    10    1
