@<TRIPOS>MOLECULE
*****
 31 34 0 0 0
SMALL
GASTEIGER

@<TRIPOS>ATOM
      1 C           8.5960   -6.0232   24.5718 C.ar    1  UNL1        0.1104
      2 C           9.5345   -7.1916   24.5079 C.ar    1  UNL1        0.0185
      3 C           9.4128   -8.3068   25.5036 C.ar    1  UNL1       -0.0013
      4 C           8.3525   -8.2536   26.5633 C.ar    1  UNL1       -0.0025
      5 C           7.4140   -7.0853   26.6273 C.ar    1  UNL1       -0.0013
      6 C           7.5357   -5.9700   25.6315 C.ar    1  UNL1        0.0185
      7 S           8.7178   -4.9080   23.5761 S.O2    1  UNL1        0.0305
      8 O           9.2146   -3.9959   24.6583 O.2     1  UNL1       -0.1641
      9 O           8.2210   -5.8201   22.4938 O.2     1  UNL1       -0.1641
     10 N           8.7320   -2.5178   20.5180 N.ar    1  UNL1       -0.2481
     11 C           8.4339   -3.8510   21.1374 C.ar    1  UNL1        0.1154
     12 C           8.8396   -3.7928   22.5804 C.ar    1  UNL1        0.1497
     13 C           9.3884   -2.4237   22.8527 C.ar    1  UNL1        0.1404
     14 N           9.3219   -1.6357   21.5781 N.ar    1  UNL1       -0.1662
     15 C           8.4838   -2.1341   19.0893 C.3     1  UNL1        0.1276
     16 C           6.3453   -1.1921   17.9536 C.3     1  UNL1        0.0021
     17 C           7.1328   -2.3567   18.4768 C.3     1  UNL1        0.0264
     18 C           8.2307   -9.3689   27.5591 C.3     1  UNL1        0.1167
     19 N           6.9200  -10.0764   27.7361 N.am    1  UNL1       -0.2944
     20 C           6.8917  -11.5613   27.9462 C.2     1  UNL1        0.2808
     21 O           8.1741  -12.3387   27.9793 O.2     1  UNL1       -0.2668
     22 H           6.0783   -9.5662   27.7144 H       1  UNL1        0.1501
     23 C           5.5809  -12.2689   28.1233 C.ar    1  UNL1        0.1984
     24 C           4.4542  -11.8288   29.0102 C.ar    1  UNL1        0.0453
     25 C           3.3437  -12.8286   28.8796 C.ar    1  UNL1        0.0409
     26 C           1.9883  -12.9123   29.5168 C.ar    1  UNL1        0.0238
     27 C           1.0735  -14.0541   29.1863 C.ar    1  UNL1        0.0991
     28 N           1.5139  -15.1122   28.2186 N.ar    1  UNL1       -0.2391
     29 C           2.8693  -15.0286   27.5815 C.ar    1  UNL1        0.1362
     30 C           3.7841  -13.8868   27.9120 C.ar    1  UNL1        0.1646
     31 O           5.1668  -13.5408   27.4445 O.2     1  UNL1       -0.4473
@<TRIPOS>BOND
     1    16    17    1
     2    17    15    1
     3    15    10    1
     4    10    11   ar
     5    11    12   ar
     6    12     7    1
     7     7     8    2
     8     7     9    2
     9     7     1    1
    10     1     2   ar
    11     2     3   ar
    12     3     4   ar
    13     4    18    1
    14    18    19    1
    15    19    20   am
    16    20    21    2
    17    20    23    1
    18    23    24   ar
    19    24    25   ar
    20    25    26   ar
    21    26    27   ar
    22    27    28   ar
    23    28    29   ar
    24    29    30   ar
    25    30    31   ar
    26     4     5   ar
    27     5     6   ar
    28    12    13   ar
    29    13    14   ar
    30    14    10   ar
    31     6     1   ar
    32    31    23   ar
    33    30    25   ar
    34    19    22    1
@<TRIPOS>MOLECULE
*****
 31 34 0 0 0
SMALL
GASTEIGER

@<TRIPOS>ATOM
      1 C           8.3851   -5.2262   26.0816 C.ar    1  UNL1        0.1104
      2 C           8.3739   -6.3631   25.1032 C.ar    1  UNL1        0.0185
      3 C           8.3157   -7.7779   25.5980 C.ar    1  UNL1       -0.0013
      4 C           8.2687   -8.0559   27.0713 C.ar    1  UNL1       -0.0025
      5 C           8.2799   -6.9190   28.0497 C.ar    1  UNL1       -0.0013
      6 C           8.3381   -5.5041   27.5549 C.ar    1  UNL1        0.0185
      7 S           8.4432   -3.8114   25.5868 S.O2    1  UNL1        0.0305
      8 O           8.0939   -4.2802   24.2054 O.2     1  UNL1       -0.1641
      9 O           8.7926   -3.3426   26.9681 O.2     1  UNL1       -0.1641
     10 N           7.9735   -0.3371   23.9213 N.ar    1  UNL1       -0.2481
     11 C           7.5366   -1.7554   24.1390 C.ar    1  UNL1        0.1154
     12 C           8.5014   -2.3966   25.0920 C.ar    1  UNL1        0.1497
     13 C           9.5346   -1.3745   25.4632 C.ar    1  UNL1        0.1404
     14 N           9.2084   -0.1017   24.7397 N.ar    1  UNL1       -0.1662
     15 C           7.2947    0.6691   23.0399 C.3     1  UNL1        0.1276
     16 C           6.5061   -0.3312   20.7756 C.3     1  UNL1        0.0021
     17 C           6.1862    0.2386   22.1257 C.3     1  UNL1        0.0264
     18 C           8.2106   -9.4708   27.5661 C.3     1  UNL1        0.1167
     19 N           6.8865  -10.1605   27.7117 N.am    1  UNL1       -0.2944
     20 C           6.8349  -11.6213   28.0482 C.2     1  UNL1        0.2808
     21 O           8.1072  -12.3924   28.2392 O.2     1  UNL1       -0.2668
     22 H           6.0514   -9.6545   27.5863 H       1  UNL1        0.1501
     23 C           5.5109  -12.3111   28.1938 C.ar    1  UNL1        0.1984
     24 C           4.4074  -11.9130   29.1286 C.ar    1  UNL1        0.0453
     25 C           3.2723  -12.8759   28.9427 C.ar    1  UNL1        0.0409
     26 C           1.9247  -12.9766   29.5936 C.ar    1  UNL1        0.0238
     27 C           0.9791  -14.0706   29.1948 C.ar    1  UNL1        0.0991
     28 N           1.3812  -15.0639   28.1452 N.ar    1  UNL1       -0.2391
     29 C           2.7288  -14.9632   27.4943 C.ar    1  UNL1        0.1362
     30 C           3.6744  -13.8692   27.8930 C.ar    1  UNL1        0.1646
     31 O           5.0578  -13.5201   27.4302 O.2     1  UNL1       -0.4473
@<TRIPOS>BOND
     1    16    17    1
     2    17    15    1
     3    15    10    1
     4    10    11   ar
     5    11    12   ar
     6    12     7    1
     7     7     8    2
     8     7     9    2
     9     7     1    1
    10     1     2   ar
    11     2     3   ar
    12     3     4   ar
    13     4    18    1
    14    18    19    1
    15    19    20   am
    16    20    21    2
    17    20    23    1
    18    23    24   ar
    19    24    25   ar
    20    25    26   ar
    21    26    27   ar
    22    27    28   ar
    23    28    29   ar
    24    29    30   ar
    25    30    31   ar
    26     4     5   ar
    27     5     6   ar
    28    12    13   ar
    29    13    14   ar
    30    14    10   ar
    31     6     1   ar
    32    31    23   ar
    33    30    25   ar
    34    19    22    1
@<TRIPOS>MOLECULE
*****
 31 34 0 0 0
SMALL
GASTEIGER

@<TRIPOS>ATOM
      1 C           6.6103   -4.0614   27.4106 C.ar    1  UNL1        0.1104
      2 C           6.7601   -5.3309   28.1954 C.ar    1  UNL1        0.0185
      3 C           6.7895   -5.2870   29.6945 C.ar    1  UNL1       -0.0013
      4 C           6.6690   -3.9735   30.4088 C.ar    1  UNL1       -0.0025
      5 C           6.5192   -2.7040   29.6241 C.ar    1  UNL1       -0.0013
      6 C           6.4898   -2.7479   28.1250 C.ar    1  UNL1        0.0185
      7 S           6.5809   -4.1053   25.9116 S.O2    1  UNL1        0.0305
      8 O           6.8705   -5.5766   25.9491 O.2     1  UNL1       -0.1641
      9 O           6.2913   -2.6341   25.8741 O.2     1  UNL1       -0.1641
     10 N           5.8963   -3.7805   22.1049 N.ar    1  UNL1       -0.2481
     11 C           5.5474   -3.4689   23.5300 C.ar    1  UNL1        0.1154
     12 C           6.5515   -4.1493   24.4126 C.ar    1  UNL1        0.1497
     13 C           7.5211   -4.8814   23.5328 C.ar    1  UNL1        0.1404
     14 N           7.1162   -4.6535   22.1066 N.ar    1  UNL1       -0.1662
     15 C           5.1556   -3.3030   20.8911 C.3     1  UNL1        0.1276
     16 C           4.5337   -4.8483   18.8973 C.3     1  UNL1        0.0021
     17 C           4.1756   -4.2087   20.2060 C.3     1  UNL1        0.0264
     18 C           6.6984   -3.9296   31.9079 C.3     1  UNL1        0.1167
     19 N           5.8071   -2.9766   32.6479 N.am    1  UNL1       -0.2944
     20 C           6.3612   -1.6853   33.1727 C.2     1  UNL1        0.2808
     21 O           7.8066   -1.3469   32.9574 O.2     1  UNL1       -0.2668
     22 H           4.8585   -3.1988   32.7892 H       1  UNL1        0.1501
     23 C           5.4700   -0.7324   33.9127 C.ar    1  UNL1        0.1984
     24 C           5.4256   -0.5408   35.3997 C.ar    1  UNL1        0.0453
     25 C           4.3948    0.5062   35.7016 C.ar    1  UNL1        0.0409
     26 C           3.9193    1.1037   36.9927 C.ar    1  UNL1        0.0238
     27 C           2.8511    2.1567   36.9833 C.ar    1  UNL1        0.0991
     28 N           2.2584    2.6122   35.6828 N.ar    1  UNL1       -0.2391
     29 C           2.7339    2.0148   34.3918 C.ar    1  UNL1        0.1362
     30 C           3.8021    0.9618   34.4012 C.ar    1  UNL1        0.1646
     31 O           4.4666    0.1962   33.2956 O.2     1  UNL1       -0.4473
@<TRIPOS>BOND
     1    16    17    1
     2    17    15    1
     3    15    10    1
     4    10    11   ar
     5    11    12   ar
     6    12     7    1
     7     7     8    2
     8     7     9    2
     9     7     1    1
    10     1     2   ar
    11     2     3   ar
    12     3     4   ar
    13     4    18    1
    14    18    19    1
    15    19    20   am
    16    20    21    2
    17    20    23    1
    18    23    24   ar
    19    24    25   ar
    20    25    26   ar
    21    26    27   ar
    22    27    28   ar
    23    28    29   ar
    24    29    30   ar
    25    30    31   ar
    26     4     5   ar
    27     5     6   ar
    28    12    13   ar
    29    13    14   ar
    30    14    10   ar
    31     6     1   ar
    32    31    23   ar
    33    30    25   ar
    34    19    22    1
@<TRIPOS>MOLECULE
*****
 31 34 0 0 0
SMALL
GASTEIGER

@<TRIPOS>ATOM
      1 C           2.0533    0.1450   19.1480 C.ar    1  UNL1        0.1104
      2 C           3.0532    0.1741   18.0302 C.ar    1  UNL1        0.0185
      3 C           4.1042   -0.8920   17.9361 C.ar    1  UNL1       -0.0013
      4 C           4.1553   -1.9872   18.9597 C.ar    1  UNL1       -0.0025
      5 C           3.1555   -2.0164   20.0774 C.ar    1  UNL1       -0.0013
      6 C           2.1044   -0.9503   20.1716 C.ar    1  UNL1        0.0185
      7 S           1.0024    1.2111   19.2422 S.O2    1  UNL1        0.0305
      8 O           1.8108    2.0883   18.3329 O.2     1  UNL1       -0.1641
      9 O           0.1939    0.3338   20.1514 O.2     1  UNL1       -0.1641
     10 N          -1.8783    3.6494   20.1487 N.ar    1  UNL1       -0.2481
     11 C          -1.0100    2.4697   20.4716 C.ar    1  UNL1        0.1154
     12 C          -0.0486    2.2771   19.3363 C.ar    1  UNL1        0.1497
     13 C          -0.3227    3.3379   18.3118 C.ar    1  UNL1        0.1404
     14 N          -1.4535    4.1860   18.8138 N.ar    1  UNL1       -0.1662
     15 C          -2.9782    4.1965   21.0094 C.3     1  UNL1        0.1276
     16 C          -4.8605    3.0535   22.3879 C.3     1  UNL1        0.0021
     17 C          -4.3036    3.4966   21.0675 C.3     1  UNL1        0.0264
     18 C           5.2063   -3.0534   18.8654 C.3     1  UNL1        0.1167
     19 N           5.5696   -3.8576   20.0784 N.am    1  UNL1       -0.2944
     20 C           6.5075   -3.2894   21.1017 C.2     1  UNL1        0.2808
     21 O           7.0822   -1.9169   20.9122 O.2     1  UNL1       -0.2668
     22 H           5.1924   -4.7585   20.2027 H       1  UNL1        0.1501
     23 C           6.8708   -4.0937   22.3147 C.ar    1  UNL1        0.1984
     24 C           6.4324   -3.8142   23.7217 C.ar    1  UNL1        0.0453
     25 C           7.0269   -4.8664   24.6101 C.ar    1  UNL1        0.0409
     26 C           6.9386   -5.0980   26.0895 C.ar    1  UNL1        0.0238
     27 C           7.6561   -6.2595   26.7109 C.ar    1  UNL1        0.0991
     28 N           8.4619   -7.1893   25.8530 N.ar    1  UNL1       -0.2391
     29 C           8.5502   -6.9578   24.3736 C.ar    1  UNL1        0.1362
     30 C           7.8327   -5.7963   23.7522 C.ar    1  UNL1        0.1646
     31 O           7.7362   -5.3187   22.3336 O.2     1  UNL1       -0.4473
@<TRIPOS>BOND
     1    16    17    1
     2    17    15    1
     3    15    10    1
     4    10    11   ar
     5    11    12   ar
     6    12     7    1
     7     7     8    2
     8     7     9    2
     9     7     1    1
    10     1     2   ar
    11     2     3   ar
    12     3     4   ar
    13     4    18    1
    14    18    19    1
    15    19    20   am
    16    20    21    2
    17    20    23    1
    18    23    24   ar
    19    24    25   ar
    20    25    26   ar
    21    26    27   ar
    22    27    28   ar
    23    28    29   ar
    24    29    30   ar
    25    30    31   ar
    26     4     5   ar
    27     5     6   ar
    28    12    13   ar
    29    13    14   ar
    30    14    10   ar
    31     6     1   ar
    32    31    23   ar
    33    30    25   ar
    34    19    22    1
@<TRIPOS>MOLECULE
*****
 31 34 0 0 0
SMALL
GASTEIGER

@<TRIPOS>ATOM
      1 C           0.7922    1.2192   19.5174 C.ar    1  UNL1        0.1104
      2 C           0.7578    0.0467   20.4524 C.ar    1  UNL1        0.0185
      3 C           1.8368   -0.9935   20.3909 C.ar    1  UNL1       -0.0013
      4 C           2.9501   -0.8612   19.3944 C.ar    1  UNL1       -0.0025
      5 C           2.9845    0.3112   18.4595 C.ar    1  UNL1       -0.0013
      6 C           1.9056    1.3515   18.5209 C.ar    1  UNL1        0.0185
      7 S          -0.2867    2.2594   19.5789 S.O2    1  UNL1        0.0305
      8 O           0.0869    2.7283   18.2040 O.2     1  UNL1       -0.1641
      9 O          -0.6604    1.7905   20.9539 O.2     1  UNL1       -0.1641
     10 N          -3.4221    4.4623   20.1975 N.ar    1  UNL1       -0.2481
     11 C          -2.6406    3.2022   20.4248 C.ar    1  UNL1        0.1154
     12 C          -1.3657    3.2996   19.6405 C.ar    1  UNL1        0.1497
     13 C          -1.3592    4.6198   18.9285 C.ar    1  UNL1        0.1404
     14 N          -2.6300    5.3384   19.2727 N.ar    1  UNL1       -0.1662
     15 C          -4.7604    4.7888   20.7908 C.3     1  UNL1        0.1276
     16 C          -6.0098    3.4095   18.9780 C.3     1  UNL1        0.0021
     17 C          -5.9837    4.0509   20.3336 C.3     1  UNL1        0.0264
     18 C           4.0291   -1.9015   19.3330 C.3     1  UNL1        0.1167
     19 N           4.8512   -2.2022   20.5510 N.am    1  UNL1       -0.2944
     20 C           4.8586   -3.5869   21.1278 C.2     1  UNL1        0.2808
     21 O           4.0439   -4.6708   20.4865 O.2     1  UNL1       -0.2668
     22 H           5.3860   -1.4908   20.9719 H       1  UNL1        0.1501
     23 C           5.6807   -3.8876   22.3459 C.ar    1  UNL1        0.1984
     24 C           5.4458   -3.3446   23.7243 C.ar    1  UNL1        0.0453
     25 C           6.5020   -3.9055   24.6297 C.ar    1  UNL1        0.0409
     26 C           6.7701   -3.7211   26.0940 C.ar    1  UNL1        0.0238
     27 C           7.9259   -4.4264   26.7394 C.ar    1  UNL1        0.0991
     28 N           8.8137   -5.3160   25.9206 N.ar    1  UNL1       -0.2391
     29 C           8.5456   -5.5004   24.4563 C.ar    1  UNL1        0.1362
     30 C           7.3897   -4.7952   23.8109 C.ar    1  UNL1        0.1646
     31 O           6.8822   -4.7841   22.3994 O.2     1  UNL1       -0.4473
@<TRIPOS>BOND
     1    16    17    1
     2    17    15    1
     3    15    10    1
     4    10    11   ar
     5    11    12   ar
     6    12     7    1
     7     7     8    2
     8     7     9    2
     9     7     1    1
    10     1     2   ar
    11     2     3   ar
    12     3     4   ar
    13     4    18    1
    14    18    19    1
    15    19    20   am
    16    20    21    2
    17    20    23    1
    18    23    24   ar
    19    24    25   ar
    20    25    26   ar
    21    26    27   ar
    22    27    28   ar
    23    28    29   ar
    24    29    30   ar
    25    30    31   ar
    26     4     5   ar
    27     5     6   ar
    28    12    13   ar
    29    13    14   ar
    30    14    10   ar
    31     6     1   ar
    32    31    23   ar
    33    30    25   ar
    34    19    22    1
@<TRIPOS>MOLECULE
*****
 31 34 0 0 0
SMALL
GASTEIGER

@<TRIPOS>ATOM
      1 C         -13.5326   -1.2482   18.8701 C.ar    1  UNL1        0.1104
      2 C         -13.3317    0.1549   18.3789 C.ar    1  UNL1        0.0185
      3 C         -14.3883    1.1921   18.6191 C.ar    1  UNL1       -0.0013
      4 C         -15.6458    0.8264   19.3505 C.ar    1  UNL1       -0.0025
      5 C         -15.8467   -0.5766   19.8417 C.ar    1  UNL1       -0.0013
      6 C         -14.7901   -1.6139   19.6015 C.ar    1  UNL1        0.0185
      7 S         -12.4760   -2.2854   18.6300 S.O2    1  UNL1        0.0305
      8 O         -11.4866   -1.2038   18.3115 O.2     1  UNL1       -0.1641
      9 O         -13.4653   -3.3669   18.9484 O.2     1  UNL1       -0.1641
     10 N         -10.1119   -5.3623   18.5344 N.ar    1  UNL1       -0.2481
     11 C         -11.3137   -4.6499   19.0805 C.ar    1  UNL1        0.1154
     12 C         -11.4194   -3.3226   18.3898 C.ar    1  UNL1        0.1497
     13 C         -10.2829   -3.2146   17.4168 C.ar    1  UNL1        0.1404
     14 N          -9.4749   -4.4752   17.5061 N.ar    1  UNL1       -0.1662
     15 C          -9.6315   -6.7228   18.9444 C.3     1  UNL1        0.1276
     16 C         -11.1101   -7.8107   17.1059 C.3     1  UNL1        0.0021
     17 C         -10.0635   -7.9347   18.1732 C.3     1  UNL1        0.0264
     18 C         -16.7024    1.8637   19.5906 C.3     1  UNL1        0.1167
     19 N         -16.5506    2.8420   20.7174 N.am    1  UNL1       -0.2944
     20 C         -17.2303    2.5859   22.0298 C.2     1  UNL1        0.2808
     21 O         -18.0619    1.3515   22.2154 O.2     1  UNL1       -0.2668
     22 H         -16.0047    3.6523   20.5956 H       1  UNL1        0.1501
     23 C         -17.0784    3.5643   23.1566 C.ar    1  UNL1        0.1984
     24 C         -15.8061    4.2435   23.5692 C.ar    1  UNL1        0.0453
     25 C         -16.1135    5.1342   24.7362 C.ar    1  UNL1        0.0409
     26 C         -15.2509    6.0458   25.5577 C.ar    1  UNL1        0.0238
     27 C         -15.8505    6.8288   26.6879 C.ar    1  UNL1        0.0991
     28 N         -17.3127    6.7002   26.9967 N.ar    1  UNL1       -0.2391
     29 C         -18.1753    5.7886   26.1752 C.ar    1  UNL1        0.1362
     30 C         -17.5758    5.0056   25.0450 C.ar    1  UNL1        0.1646
     31 O         -18.1720    4.0354   24.0688 O.2     1  UNL1       -0.4473
@<TRIPOS>BOND
     1    16    17    1
     2    17    15    1
     3    15    10    1
     4    10    11   ar
     5    11    12   ar
     6    12     7    1
     7     7     8    2
     8     7     9    2
     9     7     1    1
    10     1     2   ar
    11     2     3   ar
    12     3     4   ar
    13     4    18    1
    14    18    19    1
    15    19    20   am
    16    20    21    2
    17    20    23    1
    18    23    24   ar
    19    24    25   ar
    20    25    26   ar
    21    26    27   ar
    22    27    28   ar
    23    28    29   ar
    24    29    30   ar
    25    30    31   ar
    26     4     5   ar
    27     5     6   ar
    28    12    13   ar
    29    13    14   ar
    30    14    10   ar
    31     6     1   ar
    32    31    23   ar
    33    30    25   ar
    34    19    22    1
@<TRIPOS>MOLECULE
*****
 31 34 0 0 0
SMALL
GASTEIGER

@<TRIPOS>ATOM
      1 C           2.5133   -0.4614   19.6242 C.ar    1  UNL1        0.1104
      2 C           1.2147   -0.4981   20.3742 C.ar    1  UNL1        0.0185
      3 C           0.2269    0.6199   20.2184 C.ar    1  UNL1       -0.0013
      4 C           0.5376    1.7746   19.3128 C.ar    1  UNL1       -0.0025
      5 C           1.8361    1.8112   18.5629 C.ar    1  UNL1       -0.0013
      6 C           2.8240    0.6932   18.7186 C.ar    1  UNL1        0.0185
      7 S           3.5011   -1.5794   19.7800 S.O2    1  UNL1        0.0305
      8 O           3.7046   -1.6066   18.2941 O.2     1  UNL1       -0.1641
      9 O           3.2977   -1.5522   21.2658 O.2     1  UNL1       -0.1641
     10 N           6.4944   -3.9443   20.4959 N.ar    1  UNL1       -0.2481
     11 C           5.8549   -2.5884   20.5459 C.ar    1  UNL1        0.1154
     12 C           4.4889   -2.6974   19.9357 C.ar    1  UNL1        0.1497
     13 C           4.2842   -4.1206   19.5086 C.ar    1  UNL1        0.1404
     14 N           5.5237   -4.8913   19.8548 N.ar    1  UNL1       -0.1662
     15 C           7.8641   -4.2922   20.9988 C.3     1  UNL1        0.1276
     16 C           7.2287   -4.3957   23.5158 C.3     1  UNL1        0.0021
     17 C           8.0307   -4.9080   22.3564 C.3     1  UNL1        0.0264
     18 C          -0.4503    2.8926   19.1571 C.3     1  UNL1        0.1167
     19 N          -1.4269    3.1890   20.2563 N.am    1  UNL1       -0.2944
     20 C          -2.8131    3.6548   19.9226 C.2     1  UNL1        0.2808
     21 O          -3.2227    3.8243   18.4897 O.2     1  UNL1       -0.2668
     22 H          -1.1581    3.0778   21.1969 H       1  UNL1        0.1501
     23 C          -3.7897    3.9513   21.0219 C.ar    1  UNL1        0.1984
     24 C          -5.2807    3.8103   20.9384 C.ar    1  UNL1        0.0453
     25 C          -5.8593    4.2126   22.2626 C.ar    1  UNL1        0.0409
     26 C          -7.2717    4.2745   22.7636 C.ar    1  UNL1        0.0238
     27 C          -7.5507    4.7260   24.1666 C.ar    1  UNL1        0.0991
     28 N          -6.4173    5.1156   25.0685 N.ar    1  UNL1       -0.2391
     29 C          -5.0048    5.0537   24.5674 C.ar    1  UNL1        0.1362
     30 C          -4.7258    4.6022   23.1645 C.ar    1  UNL1        0.1646
     31 O          -3.4468    4.4407   22.3977 O.2     1  UNL1       -0.4473
@<TRIPOS>BOND
     1    16    17    1
     2    17    15    1
     3    15    10    1
     4    10    11   ar
     5    11    12   ar
     6    12     7    1
     7     7     8    2
     8     7     9    2
     9     7     1    1
    10     1     2   ar
    11     2     3   ar
    12     3     4   ar
    13     4    18    1
    14    18    19    1
    15    19    20   am
    16    20    21    2
    17    20    23    1
    18    23    24   ar
    19    24    25   ar
    20    25    26   ar
    21    26    27   ar
    22    27    28   ar
    23    28    29   ar
    24    29    30   ar
    25    30    31   ar
    26     4     5   ar
    27     5     6   ar
    28    12    13   ar
    29    13    14   ar
    30    14    10   ar
    31     6     1   ar
    32    31    23   ar
    33    30    25   ar
    34    19    22    1
@<TRIPOS>MOLECULE
*****
 31 34 0 0 0
SMALL
GASTEIGER

@<TRIPOS>ATOM
      1 C           2.9538   -0.9324   21.1836 C.ar    1  UNL1        0.1104
      2 C           2.4569    0.0728   22.1801 C.ar    1  UNL1        0.0185
      3 C           1.4007    1.0617   21.7849 C.ar    1  UNL1       -0.0013
      4 C           0.8412    1.0455   20.3932 C.ar    1  UNL1       -0.0025
      5 C           1.3380    0.0404   19.3968 C.ar    1  UNL1       -0.0013
      6 C           2.3943   -0.9486   19.7920 C.ar    1  UNL1        0.0185
      7 S           4.0100   -1.9214   21.5789 S.O2    1  UNL1        0.0305
      8 O           4.3145   -2.1744   20.1321 O.2     1  UNL1       -0.1641
      9 O           3.7056   -1.6683   23.0257 O.2     1  UNL1       -0.1641
     10 N           6.5100   -4.3379   23.3039 N.ar    1  UNL1       -0.2481
     11 C           5.3931   -3.3391   23.3739 C.ar    1  UNL1        0.1154
     12 C           5.0663   -2.9103   21.9741 C.ar    1  UNL1        0.1497
     13 C           5.9812   -3.6441   21.0390 C.ar    1  UNL1        0.1404
     14 N           6.8735   -4.5264   21.8608 N.ar    1  UNL1       -0.1662
     15 C           7.1510   -5.0272   24.4718 C.3     1  UNL1        0.1276
     16 C           7.8899   -7.4243   25.1486 C.3     1  UNL1        0.0021
     17 C           8.0179   -6.2309   24.2490 C.3     1  UNL1        0.0264
     18 C          -0.2151    2.0345   19.9980 C.3     1  UNL1        0.1167
     19 N          -1.2940    2.4085   20.9707 N.am    1  UNL1       -0.2944
     20 C          -2.4610    3.2337   20.5157 C.2     1  UNL1        0.2808
     21 O          -2.5491    3.6850   19.0880 O.2     1  UNL1       -0.2668
     22 H          -1.2361    2.1123   21.9078 H       1  UNL1        0.1501
     23 C          -3.5398    3.6077   21.4885 C.ar    1  UNL1        0.1984
     24 C          -3.3385    3.9847   22.9263 C.ar    1  UNL1        0.0453
     25 C          -4.6837    4.2803   23.5207 C.ar    1  UNL1        0.0409
     26 C          -5.1016    4.7013   24.8984 C.ar    1  UNL1        0.0238
     27 C          -6.5522    4.9280   25.2056 C.ar    1  UNL1        0.0991
     28 N          -7.5848    4.7338   24.1350 N.ar    1  UNL1       -0.2391
     29 C          -7.1668    4.3128   22.7574 C.ar    1  UNL1        0.1362
     30 C          -5.7163    4.0860   22.4502 C.ar    1  UNL1        0.1646
     31 O          -5.0093    3.6703   21.1943 O.2     1  UNL1       -0.4473
@<TRIPOS>BOND
     1    16    17    1
     2    17    15    1
     3    15    10    1
     4    10    11   ar
     5    11    12   ar
     6    12     7    1
     7     7     8    2
     8     7     9    2
     9     7     1    1
    10     1     2   ar
    11     2     3   ar
    12     3     4   ar
    13     4    18    1
    14    18    19    1
    15    19    20   am
    16    20    21    2
    17    20    23    1
    18    23    24   ar
    19    24    25   ar
    20    25    26   ar
    21    26    27   ar
    22    27    28   ar
    23    28    29   ar
    24    29    30   ar
    25    30    31   ar
    26     4     5   ar
    27     5     6   ar
    28    12    13   ar
    29    13    14   ar
    30    14    10   ar
    31     6     1   ar
    32    31    23   ar
    33    30    25   ar
    34    19    22    1
@<TRIPOS>MOLECULE
*****
 31 34 0 0 0
SMALL
GASTEIGER

@<TRIPOS>ATOM
      1 C           3.9330   -1.7218   21.1100 C.ar    1  UNL1        0.1104
      2 C           3.2537   -0.9653   22.2129 C.ar    1  UNL1        0.0185
      3 C           2.1301   -0.0238   21.8952 C.ar    1  UNL1       -0.0013
      4 C           1.6857    0.1614   20.4746 C.ar    1  UNL1       -0.0025
      5 C           2.3649   -0.5950   19.3717 C.ar    1  UNL1       -0.0013
      6 C           3.4886   -1.5366   19.6893 C.ar    1  UNL1        0.0185
      7 S           5.0566   -2.6633   21.4277 S.O2    1  UNL1        0.0305
      8 O           4.3422   -3.0954   22.6738 O.2     1  UNL1       -0.1641
      9 O           5.7710   -2.2312   20.1815 O.2     1  UNL1       -0.1641
     10 N           7.7268   -5.0262   22.9612 N.ar    1  UNL1       -0.2481
     11 C           6.5454   -4.1137   23.1083 C.ar    1  UNL1        0.1154
     12 C           6.1802   -3.6049   21.7454 C.ar    1  UNL1        0.1497
     13 C           7.1358   -4.2029   20.7559 C.ar    1  UNL1        0.1404
     14 N           8.0917   -5.0813   21.5073 N.ar    1  UNL1       -0.1662
     15 C           8.4213   -5.7556   24.0728 C.3     1  UNL1        0.1276
     16 C           7.7779   -7.7484   25.6105 C.3     1  UNL1        0.0021
     17 C           8.1887   -7.2248   24.2663 C.3     1  UNL1        0.0264
     18 C           0.5621    1.1030   20.1569 C.3     1  UNL1        0.1167
     19 N          -0.4435    1.4541   21.2131 N.am    1  UNL1       -0.2944
     20 C          -0.5229    2.8577   21.7361 C.2     1  UNL1        0.2808
     21 O           0.4032    3.9102   21.2028 O.2     1  UNL1       -0.2668
     22 H          -1.0514    0.7633   21.5631 H       1  UNL1        0.1501
     23 C          -1.5285    3.2088   22.7923 C.ar    1  UNL1        0.1984
     24 C          -1.2704    3.2744   24.2684 C.ar    1  UNL1        0.0453
     25 C          -2.5511    3.6621   24.9462 C.ar    1  UNL1        0.0409
     26 C          -2.8970    3.8791   26.3895 C.ar    1  UNL1        0.0238
     27 C          -4.2927    4.2702   26.7756 C.ar    1  UNL1        0.0991
     28 N          -5.3424    4.4443   25.7183 N.ar    1  UNL1       -0.2391
     29 C          -4.9965    4.2273   24.2750 C.ar    1  UNL1        0.1362
     30 C          -3.6008    3.8362   23.8890 C.ar    1  UNL1        0.1646
     31 O          -2.9688    3.5560   22.5578 O.2     1  UNL1       -0.4473
@<TRIPOS>BOND
     1    16    17    1
     2    17    15    1
     3    15    10    1
     4    10    11   ar
     5    11    12   ar
     6    12     7    1
     7     7     8    2
     8     7     9    2
     9     7     1    1
    10     1     2   ar
    11     2     3   ar
    12     3     4   ar
    13     4    18    1
    14    18    19    1
    15    19    20   am
    16    20    21    2
    17    20    23    1
    18    23    24   ar
    19    24    25   ar
    20    25    26   ar
    21    26    27   ar
    22    27    28   ar
    23    28    29   ar
    24    29    30   ar
    25    30    31   ar
    26     4     5   ar
    27     5     6   ar
    28    12    13   ar
    29    13    14   ar
    30    14    10   ar
    31     6     1   ar
    32    31    23   ar
    33    30    25   ar
    34    19    22    1
