@<TRIPOS>MOLECULE
*****
 25 27 0 0 0
SMALL
GASTEIGER

@<TRIPOS>ATOM
      1 C          -8.0641  -18.4275   22.5888 C.2     1  UNL1       -0.0245
      2 C          -7.5258  -17.2359   23.3239 C.2     1  UNL1       -0.0421
      3 C          -6.0429  -17.1865   23.1035 C.3     1  UNL1        0.0481
      4 C          -5.6648  -18.3475   22.2323 C.ar    1  UNL1       -0.0162
      5 C          -4.3443  -18.8054   21.6876 C.ar    1  UNL1        0.0257
      6 C          -4.2731  -20.0303   20.8247 C.ar    1  UNL1        0.1398
      7 F          -2.9527  -20.4883   20.2800 F       1  UNL1       -0.2042
      8 C          -5.5223  -20.7973   20.5066 C.ar    1  UNL1        0.0296
      9 C          -6.8428  -20.3394   21.0514 C.ar    1  UNL1        0.0017
     10 C          -6.9140  -19.1145   21.9142 C.ar    1  UNL1       -0.0077
     11 C          -9.5005  -18.8567   22.5374 C.3     1  UNL1        0.0666
     12 C          -9.9117  -20.1725   23.1288 C.3     1  UNL1        0.0112
     13 C         -10.5700  -17.8353   20.4014 C.ar    1  UNL1        0.2393
     14 N         -11.5953  -16.9489   19.7586 N.ar    1  UNL1       -0.2075
     15 C         -12.5761  -16.1975   20.6090 C.ar    1  UNL1        0.1227
     16 C         -12.5318  -16.3325   22.1023 C.ar    1  UNL1        0.1193
     17 N         -11.5066  -17.2189   22.7451 N.ar    1  UNL1       -0.2415
     18 C         -10.5257  -17.9704   21.8946 C.ar    1  UNL1        0.1156
     19 C          -9.9113  -19.9750   19.0831 C.3     1  UNL1        0.2543
     20 O          -9.5892  -18.5867   19.5509 O.3     1  UNL1       -0.4553
     21 C          -8.3293  -16.2643   24.1365 C.3     1  UNL1        0.0394
     22 C          -7.6433  -15.1415   24.8567 C.3     1  UNL1        0.0765
     23 N          -6.8613  -15.4189   26.1063 N.3     1  UNL1       -0.2700
     24 C          -5.3768  -15.2037   26.1253 C.3     1  UNL1        0.0897
     25 C          -7.5635  -15.9114   27.3368 C.3     1  UNL1        0.0897
@<TRIPOS>BOND
     1    19    20    1
     2    20    13    1
     3    13    14   ar
     4    14    15   ar
     5    15    16   ar
     6    16    17   ar
     7    17    18   ar
     8    18    11    1
     9    11    12    1
    10    11     1    1
    11     1     2    2
    12     2    21    1
    13    21    22    1
    14    22    23    1
    15    23    24    1
    16    23    25    1
    17     2     3    1
    18     3     4    1
    19     4     5   ar
    20     5     6   ar
    21     6     7    1
    22     6     8   ar
    23     8     9   ar
    24     9    10   ar
    25    18    13   ar
    26    10     1    1
    27    10     4   ar
@<TRIPOS>MOLECULE
*****
 25 27 0 0 0
SMALL
GASTEIGER

@<TRIPOS>ATOM
      1 C          -7.4846  -17.8695   22.3312 C.2     1  UNL1       -0.0245
      2 C          -8.2462  -18.9312   21.5944 C.2     1  UNL1       -0.0421
      3 C          -7.2623  -19.9517   21.1041 C.3     1  UNL1        0.0481
      4 C          -5.8925  -19.5207   21.5379 C.ar    1  UNL1       -0.0162
      5 C          -4.5379  -20.1339   21.3402 C.ar    1  UNL1        0.0257
      6 C          -3.3207  -19.4601   21.9009 C.ar    1  UNL1        0.1398
      7 F          -1.9660  -20.0732   21.7033 F       1  UNL1       -0.2042
      8 C          -3.4581  -18.1733   22.6593 C.ar    1  UNL1        0.0296
      9 C          -4.8127  -17.5601   22.8569 C.ar    1  UNL1        0.0017
     10 C          -6.0299  -18.2339   22.2962 C.ar    1  UNL1       -0.0077
     11 C          -8.0741  -16.6565   22.9876 C.3     1  UNL1        0.0666
     12 C          -8.7460  -15.6050   22.1551 C.3     1  UNL1        0.0112
     13 C          -8.9848  -17.1871   25.3623 C.ar    1  UNL1        0.2393
     14 N          -8.9024  -17.0253   26.8513 N.ar    1  UNL1       -0.2075
     15 C          -7.8270  -16.1712   27.4545 C.ar    1  UNL1        0.1227
     16 C          -6.8339  -15.4788   26.5689 C.ar    1  UNL1        0.1193
     17 N          -6.9163  -15.6406   25.0799 N.ar    1  UNL1       -0.2415
     18 C          -7.9917  -16.4947   24.4765 C.ar    1  UNL1        0.1156
     19 C         -10.0766  -19.5190   25.0158 C.3     1  UNL1        0.2543
     20 O         -10.0602  -18.0412   24.7591 O.3     1  UNL1       -0.4553
     21 C          -9.7311  -18.9662   21.3848 C.3     1  UNL1        0.0394
     22 C         -10.3395  -18.2600   20.2096 C.3     1  UNL1        0.0765
     23 N         -11.5049  -17.3372   20.4101 N.3     1  UNL1       -0.2700
     24 C         -11.5578  -16.0268   19.6820 C.3     1  UNL1        0.0897
     25 C         -12.6173  -17.7247   21.3386 C.3     1  UNL1        0.0897
@<TRIPOS>BOND
     1    19    20    1
     2    20    13    1
     3    13    14   ar
     4    14    15   ar
     5    15    16   ar
     6    16    17   ar
     7    17    18   ar
     8    18    11    1
     9    11    12    1
    10    11     1    1
    11     1     2    2
    12     2    21    1
    13    21    22    1
    14    22    23    1
    15    23    24    1
    16    23    25    1
    17     2     3    1
    18     3     4    1
    19     4     5   ar
    20     5     6   ar
    21     6     7    1
    22     6     8   ar
    23     8     9   ar
    24     9    10   ar
    25    18    13   ar
    26    10     1    1
    27    10     4   ar
@<TRIPOS>MOLECULE
*****
 25 27 0 0 0
SMALL
GASTEIGER

@<TRIPOS>ATOM
      1 C          -8.7366  -17.4652   23.6448 C.2     1  UNL1       -0.0245
      2 C          -9.7923  -18.2780   24.3340 C.2     1  UNL1       -0.0421
      3 C          -9.7553  -17.9422   25.7954 C.3     1  UNL1        0.0481
      4 C          -8.6767  -16.9219   26.0095 C.ar    1  UNL1       -0.0162
      5 C          -8.1866  -16.2233   27.2430 C.ar    1  UNL1        0.0257
      6 C          -7.0669  -15.2298   27.1474 C.ar    1  UNL1        0.1398
      7 F          -6.5767  -14.5311   28.3809 F       1  UNL1       -0.2042
      8 C          -6.4373  -14.9350   25.8182 C.ar    1  UNL1        0.0296
      9 C          -6.9274  -15.6337   24.5847 C.ar    1  UNL1        0.0017
     10 C          -8.0471  -16.6271   24.6804 C.ar    1  UNL1       -0.0077
     11 C          -8.4250  -17.4867   22.1777 C.3     1  UNL1        0.0666
     12 C          -9.1978  -16.6137   21.2339 C.3     1  UNL1        0.0112
     13 C          -7.6667  -19.4468   20.6502 C.ar    1  UNL1        0.2393
     14 N          -6.5823  -20.3412   20.1268 N.ar    1  UNL1       -0.2075
     15 C          -5.1717  -20.1701   20.6074 C.ar    1  UNL1        0.1227
     16 C          -4.8455  -19.1045   21.6115 C.ar    1  UNL1        0.1193
     17 N          -5.9300  -18.2101   22.1349 N.ar    1  UNL1       -0.2415
     18 C          -7.3406  -18.3812   21.6543 C.ar    1  UNL1        0.1156
     19 C          -9.3406  -20.1230   18.7819 C.3     1  UNL1        0.2543
     20 O          -9.0772  -19.6179   20.1695 O.3     1  UNL1       -0.4553
     21 C         -10.7217  -19.2550   23.6770 C.3     1  UNL1        0.0394
     22 C         -11.7704  -18.7667   22.7221 C.3     1  UNL1        0.0765
     23 N         -12.7158  -17.6790   23.1384 N.3     1  UNL1       -0.2700
     24 C         -13.8537  -17.9886   24.0655 C.3     1  UNL1        0.0897
     25 C         -12.5233  -16.2819   22.6276 C.3     1  UNL1        0.0897
@<TRIPOS>BOND
     1    19    20    1
     2    20    13    1
     3    13    14   ar
     4    14    15   ar
     5    15    16   ar
     6    16    17   ar
     7    17    18   ar
     8    18    11    1
     9    11    12    1
    10    11     1    1
    11     1     2    2
    12     2    21    1
    13    21    22    1
    14    22    23    1
    15    23    24    1
    16    23    25    1
    17     2     3    1
    18     3     4    1
    19     4     5   ar
    20     5     6   ar
    21     6     7    1
    22     6     8   ar
    23     8     9   ar
    24     9    10   ar
    25    18    13   ar
    26    10     1    1
    27    10     4   ar
@<TRIPOS>MOLECULE
*****
 25 27 0 0 0
SMALL
GASTEIGER

@<TRIPOS>ATOM
      1 C          -7.7159  -18.4205   21.6032 C.2     1  UNL1       -0.0245
      2 C          -7.5138  -17.4323   22.7135 C.2     1  UNL1       -0.0421
      3 C          -6.0627  -17.4517   23.0927 C.3     1  UNL1        0.0481
      4 C          -5.3680  -18.4518   22.2168 C.ar    1  UNL1       -0.0162
      5 C          -3.9370  -18.8947   22.1386 C.ar    1  UNL1        0.0257
      6 C          -3.5278  -19.9363   21.1398 C.ar    1  UNL1        0.1398
      7 F          -2.0968  -20.3792   21.0616 F       1  UNL1       -0.2042
      8 C          -4.5496  -20.5350   20.2192 C.ar    1  UNL1        0.0296
      9 C          -5.9806  -20.0921   20.2974 C.ar    1  UNL1        0.0017
     10 C          -6.3898  -19.0506   21.2962 C.ar    1  UNL1       -0.0077
     11 C          -9.0160  -18.7251   20.9198 C.3     1  UNL1        0.0666
     12 C          -9.0237  -19.4872   19.6278 C.3     1  UNL1        0.0112
     13 C         -10.9388  -19.0606   22.6346 C.ar    1  UNL1        0.2393
     14 N         -12.2312  -18.6031   23.2430 N.ar    1  UNL1       -0.2075
     15 C         -12.8934  -17.3526   22.7452 C.ar    1  UNL1        0.1227
     16 C         -12.2631  -16.5595   21.6389 C.ar    1  UNL1        0.1193
     17 N         -10.9707  -17.0171   21.0305 N.ar    1  UNL1       -0.2415
     18 C         -10.3084  -18.2676   21.5283 C.ar    1  UNL1        0.1156
     19 C          -9.7808  -20.3853   24.5461 C.3     1  UNL1        0.2543
     20 O         -10.2767  -20.3111   23.1324 O.3     1  UNL1       -0.4553
     21 C          -8.5763  -16.5753   23.3353 C.3     1  UNL1        0.0394
     22 C          -8.9184  -16.7396   24.7864 C.3     1  UNL1        0.0765
     23 N          -8.1019  -16.0414   25.8333 N.3     1  UNL1       -0.2700
     24 C          -7.0686  -15.0320   25.4288 C.3     1  UNL1        0.0897
     25 C          -8.3187  -16.3525   27.2845 C.3     1  UNL1        0.0897
@<TRIPOS>BOND
     1    19    20    1
     2    20    13    1
     3    13    14   ar
     4    14    15   ar
     5    15    16   ar
     6    16    17   ar
     7    17    18   ar
     8    18    11    1
     9    11    12    1
    10    11     1    1
    11     1     2    2
    12     2    21    1
    13    21    22    1
    14    22    23    1
    15    23    24    1
    16    23    25    1
    17     2     3    1
    18     3     4    1
    19     4     5   ar
    20     5     6   ar
    21     6     7    1
    22     6     8   ar
    23     8     9   ar
    24     9    10   ar
    25    18    13   ar
    26    10     1    1
    27    10     4   ar
@<TRIPOS>MOLECULE
*****
 25 27 0 0 0
SMALL
GASTEIGER

@<TRIPOS>ATOM
      1 C          -8.0987  -17.8232   23.1331 C.2     1  UNL1       -0.0245
      2 C          -6.8004  -17.8947   22.3852 C.2     1  UNL1       -0.0421
      3 C          -5.7914  -17.0703   23.1283 C.3     1  UNL1        0.0481
      4 C          -6.4660  -16.4893   24.3355 C.ar    1  UNL1       -0.0162
      5 C          -5.9661  -15.5967   25.4324 C.ar    1  UNL1        0.0257
      6 C          -6.8922  -15.1694   26.5323 C.ar    1  UNL1        0.1398
      7 F          -6.3922  -14.2767   27.6293 F       1  UNL1       -0.2042
      8 C          -8.3182  -15.6347   26.5352 C.ar    1  UNL1        0.0296
      9 C          -8.8181  -16.5273   25.4383 C.ar    1  UNL1        0.0017
     10 C          -7.8920  -16.9546   24.3385 C.ar    1  UNL1       -0.0077
     11 C          -9.3789  -18.5012   22.7440 C.3     1  UNL1        0.0666
     12 C          -9.5697  -19.9621   23.0262 C.3     1  UNL1        0.0112
     13 C         -10.5683  -17.7038   20.5762 C.ar    1  UNL1        0.2393
     14 N         -11.6577  -16.9211   19.9050 N.ar    1  UNL1       -0.2075
     15 C         -12.6471  -16.1530   20.7303 C.ar    1  UNL1        0.1227
     16 C         -12.5470  -16.1676   22.2269 C.ar    1  UNL1        0.1193
     17 N         -11.4576  -16.9504   22.8981 N.ar    1  UNL1       -0.2415
     18 C         -10.4682  -17.7185   22.0728 C.ar    1  UNL1        0.1156
     19 C          -9.9083  -19.8588   19.2837 C.3     1  UNL1        0.2543
     20 O          -9.5790  -18.4719   19.7508 O.3     1  UNL1       -0.4553
     21 C          -6.5544  -18.6568   21.1168 C.3     1  UNL1        0.0394
     22 C          -5.5214  -19.7439   21.0834 C.3     1  UNL1        0.0765
     23 N          -4.0816  -19.4031   20.8369 N.3     1  UNL1       -0.2700
     24 C          -3.0917  -19.4705   21.9619 C.3     1  UNL1        0.0897
     25 C          -3.6318  -18.9948   19.4654 C.3     1  UNL1        0.0897
@<TRIPOS>BOND
     1    19    20    1
     2    20    13    1
     3    13    14   ar
     4    14    15   ar
     5    15    16   ar
     6    16    17   ar
     7    17    18   ar
     8    18    11    1
     9    11    12    1
    10    11     1    1
    11     1     2    2
    12     2    21    1
    13    21    22    1
    14    22    23    1
    15    23    24    1
    16    23    25    1
    17     2     3    1
    18     3     4    1
    19     4     5   ar
    20     5     6   ar
    21     6     7    1
    22     6     8   ar
    23     8     9   ar
    24     9    10   ar
    25    18    13   ar
    26    10     1    1
    27    10     4   ar
@<TRIPOS>MOLECULE
*****
 25 27 0 0 0
SMALL
GASTEIGER

@<TRIPOS>ATOM
      1 C          -7.4260  -18.5120   21.6958 C.2     1  UNL1       -0.0245
      2 C          -5.9814  -18.9156   21.7174 C.2     1  UNL1       -0.0421
      3 C          -5.7545  -19.8861   20.5965 C.3     1  UNL1        0.0481
      4 C          -7.0588  -20.0824   19.8821 C.ar    1  UNL1       -0.0162
      5 C          -7.4392  -20.9247   18.7007 C.ar    1  UNL1        0.0257
      6 C          -8.8527  -20.9178   18.1987 C.ar    1  UNL1        0.1398
      7 F          -9.2332  -21.7602   17.0173 F       1  UNL1       -0.2042
      8 C          -9.8857  -20.0686   18.8782 C.ar    1  UNL1        0.0296
      9 C          -9.5053  -19.2262   20.0595 C.ar    1  UNL1        0.0017
     10 C          -8.0918  -19.2332   20.5615 C.ar    1  UNL1       -0.0077
     11 C          -8.0884  -17.5553   22.6423 C.3     1  UNL1        0.0666
     12 C          -7.3746  -16.3066   23.0682 C.3     1  UNL1        0.0112
     13 C         -10.6466  -17.1026   22.6166 C.ar    1  UNL1        0.2393
     14 N         -12.0227  -17.3945   23.1372 N.ar    1  UNL1       -0.2075
     15 C         -12.2168  -18.4309   24.2041 C.ar    1  UNL1        0.1227
     16 C         -11.0348  -19.1755   24.7504 C.ar    1  UNL1        0.1193
     17 N          -9.6586  -18.8836   24.2298 N.ar    1  UNL1       -0.2415
     18 C          -9.4645  -17.8471   23.1628 C.ar    1  UNL1        0.1156
     19 C         -11.3712  -16.0288   20.3645 C.3     1  UNL1        0.2543
     20 O         -10.4526  -16.0662   21.5498 O.3     1  UNL1       -0.4553
     21 C          -4.9457  -18.4332   22.6893 C.3     1  UNL1        0.0394
     22 C          -3.4882  -18.5997   22.3763 C.3     1  UNL1        0.0765
     23 N          -2.8095  -17.6480   21.4363 N.3     1  UNL1       -0.2700
     24 C          -2.2667  -16.3469   21.9487 C.3     1  UNL1        0.0897
     25 C          -2.6736  -17.9974   19.9839 C.3     1  UNL1        0.0897
@<TRIPOS>BOND
     1    19    20    1
     2    20    13    1
     3    13    14   ar
     4    14    15   ar
     5    15    16   ar
     6    16    17   ar
     7    17    18   ar
     8    18    11    1
     9    11    12    1
    10    11     1    1
    11     1     2    2
    12     2    21    1
    13    21    22    1
    14    22    23    1
    15    23    24    1
    16    23    25    1
    17     2     3    1
    18     3     4    1
    19     4     5   ar
    20     5     6   ar
    21     6     7    1
    22     6     8   ar
    23     8     9   ar
    24     9    10   ar
    25    18    13   ar
    26    10     1    1
    27    10     4   ar
@<TRIPOS>MOLECULE
*****
 25 27 0 0 0
SMALL
GASTEIGER

@<TRIPOS>ATOM
      1 C          -9.0666  -17.2633   23.4860 C.2     1  UNL1       -0.0245
      2 C          -9.9464  -18.2771   24.1554 C.2     1  UNL1       -0.0421
      3 C          -9.7485  -18.1561   25.6374 C.3     1  UNL1        0.0481
      4 C          -8.7464  -17.0675   25.8839 C.ar    1  UNL1       -0.0162
      5 C          -8.1632  -16.5075   27.1473 C.ar    1  UNL1        0.0257
      6 C          -7.1585  -15.3956   27.0810 C.ar    1  UNL1        0.1398
      7 F          -6.5753  -14.8355   28.3444 F       1  UNL1       -0.2042
      8 C          -6.7371  -14.8438   25.7514 C.ar    1  UNL1        0.0296
      9 C          -7.3203  -15.4039   24.4880 C.ar    1  UNL1        0.0017
     10 C          -8.3249  -16.5157   24.5542 C.ar    1  UNL1       -0.0077
     11 C          -8.9490  -17.0368   22.0079 C.3     1  UNL1        0.0666
     12 C          -9.3159  -15.7057   21.4216 C.3     1  UNL1        0.0112
     13 C          -7.0569  -18.6438   21.2415 C.ar    1  UNL1        0.2393
     14 N          -6.5726  -19.7482   20.3495 N.ar    1  UNL1       -0.2075
     15 C          -7.4959  -20.3502   19.3322 C.ar    1  UNL1        0.1227
     16 C          -8.9037  -19.8478   19.2067 C.ar    1  UNL1        0.1193
     17 N          -9.3880  -18.7433   20.0986 N.ar    1  UNL1       -0.2415
     18 C          -8.4646  -18.1412   21.1160 C.ar    1  UNL1        0.1156
     19 C          -4.7854  -18.6527   22.5024 C.3     1  UNL1        0.2543
     20 O          -6.1335  -18.0418   22.2588 O.3     1  UNL1       -0.4553
     21 C         -10.8632  -19.2424   23.4642 C.3     1  UNL1        0.0394
     22 C         -11.9867  -18.7308   22.6123 C.3     1  UNL1        0.0765
     23 N         -12.8865  -17.6476   23.1289 N.3     1  UNL1       -0.2700
     24 C         -12.7208  -16.2388   22.6413 C.3     1  UNL1        0.0897
     25 C         -13.9521  -17.9733   24.1331 C.3     1  UNL1        0.0897
@<TRIPOS>BOND
     1    19    20    1
     2    20    13    1
     3    13    14   ar
     4    14    15   ar
     5    15    16   ar
     6    16    17   ar
     7    17    18   ar
     8    18    11    1
     9    11    12    1
    10    11     1    1
    11     1     2    2
    12     2    21    1
    13    21    22    1
    14    22    23    1
    15    23    24    1
    16    23    25    1
    17     2     3    1
    18     3     4    1
    19     4     5   ar
    20     5     6   ar
    21     6     7    1
    22     6     8   ar
    23     8     9   ar
    24     9    10   ar
    25    18    13   ar
    26    10     1    1
    27    10     4   ar
@<TRIPOS>MOLECULE
*****
 25 27 0 0 0
SMALL
GASTEIGER

@<TRIPOS>ATOM
      1 C          -8.6305  -17.0718   22.5072 C.2     1  UNL1       -0.0245
      2 C          -8.0423  -18.3972   22.1231 C.2     1  UNL1       -0.0421
      3 C          -9.1717  -19.3259   21.7886 C.3     1  UNL1        0.0481
      4 C         -10.4578  -18.5746   21.9659 C.ar    1  UNL1       -0.0162
      5 C         -11.8903  -18.9791   21.7804 C.ar    1  UNL1        0.0257
      6 C         -12.9882  -17.9904   22.0390 C.ar    1  UNL1        0.1398
      7 F         -14.4208  -18.3949   21.8535 F       1  UNL1       -0.2042
      8 C         -12.6537  -16.5973   22.4831 C.ar    1  UNL1        0.0296
      9 C         -11.2213  -16.1928   22.6686 C.ar    1  UNL1        0.0017
     10 C         -10.1233  -17.1815   22.4101 C.ar    1  UNL1       -0.0077
     11 C          -7.8609  -15.8511   22.9165 C.3     1  UNL1        0.0666
     12 C          -7.5308  -14.7972   21.9014 C.3     1  UNL1        0.0112
     13 C          -5.9657  -15.5184   24.6622 C.ar    1  UNL1        0.2393
     14 N          -5.5263  -15.3514   26.0866 N.ar    1  UNL1       -0.2075
     15 C          -6.5426  -15.3501   27.1898 C.ar    1  UNL1        0.1227
     16 C          -7.9985  -15.5158   26.8686 C.ar    1  UNL1        0.1193
     17 N          -8.4379  -15.6828   25.4441 N.ar    1  UNL1       -0.2415
     18 C          -7.4215  -15.6841   24.3409 C.ar    1  UNL1        0.1156
     19 C          -3.9647  -16.6458   23.4477 C.3     1  UNL1        0.2543
     20 O          -4.9493  -15.5197   23.5591 O.3     1  UNL1       -0.4553
     21 C          -6.5814  -18.7345   22.0809 C.3     1  UNL1        0.0394
     22 C          -5.9144  -19.0166   20.7674 C.3     1  UNL1        0.0765
     23 N          -4.4295  -19.2211   20.7088 N.3     1  UNL1       -0.2700
     24 C          -3.7032  -19.7877   21.8927 C.3     1  UNL1        0.0897
     25 C          -3.6710  -18.8591   19.4664 C.3     1  UNL1        0.0897
@<TRIPOS>BOND
     1    19    20    1
     2    20    13    1
     3    13    14   ar
     4    14    15   ar
     5    15    16   ar
     6    16    17   ar
     7    17    18   ar
     8    18    11    1
     9    11    12    1
    10    11     1    1
    11     1     2    2
    12     2    21    1
    13    21    22    1
    14    22    23    1
    15    23    24    1
    16    23    25    1
    17     2     3    1
    18     3     4    1
    19     4     5   ar
    20     5     6   ar
    21     6     7    1
    22     6     8   ar
    23     8     9   ar
    24     9    10   ar
    25    18    13   ar
    26    10     1    1
    27    10     4   ar
@<TRIPOS>MOLECULE
*****
 25 27 0 0 0
SMALL
GASTEIGER

@<TRIPOS>ATOM
      1 C          -7.0044  -18.4181   21.9959 C.2     1  UNL1       -0.0245
      2 C          -5.6704  -19.0505   21.7306 C.2     1  UNL1       -0.0421
      3 C          -4.6537  -18.3686   22.5974 C.3     1  UNL1        0.0481
      4 C          -5.3594  -17.3149   23.3984 C.ar    1  UNL1       -0.0162
      5 C          -4.8667  -16.3315   24.4183 C.ar    1  UNL1        0.0257
      6 C          -5.8270  -15.3787   25.0664 C.ar    1  UNL1        0.1398
      7 F          -5.3344  -14.3952   26.0863 F       1  UNL1       -0.2042
      8 C          -7.2799  -15.4093   24.6946 C.ar    1  UNL1        0.0296
      9 C          -7.7725  -16.3927   23.6748 C.ar    1  UNL1        0.0017
     10 C          -6.8123  -17.3455   23.0267 C.ar    1  UNL1       -0.0077
     11 C          -8.3028  -18.7927   21.3447 C.3     1  UNL1        0.0666
     12 C          -8.3144  -19.3053   19.9350 C.3     1  UNL1        0.0112
     13 C         -10.5862  -17.6069   21.7048 C.ar    1  UNL1        0.2393
     14 N         -11.8730  -17.4689   22.4633 N.ar    1  UNL1       -0.2075
     15 C         -12.1630  -18.3787   23.6200 C.ar    1  UNL1        0.1227
     16 C         -11.1663  -19.4265   24.0184 C.ar    1  UNL1        0.1193
     17 N          -9.8796  -19.5645   23.2599 N.ar    1  UNL1       -0.2415
     18 C          -9.5895  -18.6547   22.1031 C.ar    1  UNL1        0.1156
     19 C         -11.4241  -16.0351   19.8134 C.3     1  UNL1        0.2543
     20 O         -10.2963  -16.6970   20.5481 O.3     1  UNL1       -0.4553
     21 C          -5.4004  -20.1684   20.7676 C.3     1  UNL1        0.0394
     22 C          -3.9990  -20.4388   20.3061 C.3     1  UNL1        0.0765
     23 N          -3.0991  -19.2982   19.9328 N.3     1  UNL1       -0.2700
     24 C          -1.7267  -19.1992   20.5302 C.3     1  UNL1        0.0897
     25 C          -3.5715  -18.2567   18.9622 C.3     1  UNL1        0.0897
@<TRIPOS>BOND
     1    19    20    1
     2    20    13    1
     3    13    14   ar
     4    14    15   ar
     5    15    16   ar
     6    16    17   ar
     7    17    18   ar
     8    18    11    1
     9    11    12    1
    10    11     1    1
    11     1     2    2
    12     2    21    1
    13    21    22    1
    14    22    23    1
    15    23    24    1
    16    23    25    1
    17     2     3    1
    18     3     4    1
    19     4     5   ar
    20     5     6   ar
    21     6     7    1
    22     6     8   ar
    23     8     9   ar
    24     9    10   ar
    25    18    13   ar
    26    10     1    1
    27    10     4   ar
