@<TRIPOS>MOLECULE
*****
 30 33 0 0 0
SMALL
GASTEIGER

@<TRIPOS>ATOM
      1 C           3.0043   -0.4823   22.2111 C.3     1  UNL1        0.1400
      2 O           1.9954    0.4407   22.8276 O.3     1  UNL1       -0.3517
      3 C           2.1364    0.3523   24.3183 C.3     1  UNL1        0.1454
      4 C           3.2324   -0.6254   24.6232 C.3     1  UNL1        0.0662
      5 C           3.9968   -1.2842   25.7329 C.3     1  UNL1        0.1401
      6 O           5.0057   -2.2073   25.1163 O.3     1  UNL1       -0.3517
      7 C           4.8648   -2.1189   23.6256 C.3     1  UNL1        0.1454
      8 C           3.7688   -1.1412   23.3208 C.3     1  UNL1        0.0662
      9 C           4.1293   -2.1647   18.7972 C.ar    1  UNL1        0.1719
     10 C           3.9213   -1.9398   20.2656 C.ar    1  UNL1        0.0381
     11 C           3.2122   -0.7071   20.7427 C.ar    1  UNL1        0.0078
     12 C           2.7110    0.3008   19.7513 C.ar    1  UNL1        0.0014
     13 C           2.9190    0.0760   18.2829 C.ar    1  UNL1        0.0395
     14 C           3.6281   -1.1567   17.8058 C.ar    1  UNL1        0.1677
     15 O           3.8360   -1.3815   16.3374 O.3     1  UNL1       -0.5029
     16 H           3.5230   -0.7519   15.7181 H       1  UNL1        0.2923
     17 C           4.4821   -4.7369   18.8936 C.3     1  UNL1        0.2526
     18 O           4.8384   -3.3974   18.3203 O.3     1  UNL1       -0.4684
     19 C           3.7889   -1.0595   27.2013 C.ar    1  UNL1        0.0108
     20 C           4.9457   -1.1758   28.1490 C.ar    1  UNL1        0.0383
     21 C           4.7378   -0.9510   29.6174 C.ar    1  UNL1        0.1750
     22 C           3.3730   -0.6100   30.1381 C.ar    1  UNL1        0.2024
     23 O           3.1652   -0.3852   31.6066 O.3     1  UNL1       -0.5009
     24 C           2.2162   -0.4937   29.1904 C.ar    1  UNL1        0.1750
     25 C           2.4242   -0.7184   27.7220 C.ar    1  UNL1        0.0383
     26 H           3.8879   -0.4578   32.1986 H       1  UNL1        0.2924
     27 O           5.8948   -1.0673   30.5651 O.3     1  UNL1       -0.4683
     28 C           6.2236   -2.3914   31.1884 C.3     1  UNL1        0.2526
     29 O           0.8515   -0.1526   29.7111 O.3     1  UNL1       -0.4683
     30 C          -0.3384   -0.2255   28.8007 C.3     1  UNL1        0.2526
@<TRIPOS>BOND
     1    17    18    1
     2    18     9    1
     3     9    10   ar
     4    10    11   ar
     5     1    11    1
     6     1     2    1
     7     2     3    1
     8     4     3    1
     9     4     5    1
    10     5    19    1
    11    19    20   ar
    12    20    21   ar
    13    21    27    1
    14    27    28    1
    15    21    22   ar
    16    22    23    1
    17    22    24   ar
    18    24    29    1
    19    29    30    1
    20    24    25   ar
    21     5     6    1
    22     6     7    1
    23     8     7    1
    24    11    12   ar
    25    12    13   ar
    26    13    14   ar
    27    14    15    1
    28    14     9   ar
    29     8     1    1
    30     8     4    1
    31    25    19   ar
    32    23    26    1
    33    15    16    1
@<TRIPOS>MOLECULE
*****
 30 33 0 0 0
SMALL
GASTEIGER

@<TRIPOS>ATOM
      1 C           3.0040   -0.4775   22.2184 C.3     1  UNL1        0.1400
      2 O           1.9945    0.4468   22.8320 O.3     1  UNL1       -0.3517
      3 C           2.1317    0.3589   24.3231 C.3     1  UNL1        0.1454
      4 C           3.2259   -0.6198   24.6311 C.3     1  UNL1        0.0662
      5 C           3.9870   -1.2790   25.7430 C.3     1  UNL1        0.1401
      6 O           4.9964   -2.2033   25.1293 O.3     1  UNL1       -0.3517
      7 C           4.8593   -2.1154   23.6383 C.3     1  UNL1        0.1454
      8 C           3.7651   -1.1367   23.3303 C.3     1  UNL1        0.0662
      9 C           4.1420   -2.1590   18.8084 C.ar    1  UNL1        0.1719
     10 C           3.9306   -1.9333   20.2762 C.ar    1  UNL1        0.0381
     11 C           3.2154   -0.7031   20.7506 C.ar    1  UNL1        0.0078
     12 C           2.7116    0.3015   19.7572 C.ar    1  UNL1        0.0014
     13 C           2.9231    0.0759   18.2893 C.ar    1  UNL1        0.0395
     14 C           3.6382   -1.1544   17.8150 C.ar    1  UNL1        0.1677
     15 O           3.8496   -1.3800   16.3472 O.3     1  UNL1       -0.5029
     16 H           3.5349   -0.7524   15.7266 H       1  UNL1        0.2923
     17 C           4.5125   -4.7283   18.9156 C.3     1  UNL1        0.2526
     18 O           4.8572   -3.3892   18.3341 O.3     1  UNL1       -0.4684
     19 C           3.7756   -1.0534   27.2108 C.ar    1  UNL1        0.0108
     20 C           2.4072   -0.7244   27.7296 C.ar    1  UNL1        0.0383
     21 C           2.1958   -0.4988   29.1974 C.ar    1  UNL1        0.1750
     22 C           3.3528   -0.6022   30.1464 C.ar    1  UNL1        0.2024
     23 O           3.1414   -0.3766   31.6142 O.3     1  UNL1       -0.5009
     24 C           4.7213   -0.9312   29.6275 C.ar    1  UNL1        0.1750
     25 C           4.9326   -1.1567   28.1597 C.ar    1  UNL1        0.0383
     26 H           2.2865   -0.1711   31.9382 H       1  UNL1        0.2924
     27 O           0.8273   -0.1699   29.7161 O.3     1  UNL1       -0.4683
     28 C          -0.3548   -0.2124   28.7937 C.3     1  UNL1        0.2526
     29 O           5.8783   -1.0345   30.5765 O.3     1  UNL1       -0.4683
     30 C           6.3517   -2.3808   31.0383 C.3     1  UNL1        0.2526
@<TRIPOS>BOND
     1    17    18    1
     2    18     9    1
     3     9    10   ar
     4    10    11   ar
     5     1    11    1
     6     1     2    1
     7     2     3    1
     8     4     3    1
     9     4     5    1
    10     5    19    1
    11    19    20   ar
    12    20    21   ar
    13    21    27    1
    14    27    28    1
    15    21    22   ar
    16    22    23    1
    17    22    24   ar
    18    24    29    1
    19    29    30    1
    20    24    25   ar
    21     5     6    1
    22     6     7    1
    23     8     7    1
    24    11    12   ar
    25    12    13   ar
    26    13    14   ar
    27    14    15    1
    28    14     9   ar
    29     8     1    1
    30     8     4    1
    31    25    19   ar
    32    23    26    1
    33    15    16    1
@<TRIPOS>MOLECULE
*****
 30 33 0 0 0
SMALL
GASTEIGER

@<TRIPOS>ATOM
      1 C           2.1019    0.2281   21.9879 C.3     1  UNL1        0.1400
      2 O           0.8605    0.9996   22.3249 O.3     1  UNL1       -0.3517
      3 C           0.7938    1.1419   23.8166 C.3     1  UNL1        0.1454
      4 C           1.9941    0.4584   24.4016 C.3     1  UNL1        0.0662
      5 C           2.6946    0.1238   25.6851 C.3     1  UNL1        0.1401
      6 O           3.9360   -0.6476   25.3480 O.3     1  UNL1       -0.3517
      7 C           4.0028   -0.7900   23.8564 C.3     1  UNL1        0.1454
      8 C           2.8025   -0.1064   23.2714 C.3     1  UNL1        0.0662
      9 C           3.5960   -1.8773   18.9737 C.ar    1  UNL1        0.1719
     10 C           3.1358   -1.5054   20.3521 C.ar    1  UNL1        0.0381
     11 C           2.5621   -0.1436   20.6095 C.ar    1  UNL1        0.0078
     12 C           2.4484    0.8464   19.4884 C.ar    1  UNL1        0.0014
     13 C           2.9086    0.4746   18.1099 C.ar    1  UNL1        0.0395
     14 C           3.4823   -0.8872   17.8526 C.ar    1  UNL1        0.1677
     15 O           3.9425   -1.2589   16.4741 O.3     1  UNL1       -0.5029
     16 H           3.8715   -0.6405   15.7738 H       1  UNL1        0.2923
     17 C           3.4310   -4.4625   19.1719 C.3     1  UNL1        0.2526
     18 O           4.1697   -3.2391   18.7164 O.3     1  UNL1       -0.4684
     19 C           2.2345    0.4956   27.0635 C.ar    1  UNL1        0.0108
     20 C           2.4654   -0.4437   28.2100 C.ar    1  UNL1        0.0383
     21 C           2.0052   -0.0719   29.5884 C.ar    1  UNL1        0.1750
     22 C           1.3143    1.2391   29.8204 C.ar    1  UNL1        0.2024
     23 O           0.8542    1.6107   31.1989 O.3     1  UNL1       -0.5009
     24 C           1.0834    2.1783   28.6739 C.ar    1  UNL1        0.1750
     25 C           1.5435    1.8066   27.2954 C.ar    1  UNL1        0.0383
     26 H           0.9984    1.0240   31.9150 H       1  UNL1        0.2924
     27 O           2.2362   -1.0113   30.7349 O.3     1  UNL1       -0.4683
     28 C           3.5038   -0.9246   31.5321 C.3     1  UNL1        0.2526
     29 O           0.3924    3.4893   28.9058 O.3     1  UNL1       -0.4683
     30 C          -0.2363    4.2195   27.7563 C.3     1  UNL1        0.2526
@<TRIPOS>BOND
     1    17    18    1
     2    18     9    1
     3     9    10   ar
     4    10    11   ar
     5     1    11    1
     6     1     2    1
     7     2     3    1
     8     4     3    1
     9     4     5    1
    10     5    19    1
    11    19    20   ar
    12    20    21   ar
    13    21    27    1
    14    27    28    1
    15    21    22   ar
    16    22    23    1
    17    22    24   ar
    18    24    29    1
    19    29    30    1
    20    24    25   ar
    21     5     6    1
    22     6     7    1
    23     8     7    1
    24    11    12   ar
    25    12    13   ar
    26    13    14   ar
    27    14    15    1
    28    14     9   ar
    29     8     1    1
    30     8     4    1
    31    25    19   ar
    32    23    26    1
    33    15    16    1
@<TRIPOS>MOLECULE
*****
 30 33 0 0 0
SMALL
GASTEIGER

@<TRIPOS>ATOM
      1 C           2.1943    0.1790   22.0913 C.3     1  UNL1        0.1400
      2 O           0.9831    0.9935   22.4370 O.3     1  UNL1       -0.3517
      3 C           0.9245    1.1262   23.9300 C.3     1  UNL1        0.1454
      4 C           2.0995    0.3938   24.5070 C.3     1  UNL1        0.0662
      5 C           2.7894    0.0231   25.7863 C.3     1  UNL1        0.1401
      6 O           4.0006   -0.7914   25.4405 O.3     1  UNL1       -0.3517
      7 C           4.0593   -0.9241   23.9476 C.3     1  UNL1        0.1454
      8 C           2.8843   -0.1916   23.3706 C.3     1  UNL1        0.0662
      9 C           3.6223   -1.9498   19.0616 C.ar    1  UNL1        0.1719
     10 C           3.1788   -1.5722   20.4439 C.ar    1  UNL1        0.0381
     11 C           2.6377   -0.1985   20.7090 C.ar    1  UNL1        0.0078
     12 C           2.5401    0.7976   19.5918 C.ar    1  UNL1        0.0014
     13 C           2.9835    0.4199   18.2094 C.ar    1  UNL1        0.0395
     14 C           3.5246   -0.9537   17.9443 C.ar    1  UNL1        0.1677
     15 O           3.9681   -1.3313   16.5620 O.3     1  UNL1       -0.5029
     16 H           3.9071   -0.7091   15.8641 H       1  UNL1        0.2923
     17 C           3.4011   -4.5312   19.2550 C.3     1  UNL1        0.2526
     18 O           4.1634   -3.3235   18.7966 O.3     1  UNL1       -0.4684
     19 C           2.3460    0.4006   27.1686 C.ar    1  UNL1        0.0108
     20 C           1.6832    1.7247   27.4082 C.ar    1  UNL1        0.0383
     21 C           1.2397    2.1023   28.7905 C.ar    1  UNL1        0.1750
     22 C           1.4591    1.1558   29.9333 C.ar    1  UNL1        0.2024
     23 O           1.0156    1.5334   31.3156 O.3     1  UNL1       -0.5009
     24 C           2.1220   -0.1683   29.6937 C.ar    1  UNL1        0.1750
     25 C           2.5654   -0.5459   28.3114 C.ar    1  UNL1        0.0383
     26 H           0.6016    2.3605   31.4652 H       1  UNL1        0.2924
     27 O           0.5769    3.4265   29.0299 O.3     1  UNL1       -0.4683
     28 C          -0.1056    4.1389   27.9000 C.3     1  UNL1        0.2526
     29 O           2.3414   -1.1149   30.8365 O.3     1  UNL1       -0.4683
     30 C           3.5689   -0.9894   31.6893 C.3     1  UNL1        0.2526
@<TRIPOS>BOND
     1    17    18    1
     2    18     9    1
     3     9    10   ar
     4    10    11   ar
     5     1    11    1
     6     1     2    1
     7     2     3    1
     8     4     3    1
     9     4     5    1
    10     5    19    1
    11    19    20   ar
    12    20    21   ar
    13    21    27    1
    14    27    28    1
    15    21    22   ar
    16    22    23    1
    17    22    24   ar
    18    24    29    1
    19    29    30    1
    20    24    25   ar
    21     5     6    1
    22     6     7    1
    23     8     7    1
    24    11    12   ar
    25    12    13   ar
    26    13    14   ar
    27    14    15    1
    28    14     9   ar
    29     8     1    1
    30     8     4    1
    31    25    19   ar
    32    23    26    1
    33    15    16    1
@<TRIPOS>MOLECULE
*****
 30 33 0 0 0
SMALL
GASTEIGER

@<TRIPOS>ATOM
      1 C           6.7002   -4.1570   22.8194 C.3     1  UNL1        0.1400
      2 O           7.4686   -5.4309   23.0107 O.3     1  UNL1       -0.3517
      3 C           7.6345   -5.6552   24.4846 C.3     1  UNL1        0.1454
      4 C           6.9686   -4.5199   25.2041 C.3     1  UNL1        0.0662
      5 C           6.6596   -3.9569   26.5596 C.3     1  UNL1        0.1401
      6 O           5.8912   -2.6830   26.3682 O.3     1  UNL1       -0.3517
      7 C           5.7253   -2.4586   24.8945 C.3     1  UNL1        0.1454
      8 C           6.3912   -3.5939   24.1749 C.3     1  UNL1        0.0662
      9 C           4.4708   -2.7222   19.8662 C.ar    1  UNL1        0.1719
     10 C           4.8617   -3.3270   21.1820 C.ar    1  UNL1        0.0381
     11 C           6.3094   -3.5522   21.5035 C.ar    1  UNL1        0.0078
     12 C           7.3663   -3.1728   20.5091 C.ar    1  UNL1        0.0014
     13 C           6.9754   -2.5680   19.1932 C.ar    1  UNL1        0.0395
     14 C           5.5277   -2.3427   18.8717 C.ar    1  UNL1        0.1677
     15 O           5.1369   -1.7380   17.5558 O.3     1  UNL1       -0.5029
     16 H           5.7972   -1.5009   16.9347 H       1  UNL1        0.2923
     17 C           2.3589   -1.2107   19.9375 C.3     1  UNL1        0.2526
     18 O           3.0231   -2.4970   19.5448 O.3     1  UNL1       -0.4684
     19 C           7.0504   -4.5616   27.8755 C.ar    1  UNL1        0.0108
     20 C           7.8976   -5.7989   27.9102 C.ar    1  UNL1        0.0383
     21 C           8.2884   -6.4037   29.2261 C.ar    1  UNL1        0.1750
     22 C           7.8320   -5.7711   30.5073 C.ar    1  UNL1        0.2024
     23 O           8.2228   -6.3760   31.8232 O.3     1  UNL1       -0.5009
     24 C           6.9847   -4.5338   30.4726 C.ar    1  UNL1        0.1750
     25 C           6.5939   -3.9291   29.1567 C.ar    1  UNL1        0.0383
     26 H           8.7521   -7.1489   31.8448 H       1  UNL1        0.2924
     27 O           9.1357   -7.6410   29.2607 O.3     1  UNL1       -0.4683
     28 C           9.1804   -8.5530   28.0706 C.3     1  UNL1        0.2526
     29 O           6.5283   -3.9013   31.7538 O.3     1  UNL1       -0.4683
     30 C           7.3438   -2.8118   32.3846 C.3     1  UNL1        0.2526
@<TRIPOS>BOND
     1    17    18    1
     2    18     9    1
     3     9    10   ar
     4    10    11   ar
     5     1    11    1
     6     1     2    1
     7     2     3    1
     8     4     3    1
     9     4     5    1
    10     5    19    1
    11    19    20   ar
    12    20    21   ar
    13    21    27    1
    14    27    28    1
    15    21    22   ar
    16    22    23    1
    17    22    24   ar
    18    24    29    1
    19    29    30    1
    20    24    25   ar
    21     5     6    1
    22     6     7    1
    23     8     7    1
    24    11    12   ar
    25    12    13   ar
    26    13    14   ar
    27    14    15    1
    28    14     9   ar
    29     8     1    1
    30     8     4    1
    31    25    19   ar
    32    23    26    1
    33    15    16    1
@<TRIPOS>MOLECULE
*****
 30 33 0 0 0
SMALL
GASTEIGER

@<TRIPOS>ATOM
      1 C           2.2520    0.6165   25.6536 C.3     1  UNL1        0.1400
      2 O           1.5507    1.5005   24.6653 O.3     1  UNL1       -0.3517
      3 C           1.9276    1.0448   23.2868 C.3     1  UNL1        0.1454
      4 C           2.8619   -0.1208   23.4231 C.3     1  UNL1        0.0662
      5 C           3.6722   -1.1229   22.6555 C.3     1  UNL1        0.1401
      6 O           4.3734   -2.0068   23.6438 O.3     1  UNL1       -0.3517
      7 C           3.9966   -1.5511   25.0223 C.3     1  UNL1        0.1454
      8 C           3.0624   -0.3855   24.8859 C.3     1  UNL1        0.0662
      9 C           0.7277    0.7599   29.3150 C.ar    1  UNL1        0.1719
     10 C           0.8205    0.6595   27.8213 C.ar    1  UNL1        0.0381
     11 C           2.1593    0.7169   27.1474 C.ar    1  UNL1        0.0078
     12 C           3.4055    0.8748   27.9672 C.ar    1  UNL1        0.0014
     13 C           3.3126    0.9752   29.4610 C.ar    1  UNL1        0.0395
     14 C           1.9738    0.9178   30.1349 C.ar    1  UNL1        0.1677
     15 O           1.8811    1.0182   31.6287 O.3     1  UNL1       -0.5029
     16 H           2.6595    1.1168   32.1408 H       1  UNL1        0.2923
     17 C          -1.7766    0.0687   29.2887 C.3     1  UNL1        0.2526
     18 O          -0.6112    0.7024   29.9888 O.3     1  UNL1       -0.4684
     19 C           3.7649   -1.2233   21.1617 C.ar    1  UNL1        0.0108
     20 C           3.3374   -0.0691   20.3044 C.ar    1  UNL1        0.0383
     21 C           3.4301   -0.1695   18.8107 C.ar    1  UNL1        0.1750
     22 C           3.9503   -1.4241   18.1742 C.ar    1  UNL1        0.2024
     23 O           4.0430   -1.5244   16.6804 O.3     1  UNL1       -0.5009
     24 C           4.3779   -2.5784   19.0314 C.ar    1  UNL1        0.1750
     25 C           4.2851   -2.4780   20.5252 C.ar    1  UNL1        0.0383
     26 H           3.7759   -0.8034   16.1449 H       1  UNL1        0.2924
     27 O           3.0025    0.9849   17.9535 O.3     1  UNL1       -0.4683
     28 C           2.4825    2.2397   18.5900 C.3     1  UNL1        0.2526
     29 O           4.8981   -3.8330   18.3949 O.3     1  UNL1       -0.4683
     30 C           4.5192   -5.1715   18.9560 C.3     1  UNL1        0.2526
@<TRIPOS>BOND
     1    17    18    1
     2    18     9    1
     3     9    10   ar
     4    10    11   ar
     5     1    11    1
     6     1     2    1
     7     2     3    1
     8     4     3    1
     9     4     5    1
    10     5    19    1
    11    19    20   ar
    12    20    21   ar
    13    21    27    1
    14    27    28    1
    15    21    22   ar
    16    22    23    1
    17    22    24   ar
    18    24    29    1
    19    29    30    1
    20    24    25   ar
    21     5     6    1
    22     6     7    1
    23     8     7    1
    24    11    12   ar
    25    12    13   ar
    26    13    14   ar
    27    14    15    1
    28    14     9   ar
    29     8     1    1
    30     8     4    1
    31    25    19   ar
    32    23    26    1
    33    15    16    1
@<TRIPOS>MOLECULE
*****
 30 33 0 0 0
SMALL
GASTEIGER

@<TRIPOS>ATOM
      1 C           4.0345   -1.3216   26.1793 C.3     1  UNL1        0.1400
      2 O           5.0607   -2.2686   25.6317 O.3     1  UNL1       -0.3517
      3 C           4.9889   -2.2148   24.1344 C.3     1  UNL1        0.1454
      4 C           3.9182   -1.2345   23.7566 C.3     1  UNL1        0.0662
      5 C           3.2121   -0.5954   22.5978 C.3     1  UNL1        0.1401
      6 O           2.1858    0.3516   23.1454 O.3     1  UNL1       -0.3517
      7 C           2.2576    0.2978   24.6427 C.3     1  UNL1        0.1454
      8 C           3.3283   -0.6825   25.0205 C.3     1  UNL1        0.0662
      9 C           2.1106   -0.4120   29.5292 C.ar    1  UNL1        0.1719
     10 C           2.3830   -0.6740   28.0776 C.ar    1  UNL1        0.0381
     11 C           3.7621   -1.0596   27.6309 C.ar    1  UNL1        0.0078
     12 C           4.8688   -1.1832   28.6359 C.ar    1  UNL1        0.0014
     13 C           4.5963   -0.9212   30.0875 C.ar    1  UNL1        0.0395
     14 C           3.2173   -0.5356   30.5342 C.ar    1  UNL1        0.1677
     15 O           2.9449   -0.2737   31.9858 O.3     1  UNL1       -0.5029
     16 H           3.6362   -0.3509   32.6136 H       1  UNL1        0.2923
     17 C          -0.4370   -0.2227   29.0560 C.3     1  UNL1        0.2526
     18 O           0.7315   -0.0265   29.9758 O.3     1  UNL1       -0.4684
     19 C           3.4844   -0.8574   21.1462 C.ar    1  UNL1        0.0108
     20 C           3.3632   -2.2489   20.5995 C.ar    1  UNL1        0.0383
     21 C           3.6355   -2.5109   19.1479 C.ar    1  UNL1        0.1750
     22 C           4.0291   -1.3813   18.2429 C.ar    1  UNL1        0.2024
     23 O           4.3015   -1.6434   16.7913 O.3     1  UNL1       -0.5009
     24 C           4.1504    0.0103   18.7895 C.ar    1  UNL1        0.1750
     25 C           3.8780    0.2722   20.2411 C.ar    1  UNL1        0.0383
     26 H           4.2257   -2.5127   16.4499 H       1  UNL1        0.2924
     27 O           3.5142   -3.9026   18.6014 O.3     1  UNL1       -0.4683
     28 C           4.5999   -4.9058   18.8562 C.3     1  UNL1        0.2526
     29 O           4.5440    1.1399   17.8845 O.3     1  UNL1       -0.4683
     30 C           5.9924    1.3951   17.5899 C.3     1  UNL1        0.2526
@<TRIPOS>BOND
     1    17    18    1
     2    18     9    1
     3     9    10   ar
     4    10    11   ar
     5     1    11    1
     6     1     2    1
     7     2     3    1
     8     4     3    1
     9     4     5    1
    10     5    19    1
    11    19    20   ar
    12    20    21   ar
    13    21    27    1
    14    27    28    1
    15    21    22   ar
    16    22    23    1
    17    22    24   ar
    18    24    29    1
    19    29    30    1
    20    24    25   ar
    21     5     6    1
    22     6     7    1
    23     8     7    1
    24    11    12   ar
    25    12    13   ar
    26    13    14   ar
    27    14    15    1
    28    14     9   ar
    29     8     1    1
    30     8     4    1
    31    25    19   ar
    32    23    26    1
    33    15    16    1
@<TRIPOS>MOLECULE
*****
 30 33 0 0 0
SMALL
GASTEIGER

@<TRIPOS>ATOM
      1 C           6.3795   -3.8986   21.9377 C.3     1  UNL1        0.1400
      2 O           7.3861   -5.0049   22.0500 O.3     1  UNL1       -0.3517
      3 C           7.7088   -5.1922   23.5029 C.3     1  UNL1        0.1454
      4 C           6.9017   -4.2016   24.2885 C.3     1  UNL1        0.0662
      5 C           6.6023   -3.7051   25.6719 C.3     1  UNL1        0.1401
      6 O           5.5957   -2.5987   25.5596 O.3     1  UNL1       -0.3517
      7 C           5.2729   -2.4114   24.1068 C.3     1  UNL1        0.1454
      8 C           6.0801   -3.4020   23.3212 C.3     1  UNL1        0.0662
      9 C           6.0262   -2.1051   18.4151 C.ar    1  UNL1        0.1719
     10 C           6.6277   -2.6240   19.6874 C.ar    1  UNL1        0.0381
     11 C           5.7778   -3.3797   20.6654 C.ar    1  UNL1        0.0078
     12 C           4.3262   -3.6167   20.3710 C.ar    1  UNL1        0.0014
     13 C           3.7246   -3.0978   19.0986 C.ar    1  UNL1        0.0395
     14 C           4.5746   -2.3421   18.1207 C.ar    1  UNL1        0.1677
     15 O           3.9729   -1.8232   16.8483 O.3     1  UNL1       -0.5029
     16 H           3.0661   -1.9713   16.6644 H       1  UNL1        0.2923
     17 C           7.1147    0.1190   17.6289 C.3     1  UNL1        0.2526
     18 O           6.8762   -1.3494   17.4372 O.3     1  UNL1       -0.4684
     19 C           7.2040   -4.2239   26.9442 C.ar    1  UNL1        0.0108
     20 C           7.5117   -5.6850   27.0871 C.ar    1  UNL1        0.0383
     21 C           8.1134   -6.2038   28.3595 C.ar    1  UNL1        0.1750
     22 C           8.4073   -5.2615   29.4889 C.ar    1  UNL1        0.2024
     23 O           9.0090   -5.7804   30.7613 O.3     1  UNL1       -0.5009
     24 C           8.0995   -3.8004   29.3461 C.ar    1  UNL1        0.1750
     25 C           7.4979   -3.2816   28.0737 C.ar    1  UNL1        0.0383
     26 H           9.2012   -6.6931   30.8505 H       1  UNL1        0.2924
     27 O           8.4211   -7.6650   28.5022 O.3     1  UNL1       -0.4683
     28 C           8.1869   -8.5969   27.3504 C.3     1  UNL1        0.2526
     29 O           8.3934   -2.8581   30.4755 O.3     1  UNL1       -0.4683
     30 C           7.9204   -1.4363   30.4085 C.3     1  UNL1        0.2526
@<TRIPOS>BOND
     1    17    18    1
     2    18     9    1
     3     9    10   ar
     4    10    11   ar
     5     1    11    1
     6     1     2    1
     7     2     3    1
     8     4     3    1
     9     4     5    1
    10     5    19    1
    11    19    20   ar
    12    20    21   ar
    13    21    27    1
    14    27    28    1
    15    21    22   ar
    16    22    23    1
    17    22    24   ar
    18    24    29    1
    19    29    30    1
    20    24    25   ar
    21     5     6    1
    22     6     7    1
    23     8     7    1
    24    11    12   ar
    25    12    13   ar
    26    13    14   ar
    27    14    15    1
    28    14     9   ar
    29     8     1    1
    30     8     4    1
    31    25    19   ar
    32    23    26    1
    33    15    16    1
@<TRIPOS>MOLECULE
*****
 30 33 0 0 0
SMALL
GASTEIGER

@<TRIPOS>ATOM
      1 C           1.6367    0.8950   25.7206 C.3     1  UNL1        0.1400
      2 O           0.8512    1.5592   24.6289 O.3     1  UNL1       -0.3517
      3 C           1.3773    1.0662   23.3136 C.3     1  UNL1        0.1454
      4 C           2.4880    0.0974   23.5923 C.3     1  UNL1        0.0662
      5 C           3.4996   -0.8061   22.9516 C.3     1  UNL1        0.1401
      6 O           4.2851   -1.4702   24.0433 O.3     1  UNL1       -0.3517
      7 C           3.7591   -0.9773   25.3587 C.3     1  UNL1        0.1454
      8 C           2.6484   -0.0084   25.0799 C.3     1  UNL1        0.0662
      9 C           1.6741    0.2347   29.6338 C.ar    1  UNL1        0.1719
     10 C           1.8664    0.0312   28.1601 C.ar    1  UNL1        0.0381
     11 C           1.4445    1.0985   27.1942 C.ar    1  UNL1        0.0078
     12 C           0.8303    2.3693   27.7020 C.ar    1  UNL1        0.0014
     13 C           0.6381    2.5727   29.1757 C.ar    1  UNL1        0.0395
     14 C           1.0600    1.5055   30.1416 C.ar    1  UNL1        0.1677
     15 O           0.8677    1.7090   31.6152 O.3     1  UNL1       -0.5029
     16 H           0.4840    2.5028   31.9324 H       1  UNL1        0.2923
     17 C           3.4346   -0.7497   31.2714 C.3     1  UNL1        0.2526
     18 O           2.0961   -0.8326   30.5996 O.3     1  UNL1       -0.4684
     19 C           3.6919   -1.0096   21.4780 C.ar    1  UNL1        0.0108
     20 C           3.4906   -2.3686   20.8760 C.ar    1  UNL1        0.0383
     21 C           3.6829   -2.5722   19.4024 C.ar    1  UNL1        0.1750
     22 C           4.0764   -1.4166   18.5307 C.ar    1  UNL1        0.2024
     23 O           4.2687   -1.6202   17.0570 O.3     1  UNL1       -0.5009
     24 C           4.2777   -0.0575   19.1327 C.ar    1  UNL1        0.1750
     25 C           4.0855    0.1460   20.6063 C.ar    1  UNL1        0.0383
     26 H           4.1429   -2.4692   16.6811 H       1  UNL1        0.2924
     27 O           3.4815   -3.9313   18.8005 O.3     1  UNL1       -0.4683
     28 C           4.5656   -4.9634   18.8990 C.3     1  UNL1        0.2526
     29 O           4.6713    1.0980   18.2610 O.3     1  UNL1       -0.4683
     30 C           3.9337    2.4001   18.3634 C.3     1  UNL1        0.2526
@<TRIPOS>BOND
     1    17    18    1
     2    18     9    1
     3     9    10   ar
     4    10    11   ar
     5     1    11    1
     6     1     2    1
     7     2     3    1
     8     4     3    1
     9     4     5    1
    10     5    19    1
    11    19    20   ar
    12    20    21   ar
    13    21    27    1
    14    27    28    1
    15    21    22   ar
    16    22    23    1
    17    22    24   ar
    18    24    29    1
    19    29    30    1
    20    24    25   ar
    21     5     6    1
    22     6     7    1
    23     8     7    1
    24    11    12   ar
    25    12    13   ar
    26    13    14   ar
    27    14    15    1
    28    14     9   ar
    29     8     1    1
    30     8     4    1
    31    25    19   ar
    32    23    26    1
    33    15    16    1
