@<TRIPOS>MOLECULE
*****
 39 42 0 0 0
SMALL
GASTEIGER

@<TRIPOS>ATOM
      1 C           1.2431    1.4963   20.4960 C.ar    1  UNL1        0.0611
      2 C           0.1915    2.5038   20.8551 C.ar    1  UNL1        0.1037
      3 N           0.0449    2.5088   22.3479 N.ar    1  UNL1       -0.2269
      4 C           1.0060    1.5044   22.9115 C.ar    1  UNL1        0.1407
      5 N           1.3024    1.0787   24.3189 N.ar    1  UNL1       -0.3374
      6 C           2.3394    0.0273   24.5818 C.ar    1  UNL1        0.0734
      7 C           3.0799   -0.5985   23.4372 C.ar    1  UNL1        0.0171
      8 C           2.7834   -0.1729   22.0298 C.ar    1  UNL1        0.0046
      9 C           1.7465    0.8786   21.7669 C.ar    1  UNL1        0.0386
     10 H           0.8164    1.4895   25.0701 H       1  UNL1        0.1674
     11 C           4.1169   -1.6500   23.7001 C.ar    1  UNL1        0.0015
     12 C           4.9320   -1.6014   24.9583 C.ar    1  UNL1        0.0014
     13 C           5.9690   -2.6529   25.2213 C.ar    1  UNL1        0.0183
     14 C           6.1908   -3.7529   24.2259 C.ar    1  UNL1        0.1057
     15 C           5.3756   -3.8015   22.9677 C.ar    1  UNL1        0.0183
     16 C           4.3387   -2.7500   22.7048 C.ar    1  UNL1        0.0014
     17 S           7.2278   -4.8044   24.4888 S.O2    1  UNL1        0.0087
     18 O           7.2279   -5.1681   23.0336 O.2     1  UNL1       -0.1686
     19 O           7.2277   -4.4407   25.9440 O.2     1  UNL1       -0.1686
     20 C           8.2647   -5.8558   24.7517 C.3     1  UNL1        0.1560
     21 C           8.4223   -7.0075   23.8036 C.3     1  UNL1        0.0276
     22 C           1.7094    1.1646   19.1095 C.2     1  UNL1        0.2015
     23 O           0.7399    0.6222   18.1017 O.2     1  UNL1       -0.2864
     24 C           5.4828    0.4055   18.1419 C.ar    1  UNL1        0.0920
     25 C           6.0175    1.7968   17.9732 C.ar    1  UNL1        0.0204
     26 C           5.1163    2.9773   18.1833 C.ar    1  UNL1        0.0312
     27 C           3.6803    2.7666   18.5620 C.ar    1  UNL1        0.1454
     28 F           2.7790    3.9471   18.7721 F       1  UNL1       -0.2040
     29 C           3.1455    1.3754   18.7307 C.ar    1  UNL1        0.0951
     30 C           4.0468    0.1949   18.5206 C.ar    1  UNL1        0.1598
     31 F           3.5120   -1.1964   18.6893 F       1  UNL1       -0.2026
     32 N           6.3840   -0.7750   17.9318 N.pl3   1  UNL1       -0.2166
     33 H           7.1445   -0.7092   17.3100 H       1  UNL1        0.1734
     34 S           6.1266   -2.0557   18.6690 S.O2    1  UNL1        0.0540
     35 O           5.6990   -2.7074   17.3874 O.2     1  UNL1       -0.1545
     36 O           6.5542   -1.4039   19.9505 O.2     1  UNL1       -0.1545
     37 C           5.8692   -3.3363   19.4062 C.3     1  UNL1        0.1724
     38 C           3.5511   -4.5088   19.4526 C.3     1  UNL1        0.0019
     39 C           4.9125   -4.3459   18.8444 C.3     1  UNL1        0.0273
@<TRIPOS>BOND
     1    38    39    1
     2    39    37    1
     3    37    34    1
     4    34    35    2
     5    34    36    2
     6    34    32    1
     7    32    24    1
     8    24    25   ar
     9    25    26   ar
    10    26    27   ar
    11    27    28    1
    12    27    29   ar
    13    29    22    1
    14    22    23    2
    15    22     1    1
    16     1     2   ar
    17     2     3   ar
    18     3     4   ar
    19     4     5   ar
    20     5     6   ar
    21     6     7   ar
    22     7    11    1
    23    11    12   ar
    24    12    13   ar
    25    13    14   ar
    26    14    17    1
    27    17    18    2
    28    17    19    2
    29    17    20    1
    30    20    21    1
    31    14    15   ar
    32    15    16   ar
    33     7     8   ar
    34     8     9   ar
    35    29    30   ar
    36    30    31    1
    37    30    24   ar
    38     9     1   ar
    39     9     4    1
    40    16    11   ar
    41    32    33    1
    42     5    10    1
@<TRIPOS>MOLECULE
*****
 39 42 0 0 0
SMALL
GASTEIGER

@<TRIPOS>ATOM
      1 C           5.0172   -3.3501   22.5688 C.ar    1  UNL1        0.0611
      2 C           6.0691   -3.9578   23.4487 C.ar    1  UNL1        0.1037
      3 N           6.0711   -3.2131   24.7507 N.ar    1  UNL1       -0.2269
      4 C           5.0204   -2.1451   24.6756 C.ar    1  UNL1        0.1407
      5 N           4.5727   -1.1065   25.6608 N.ar    1  UNL1       -0.3374
      6 C           3.4736   -0.1526   25.2975 C.ar    1  UNL1        0.0734
      7 C           2.8223   -0.2372   23.9490 C.ar    1  UNL1        0.0171
      8 C           3.2701   -1.2758   22.9637 C.ar    1  UNL1        0.0046
      9 C           4.3691   -2.2298   23.3270 C.ar    1  UNL1        0.0386
     10 H           5.0002   -1.0509   26.5459 H       1  UNL1        0.1674
     11 C           1.7232    0.7168   23.5857 C.ar    1  UNL1        0.0015
     12 C           1.3118    0.8761   22.1521 C.ar    1  UNL1        0.0014
     13 C           0.2126    1.8301   21.7888 C.ar    1  UNL1        0.0183
     14 C          -0.4750    2.6247   22.8592 C.ar    1  UNL1        0.1057
     15 C          -0.0635    2.4654   24.2929 C.ar    1  UNL1        0.0183
     16 C           1.0356    1.5114   24.6561 C.ar    1  UNL1        0.0014
     17 S          -1.5740    3.5787   22.4960 S.O2    1  UNL1        0.0087
     18 O          -1.2999    4.3687   23.7413 O.2     1  UNL1       -0.1686
     19 O          -1.8482    2.7887   21.2507 O.2     1  UNL1       -0.1686
     20 C          -2.6731    4.5327   22.1328 C.3     1  UNL1        0.1560
     21 C          -3.5044    4.2880   20.9085 C.3     1  UNL1        0.0276
     22 C           4.6738   -3.7861   21.1752 C.2     1  UNL1        0.2015
     23 O           3.9564   -5.0841   20.9508 O.2     1  UNL1       -0.2864
     24 C           4.3830   -1.2069   18.1729 C.ar    1  UNL1        0.0920
     25 C           5.7953   -1.1997   17.6677 C.ar    1  UNL1        0.0204
     26 C           6.8338   -2.0546   18.3316 C.ar    1  UNL1        0.0312
     27 C           6.4600   -2.9167   19.5007 C.ar    1  UNL1        0.1454
     28 F           7.4984   -3.7715   20.1647 F       1  UNL1       -0.2040
     29 C           5.0477   -2.9239   20.0060 C.ar    1  UNL1        0.0951
     30 C           4.0092   -2.0690   19.3421 C.ar    1  UNL1        0.1598
     31 F           2.5969   -2.0763   19.8474 F       1  UNL1       -0.2026
     32 N           3.3445   -0.3521   17.5090 N.pl3   1  UNL1       -0.2166
     33 H           2.9598   -0.6265   16.6453 H       1  UNL1        0.1734
     34 S           2.8923    0.9209   18.1609 S.O2    1  UNL1        0.0540
     35 O           4.2979    1.4427   18.1169 O.2     1  UNL1       -0.1545
     36 O           1.4867    0.3991   18.2049 O.2     1  UNL1       -0.1545
     37 C           2.4401    2.1938   18.8129 C.3     1  UNL1        0.1724
     38 C           0.7687    4.1815   18.8910 C.3     1  UNL1        0.0019
     39 C           1.1081    2.7858   18.4585 C.3     1  UNL1        0.0273
@<TRIPOS>BOND
     1    38    39    1
     2    39    37    1
     3    37    34    1
     4    34    35    2
     5    34    36    2
     6    34    32    1
     7    32    24    1
     8    24    25   ar
     9    25    26   ar
    10    26    27   ar
    11    27    28    1
    12    27    29   ar
    13    29    22    1
    14    22    23    2
    15    22     1    1
    16     1     2   ar
    17     2     3   ar
    18     3     4   ar
    19     4     5   ar
    20     5     6   ar
    21     6     7   ar
    22     7    11    1
    23    11    12   ar
    24    12    13   ar
    25    13    14   ar
    26    14    17    1
    27    17    18    2
    28    17    19    2
    29    17    20    1
    30    20    21    1
    31    14    15   ar
    32    15    16   ar
    33     7     8   ar
    34     8     9   ar
    35    29    30   ar
    36    30    31    1
    37    30    24   ar
    38     9     1   ar
    39     9     4    1
    40    16    11   ar
    41    32    33    1
    42     5    10    1
@<TRIPOS>MOLECULE
*****
 39 42 0 0 0
SMALL
GASTEIGER

@<TRIPOS>ATOM
      1 C           0.9648    1.3150   22.5337 C.ar    1  UNL1        0.0611
      2 C           0.2143    2.3650   23.2981 C.ar    1  UNL1        0.1037
      3 N           0.7002    2.3413   24.7170 N.ar    1  UNL1       -0.2269
      4 C           1.7510    1.2767   24.8295 C.ar    1  UNL1        0.1407
      5 N           2.5800    0.8030   25.9863 N.ar    1  UNL1       -0.3374
      6 C           3.5725   -0.3050   25.7937 C.ar    1  UNL1        0.0734
      7 C           3.7360   -0.9393   24.4443 C.ar    1  UNL1        0.0171
      8 C           2.9070   -0.4656   23.2875 C.ar    1  UNL1        0.0046
      9 C           1.9145    0.6424   23.4801 C.ar    1  UNL1        0.0386
     10 H           2.4727    1.2193   26.8720 H       1  UNL1        0.1674
     11 C           4.7286   -2.0474   24.2517 C.ar    1  UNL1        0.0015
     12 C           5.7958   -2.2852   25.2786 C.ar    1  UNL1        0.0014
     13 C           6.7884   -3.3933   25.0860 C.ar    1  UNL1        0.0183
     14 C           6.7137   -4.2635   23.8666 C.ar    1  UNL1        0.1057
     15 C           5.6464   -4.0257   22.8397 C.ar    1  UNL1        0.0183
     16 C           4.6539   -2.9177   23.0323 C.ar    1  UNL1        0.0014
     17 S           7.7062   -5.3716   23.6740 S.O2    1  UNL1        0.0087
     18 O           7.8302   -5.0084   22.2240 O.2     1  UNL1       -0.1686
     19 O           7.5821   -5.7348   25.1240 O.2     1  UNL1       -0.1686
     20 C           8.6987   -6.4796   23.4814 C.3     1  UNL1        0.1560
     21 C           8.7755   -7.5991   24.4768 C.3     1  UNL1        0.0276
     22 C           0.7953    0.9939   21.0782 C.2     1  UNL1        0.2015
     23 O          -0.5672    0.6863   20.5317 O.2     1  UNL1       -0.2864
     24 C           3.6395   -0.3209   18.6426 C.ar    1  UNL1        0.0920
     25 C           4.3749    0.9536   18.3514 C.ar    1  UNL1        0.0204
     26 C           3.9170    2.2416   18.9691 C.ar    1  UNL1        0.0312
     27 C           2.7239    2.2551   19.8780 C.ar    1  UNL1        0.1454
     28 F           2.2661    3.5430   20.4957 F       1  UNL1       -0.2040
     29 C           1.9886    0.9805   20.1693 C.ar    1  UNL1        0.0951
     30 C           2.4464   -0.3074   19.5515 C.ar    1  UNL1        0.1598
     31 F           1.7109   -1.5820   19.8428 F       1  UNL1       -0.2026
     32 N           4.0973   -1.6089   18.0249 N.pl3   1  UNL1       -0.2166
     33 H           3.6148   -1.9834   17.2528 H       1  UNL1        0.1734
     34 S           5.2903   -2.3262   18.5836 S.O2    1  UNL1        0.0540
     35 O           6.1599   -1.6950   17.5370 O.2     1  UNL1       -0.1545
     36 O           4.4208   -2.9574   19.6302 O.2     1  UNL1       -0.1545
     37 C           6.4833   -3.0435   19.1423 C.3     1  UNL1        0.1724
     38 C           7.0855   -1.1653   20.8335 C.3     1  UNL1        0.0019
     39 C           7.5094   -2.2885   19.9342 C.3     1  UNL1        0.0273
@<TRIPOS>BOND
     1    38    39    1
     2    39    37    1
     3    37    34    1
     4    34    35    2
     5    34    36    2
     6    34    32    1
     7    32    24    1
     8    24    25   ar
     9    25    26   ar
    10    26    27   ar
    11    27    28    1
    12    27    29   ar
    13    29    22    1
    14    22    23    2
    15    22     1    1
    16     1     2   ar
    17     2     3   ar
    18     3     4   ar
    19     4     5   ar
    20     5     6   ar
    21     6     7   ar
    22     7    11    1
    23    11    12   ar
    24    12    13   ar
    25    13    14   ar
    26    14    17    1
    27    17    18    2
    28    17    19    2
    29    17    20    1
    30    20    21    1
    31    14    15   ar
    32    15    16   ar
    33     7     8   ar
    34     8     9   ar
    35    29    30   ar
    36    30    31    1
    37    30    24   ar
    38     9     1   ar
    39     9     4    1
    40    16    11   ar
    41    32    33    1
    42     5    10    1
@<TRIPOS>MOLECULE
*****
 39 42 0 0 0
SMALL
GASTEIGER

@<TRIPOS>ATOM
      1 C          -3.1796    4.4341   21.3641 C.ar    1  UNL1        0.0611
      2 C          -3.6431    5.8270   21.0557 C.ar    1  UNL1        0.1037
      3 N          -2.7063    6.4132   20.0413 N.ar    1  UNL1       -0.2269
      4 C          -1.6639    5.3826   19.7229 C.ar    1  UNL1        0.1407
      5 N          -0.4862    5.3999   18.7942 N.ar    1  UNL1       -0.3374
      6 C           0.3990    4.1941   18.6830 C.ar    1  UNL1        0.0734
      7 C           0.1065    2.9710   19.5005 C.ar    1  UNL1        0.0171
      8 C          -1.0713    2.9537   20.4293 C.ar    1  UNL1        0.0046
      9 C          -1.9565    4.1595   20.5405 C.ar    1  UNL1        0.0386
     10 H          -0.2942    6.2027   18.2576 H       1  UNL1        0.1674
     11 C           0.9917    1.7651   19.3893 C.ar    1  UNL1        0.0015
     12 C           0.6334    0.5022   20.1148 C.ar    1  UNL1        0.0014
     13 C           1.5187   -0.7037   20.0036 C.ar    1  UNL1        0.0183
     14 C           2.7623   -0.6465   19.1668 C.ar    1  UNL1        0.1057
     15 C           3.1206    0.6166   18.4412 C.ar    1  UNL1        0.0183
     16 C           2.2353    1.8224   18.5525 C.ar    1  UNL1        0.0014
     17 S           3.6475   -1.8522   19.0555 S.O2    1  UNL1        0.0087
     18 O           3.8587   -1.5627   17.5990 O.2     1  UNL1       -0.1686
     19 O           3.4363   -2.1417   20.5121 O.2     1  UNL1       -0.1686
     20 C           4.5328   -3.0580   18.9443 C.3     1  UNL1        0.1560
     21 C           3.9365   -4.4334   18.9949 C.3     1  UNL1        0.0276
     22 C          -3.8259    3.4829   22.3272 C.2     1  UNL1        0.2015
     23 O          -4.7364    2.4045   21.8194 O.2     1  UNL1       -0.2864
     24 C          -1.9018    3.5807   25.7969 C.ar    1  UNL1        0.0920
     25 C          -3.0329    3.8643   26.7404 C.ar    1  UNL1        0.0204
     26 C          -4.4283    4.0209   26.2128 C.ar    1  UNL1        0.0312
     27 C          -4.6927    3.8937   24.7418 C.ar    1  UNL1        0.1454
     28 F          -6.0881    4.0502   24.2142 F       1  UNL1       -0.2040
     29 C          -3.5616    3.6101   23.7983 C.ar    1  UNL1        0.0951
     30 C          -2.1662    3.4535   24.3259 C.ar    1  UNL1        0.1598
     31 F          -1.0351    3.1699   23.3824 F       1  UNL1       -0.2026
     32 N          -0.5064    3.4242   26.3245 N.pl3   1  UNL1       -0.2166
     33 H           0.1817    4.0924   26.1024 H       1  UNL1        0.1734
     34 S          -0.1594    2.2496   27.1905 S.O2    1  UNL1        0.0540
     35 O          -0.2919    1.3378   26.0069 O.2     1  UNL1       -0.1545
     36 O          -0.0269    3.1614   28.3741 O.2     1  UNL1       -0.1545
     37 C           0.1877    1.0751   28.0565 C.3     1  UNL1        0.1724
     38 C          -1.8402    0.0633   29.3271 C.3     1  UNL1        0.0019
     39 C          -0.8033   -0.0346   28.2476 C.3     1  UNL1        0.0273
@<TRIPOS>BOND
     1    38    39    1
     2    39    37    1
     3    37    34    1
     4    34    35    2
     5    34    36    2
     6    34    32    1
     7    32    24    1
     8    24    25   ar
     9    25    26   ar
    10    26    27   ar
    11    27    28    1
    12    27    29   ar
    13    29    22    1
    14    22    23    2
    15    22     1    1
    16     1     2   ar
    17     2     3   ar
    18     3     4   ar
    19     4     5   ar
    20     5     6   ar
    21     6     7   ar
    22     7    11    1
    23    11    12   ar
    24    12    13   ar
    25    13    14   ar
    26    14    17    1
    27    17    18    2
    28    17    19    2
    29    17    20    1
    30    20    21    1
    31    14    15   ar
    32    15    16   ar
    33     7     8   ar
    34     8     9   ar
    35    29    30   ar
    36    30    31    1
    37    30    24   ar
    38     9     1   ar
    39     9     4    1
    40    16    11   ar
    41    32    33    1
    42     5    10    1
@<TRIPOS>MOLECULE
*****
 39 42 0 0 0
SMALL
GASTEIGER

@<TRIPOS>ATOM
      1 C           0.2702    2.5194   22.4674 C.ar    1  UNL1        0.0611
      2 C          -0.8351    2.9987   21.5737 C.ar    1  UNL1        0.1037
      3 N          -0.9043    2.0809   20.3892 N.ar    1  UNL1       -0.2269
      4 C           0.1582    1.0345   20.5509 C.ar    1  UNL1        0.1407
      5 N           0.5585   -0.1301   19.6945 N.ar    1  UNL1       -0.3374
      6 C           1.6847   -1.0237   20.1225 C.ar    1  UNL1        0.0734
      7 C           2.4105   -0.7526   21.4069 C.ar    1  UNL1        0.0171
      8 C           2.0102    0.4120   22.2633 C.ar    1  UNL1        0.0046
      9 C           0.8841    1.3055   21.8353 C.ar    1  UNL1        0.0386
     10 H           0.0821   -0.3080   18.8515 H       1  UNL1        0.1674
     11 C           3.5368   -1.6463   21.8349 C.ar    1  UNL1        0.0015
     12 C           3.9539   -1.6897   23.2750 C.ar    1  UNL1        0.0014
     13 C           5.0802   -2.5834   23.7030 C.ar    1  UNL1        0.0183
     14 C           5.7892   -3.4335   22.6908 C.ar    1  UNL1        0.1057
     15 C           5.3719   -3.3900   21.2506 C.ar    1  UNL1        0.0183
     16 C           4.2457   -2.4964   20.8227 C.ar    1  UNL1        0.0014
     17 S           6.9153   -4.3271   23.1187 S.O2    1  UNL1        0.0087
     18 O           7.1920   -4.6656   21.6839 O.2     1  UNL1       -0.1686
     19 O           6.6387   -3.9887   24.5536 O.2     1  UNL1       -0.1686
     20 C           8.0415   -5.2207   23.5466 C.3     1  UNL1        0.1560
     21 C           7.8373   -6.2030   24.6618 C.3     1  UNL1        0.0276
     22 C           0.6882    3.1444   23.7653 C.2     1  UNL1        0.2015
     23 O           1.6497    4.2955   23.7682 O.2     1  UNL1       -0.2864
     24 C           0.3712    1.0633   27.1297 C.ar    1  UNL1        0.0920
     25 C          -0.9426    1.5656   27.6510 C.ar    1  UNL1        0.0204
     26 C          -1.7128    2.5941   26.8770 C.ar    1  UNL1        0.0312
     27 C          -1.1693    3.1204   25.5818 C.ar    1  UNL1        0.1454
     28 F          -1.9395    4.1488   24.8079 F       1  UNL1       -0.2040
     29 C           0.1445    2.6181   25.0606 C.ar    1  UNL1        0.0951
     30 C           0.9147    1.5896   25.8346 C.ar    1  UNL1        0.1598
     31 F           2.2285    1.0874   25.3132 F       1  UNL1       -0.2026
     32 N           1.1414    0.0348   27.9037 N.pl3   1  UNL1       -0.2166
     33 H           1.3360   -0.8415   27.4995 H       1  UNL1        0.1734
     34 S           1.6150    0.3416   29.2935 S.O2    1  UNL1        0.0540
     35 O           2.6919    1.2221   28.7321 O.2     1  UNL1       -0.1545
     36 O           0.5382   -0.5389   29.8548 O.2     1  UNL1       -0.1545
     37 C           2.0886    0.6483   30.6833 C.3     1  UNL1        0.1724
     38 C           0.5357    2.5473   31.5391 C.3     1  UNL1        0.0019
     39 C           1.9120    2.0263   31.2488 C.3     1  UNL1        0.0273
@<TRIPOS>BOND
     1    38    39    1
     2    39    37    1
     3    37    34    1
     4    34    35    2
     5    34    36    2
     6    34    32    1
     7    32    24    1
     8    24    25   ar
     9    25    26   ar
    10    26    27   ar
    11    27    28    1
    12    27    29   ar
    13    29    22    1
    14    22    23    2
    15    22     1    1
    16     1     2   ar
    17     2     3   ar
    18     3     4   ar
    19     4     5   ar
    20     5     6   ar
    21     6     7   ar
    22     7    11    1
    23    11    12   ar
    24    12    13   ar
    25    13    14   ar
    26    14    17    1
    27    17    18    2
    28    17    19    2
    29    17    20    1
    30    20    21    1
    31    14    15   ar
    32    15    16   ar
    33     7     8   ar
    34     8     9   ar
    35    29    30   ar
    36    30    31    1
    37    30    24   ar
    38     9     1   ar
    39     9     4    1
    40    16    11   ar
    41    32    33    1
    42     5    10    1
@<TRIPOS>MOLECULE
*****
 39 42 0 0 0
SMALL
GASTEIGER

@<TRIPOS>ATOM
      1 C           6.6297   -3.2463   30.0101 C.ar    1  UNL1        0.0611
      2 C           6.7375   -4.1867   31.1737 C.ar    1  UNL1        0.1037
      3 N           6.9016   -5.5762   30.6330 N.ar    1  UNL1       -0.2269
      4 C           6.8952   -5.4945   29.1352 C.ar    1  UNL1        0.1407
      5 N           7.0207   -6.5453   28.0722 N.ar    1  UNL1       -0.3374
      6 C           6.9781   -6.1561   26.6242 C.ar    1  UNL1        0.0734
      7 C           6.8101   -4.7161   26.2393 C.ar    1  UNL1        0.0171
      8 C           6.6846   -3.6653   27.3023 C.ar    1  UNL1        0.0046
      9 C           6.7271   -4.0545   28.7502 C.ar    1  UNL1        0.0386
     10 H           7.1310   -7.4904   28.3249 H       1  UNL1        0.1674
     11 C           6.7675   -4.3270   24.7912 C.ar    1  UNL1        0.0015
     12 C           7.7185   -4.9568   23.8171 C.ar    1  UNL1        0.0014
     13 C           7.6759   -4.5676   22.3690 C.ar    1  UNL1        0.0183
     14 C           6.6824   -3.5486   21.8951 C.ar    1  UNL1        0.1057
     15 C           5.7314   -2.9188   22.8694 C.ar    1  UNL1        0.0183
     16 C           5.7740   -3.3080   24.3173 C.ar    1  UNL1        0.0014
     17 S           6.6398   -3.1595   20.4472 S.O2    1  UNL1        0.0087
     18 O           7.3386   -1.8727   20.7725 O.2     1  UNL1       -0.1686
     19 O           5.9410   -4.4462   20.1219 O.2     1  UNL1       -0.1686
     20 C           6.5972   -2.7703   18.9992 C.3     1  UNL1        0.1560
     21 C           5.3468   -2.9893   18.2002 C.3     1  UNL1        0.0276
     22 C           6.4551   -1.7587   30.0919 C.2     1  UNL1        0.2015
     23 O           7.6431   -0.8549   29.9453 O.2     1  UNL1       -0.2864
     24 C           2.7403   -0.5326   29.4229 C.ar    1  UNL1        0.0920
     25 C           2.3668   -0.0075   30.7774 C.ar    1  UNL1        0.0204
     26 C           3.3561   -0.0661   31.9034 C.ar    1  UNL1        0.0312
     27 C           4.7188   -0.6499   31.6750 C.ar    1  UNL1        0.1454
     28 F           5.7080   -0.7085   32.8010 F       1  UNL1       -0.2040
     29 C           5.0923   -1.1750   30.3205 C.ar    1  UNL1        0.0951
     30 C           4.1030   -1.1163   29.1944 C.ar    1  UNL1        0.1598
     31 F           4.4766   -1.6415   27.8399 F       1  UNL1       -0.2026
     32 N           1.7511   -0.4740   28.2968 N.pl3   1  UNL1       -0.2166
     33 H           1.8016   -1.1279   27.5626 H       1  UNL1        0.1734
     34 S           0.6848    0.5810   28.2895 S.O2    1  UNL1        0.0540
     35 O           1.6923    1.5962   27.8376 O.2     1  UNL1       -0.1545
     36 O          -0.3228   -0.4342   28.7413 O.2     1  UNL1       -0.1545
     37 C          -0.3815    1.6359   28.2821 C.3     1  UNL1        0.1724
     38 C          -1.3074    3.5178   26.7486 C.3     1  UNL1        0.0019
     39 C          -0.9991    2.0690   26.9855 C.3     1  UNL1        0.0273
@<TRIPOS>BOND
     1    38    39    1
     2    39    37    1
     3    37    34    1
     4    34    35    2
     5    34    36    2
     6    34    32    1
     7    32    24    1
     8    24    25   ar
     9    25    26   ar
    10    26    27   ar
    11    27    28    1
    12    27    29   ar
    13    29    22    1
    14    22    23    2
    15    22     1    1
    16     1     2   ar
    17     2     3   ar
    18     3     4   ar
    19     4     5   ar
    20     5     6   ar
    21     6     7   ar
    22     7    11    1
    23    11    12   ar
    24    12    13   ar
    25    13    14   ar
    26    14    17    1
    27    17    18    2
    28    17    19    2
    29    17    20    1
    30    20    21    1
    31    14    15   ar
    32    15    16   ar
    33     7     8   ar
    34     8     9   ar
    35    29    30   ar
    36    30    31    1
    37    30    24   ar
    38     9     1   ar
    39     9     4    1
    40    16    11   ar
    41    32    33    1
    42     5    10    1
@<TRIPOS>MOLECULE
*****
 39 42 0 0 0
SMALL
GASTEIGER

@<TRIPOS>ATOM
      1 C           7.5473   -3.7839   27.5100 C.ar    1  UNL1        0.0611
      2 C           7.8894   -5.1202   26.9206 C.ar    1  UNL1        0.1037
      3 N           7.7955   -6.1455   28.0114 N.ar    1  UNL1       -0.2269
      4 C           7.3953   -5.4430   29.2749 C.ar    1  UNL1        0.1407
      5 N           7.1508   -5.9438   30.6675 N.ar    1  UNL1       -0.3374
      6 C           6.7529   -4.9849   31.7502 C.ar    1  UNL1        0.0734
      7 C           6.5995   -3.5253   31.4403 C.ar    1  UNL1        0.0171
      8 C           6.8440   -3.0246   30.0477 C.ar    1  UNL1        0.0046
      9 C           7.2419   -3.9834   28.9650 C.ar    1  UNL1        0.0386
     10 H           7.2515   -6.9017   30.8709 H       1  UNL1        0.1674
     11 C           6.2016   -2.5665   32.5230 C.ar    1  UNL1        0.0015
     12 C           7.1872   -1.5553   33.0288 C.ar    1  UNL1        0.0014
     13 C           6.7893   -0.5964   34.1116 C.ar    1  UNL1        0.0183
     14 C           5.4057   -0.6489   34.6885 C.ar    1  UNL1        0.1057
     15 C           4.4200   -1.6602   34.1827 C.ar    1  UNL1        0.0183
     16 C           4.8180   -2.6189   33.1000 C.ar    1  UNL1        0.0014
     17 S           5.0077    0.3099   35.7713 S.O2    1  UNL1        0.0087
     18 O           5.8035   -0.4826   36.7655 O.2     1  UNL1       -0.1686
     19 O           4.2120    1.1024   34.7770 O.2     1  UNL1       -0.1686
     20 C           4.6098    1.2687   36.8540 C.3     1  UNL1        0.1560
     21 C           3.4282    0.9657   37.7270 C.3     1  UNL1        0.0276
     22 C           7.5160   -2.4775   26.7736 C.2     1  UNL1        0.2015
     23 O           8.7896   -1.7240   26.5285 O.2     1  UNL1       -0.2864
     24 C           4.1517   -0.3776   26.6235 C.ar    1  UNL1        0.0920
     25 C           3.6012   -0.8186   25.2997 C.ar    1  UNL1        0.0204
     26 C           4.3555   -1.8125   24.4673 C.ar    1  UNL1        0.0312
     27 C           5.6604   -2.3655   24.9585 C.ar    1  UNL1        0.1454
     28 F           6.4148   -3.3594   24.1260 F       1  UNL1       -0.2040
     29 C           6.2110   -1.9245   26.2823 C.ar    1  UNL1        0.0951
     30 C           5.4566   -0.9306   27.1148 C.ar    1  UNL1        0.1598
     31 F           6.0073   -0.4896   28.4386 F       1  UNL1       -0.2026
     32 N           3.3973    0.6163   27.4560 N.pl3   1  UNL1       -0.2166
     33 H           3.7258    1.5409   27.5368 H       1  UNL1        0.1734
     34 S           2.1425    0.2015   28.1655 S.O2    1  UNL1        0.0540
     35 O           2.9591   -0.5736   29.1566 O.2     1  UNL1       -0.1545
     36 O           1.3259    0.9767   27.1744 O.2     1  UNL1       -0.1545
     37 C           0.8877   -0.2132   28.8749 C.3     1  UNL1        0.1724
     38 C          -1.7044   -0.2013   29.0516 C.3     1  UNL1        0.0019
     39 C          -0.4462    0.2607   28.3784 C.3     1  UNL1        0.0273
@<TRIPOS>BOND
     1    38    39    1
     2    39    37    1
     3    37    34    1
     4    34    35    2
     5    34    36    2
     6    34    32    1
     7    32    24    1
     8    24    25   ar
     9    25    26   ar
    10    26    27   ar
    11    27    28    1
    12    27    29   ar
    13    29    22    1
    14    22    23    2
    15    22     1    1
    16     1     2   ar
    17     2     3   ar
    18     3     4   ar
    19     4     5   ar
    20     5     6   ar
    21     6     7   ar
    22     7    11    1
    23    11    12   ar
    24    12    13   ar
    25    13    14   ar
    26    14    17    1
    27    17    18    2
    28    17    19    2
    29    17    20    1
    30    20    21    1
    31    14    15   ar
    32    15    16   ar
    33     7     8   ar
    34     8     9   ar
    35    29    30   ar
    36    30    31    1
    37    30    24   ar
    38     9     1   ar
    39     9     4    1
    40    16    11   ar
    41    32    33    1
    42     5    10    1
@<TRIPOS>MOLECULE
*****
 39 42 0 0 0
SMALL
GASTEIGER

@<TRIPOS>ATOM
      1 C           5.2540   -2.3320   19.1498 C.ar    1  UNL1        0.0611
      2 C           5.7654   -1.6199   17.9327 C.ar    1  UNL1        0.1037
      3 N           7.2570   -1.7749   17.8975 N.ar    1  UNL1       -0.2269
      4 C           7.6674   -2.5829   19.0928 C.ar    1  UNL1        0.1407
      5 N           9.0084   -3.0496   19.5764 N.ar    1  UNL1       -0.3374
      6 C           9.1114   -3.8606   20.8340 C.ar    1  UNL1        0.0734
      7 C           7.8735   -4.2049   21.6080 C.ar    1  UNL1        0.0171
      8 C           6.5326   -3.7382   21.1244 C.ar    1  UNL1        0.0046
      9 C           6.4295   -2.9272   19.8668 C.ar    1  UNL1        0.0386
     10 H           9.8209   -2.8236   19.0684 H       1  UNL1        0.1674
     11 C           7.9767   -5.0160   22.8656 C.ar    1  UNL1        0.0015
     12 C           7.3669   -4.5073   24.1382 C.ar    1  UNL1        0.0014
     13 C           7.4700   -5.3184   25.3959 C.ar    1  UNL1        0.0183
     14 C           8.1829   -6.6380   25.3809 C.ar    1  UNL1        0.1057
     15 C           8.7928   -7.1467   24.1082 C.ar    1  UNL1        0.0183
     16 C           8.6896   -6.3356   22.8507 C.ar    1  UNL1        0.0014
     17 S           8.2861   -7.4491   26.6385 S.O2    1  UNL1        0.0087
     18 O           7.1928   -8.3506   26.1467 O.2     1  UNL1       -0.1686
     19 O           9.3794   -6.5476   27.1302 O.2     1  UNL1       -0.1686
     20 C           8.3892   -8.2601   27.8960 C.3     1  UNL1        0.1560
     21 C           9.4379   -7.9310   28.9168 C.3     1  UNL1        0.0276
     22 C           3.8191   -2.4315   19.5753 C.2     1  UNL1        0.2015
     23 O           3.0030   -3.6287   19.1871 O.2     1  UNL1       -0.2864
     24 C           2.5918   -0.3157   22.7005 C.ar    1  UNL1        0.0920
     25 C           1.9625    0.8616   22.0163 C.ar    1  UNL1        0.0204
     26 C           1.9520    0.9411   20.5185 C.ar    1  UNL1        0.0312
     27 C           2.5709   -0.1566   19.7048 C.ar    1  UNL1        0.1454
     28 F           2.5604   -0.0770   18.2069 F       1  UNL1       -0.2040
     29 C           3.2002   -1.3338   20.3890 C.ar    1  UNL1        0.0951
     30 C           3.2106   -1.4133   21.8868 C.ar    1  UNL1        0.1598
     31 F           3.8400   -2.5906   22.5709 F       1  UNL1       -0.2026
     32 N           2.6023   -0.3952   24.1984 N.pl3   1  UNL1       -0.2166
     33 H           1.7590   -0.5215   24.6905 H       1  UNL1        0.1734
     34 S           3.8975   -0.2822   24.9464 S.O2    1  UNL1        0.0540
     35 O           3.8883   -1.7629   25.1859 O.2     1  UNL1       -0.1545
     36 O           3.9067    1.1985   24.7068 O.2     1  UNL1       -0.1545
     37 C           5.1927   -0.1691   25.6944 C.3     1  UNL1        0.1724
     38 C           7.7305   -0.6726   25.4566 C.3     1  UNL1        0.0019
     39 C           6.3049   -1.1374   25.4190 C.3     1  UNL1        0.0273
@<TRIPOS>BOND
     1    38    39    1
     2    39    37    1
     3    37    34    1
     4    34    35    2
     5    34    36    2
     6    34    32    1
     7    32    24    1
     8    24    25   ar
     9    25    26   ar
    10    26    27   ar
    11    27    28    1
    12    27    29   ar
    13    29    22    1
    14    22    23    2
    15    22     1    1
    16     1     2   ar
    17     2     3   ar
    18     3     4   ar
    19     4     5   ar
    20     5     6   ar
    21     6     7   ar
    22     7    11    1
    23    11    12   ar
    24    12    13   ar
    25    13    14   ar
    26    14    17    1
    27    17    18    2
    28    17    19    2
    29    17    20    1
    30    20    21    1
    31    14    15   ar
    32    15    16   ar
    33     7     8   ar
    34     8     9   ar
    35    29    30   ar
    36    30    31    1
    37    30    24   ar
    38     9     1   ar
    39     9     4    1
    40    16    11   ar
    41    32    33    1
    42     5    10    1
@<TRIPOS>MOLECULE
*****
 39 42 0 0 0
SMALL
GASTEIGER

@<TRIPOS>ATOM
      1 C           3.5768   -1.6618   19.5097 C.ar    1  UNL1        0.0611
      2 C           3.3050   -0.9781   18.2025 C.ar    1  UNL1        0.1037
      3 N           2.7081    0.3660   18.4978 N.ar    1  UNL1       -0.2269
      4 C           2.6112    0.5131   19.9874 C.ar    1  UNL1        0.1407
      5 N           2.1034    1.6262   20.8551 N.ar    1  UNL1       -0.3374
      6 C           2.1325    1.4861   22.3483 C.ar    1  UNL1        0.0734
      7 C           2.6694    0.2329   22.9737 C.ar    1  UNL1        0.0171
      8 C           3.1772   -0.8803   22.1060 C.ar    1  UNL1        0.0046
      9 C           3.1481   -0.7402   20.6128 C.ar    1  UNL1        0.0386
     10 H           1.7510    2.4487   20.4447 H       1  UNL1        0.1674
     11 C           2.6984    0.0928   24.4669 C.ar    1  UNL1        0.0015
     12 C           1.8309    0.9704   25.3195 C.ar    1  UNL1        0.0014
     13 C           1.8599    0.8304   26.8128 C.ar    1  UNL1        0.0183
     14 C           2.7566   -0.1873   27.4532 C.ar    1  UNL1        0.1057
     15 C           3.6242   -1.0650   26.6005 C.ar    1  UNL1        0.0183
     16 C           3.5951   -0.9249   25.1074 C.ar    1  UNL1        0.0014
     17 S           2.7857   -0.3274   28.9464 S.O2    1  UNL1        0.0087
     18 O           4.2727   -0.1310   28.9358 O.2     1  UNL1       -0.1686
     19 O           1.2987   -0.5239   28.9569 O.2     1  UNL1       -0.1686
     20 C           2.8148   -0.4675   30.4395 C.3     1  UNL1        0.1560
     21 C           4.0834   -0.8718   31.1303 C.3     1  UNL1        0.0276
     22 C           4.1729   -3.0273   19.6833 C.2     1  UNL1        0.2015
     23 O           3.4103   -4.2404   19.2400 O.2     1  UNL1       -0.2864
     24 C           7.0212   -3.7907   22.3394 C.ar    1  UNL1        0.0920
     25 C           8.2491   -3.4843   21.5342 C.ar    1  UNL1        0.0204
     26 C           8.1183   -3.0256   20.1121 C.ar    1  UNL1        0.0312
     27 C           6.7596   -2.8732   19.4951 C.ar    1  UNL1        0.1454
     28 F           6.6288   -2.4144   18.0730 F       1  UNL1       -0.2040
     29 C           5.5317   -3.1796   20.3003 C.ar    1  UNL1        0.0951
     30 C           5.6625   -3.6384   21.7224 C.ar    1  UNL1        0.1598
     31 F           4.4345   -3.9448   22.5275 F       1  UNL1       -0.2026
     32 N           7.1520   -4.2495   23.7615 N.pl3   1  UNL1       -0.2166
     33 H           6.5422   -3.8984   24.4501 H       1  UNL1        0.1734
     34 S           8.2118   -5.2433   24.1345 S.O2    1  UNL1        0.0540
     35 O           8.6997   -4.3191   25.2105 O.2     1  UNL1       -0.1545
     36 O           7.7239   -6.1675   23.0585 O.2     1  UNL1       -0.1545
     37 C           9.2716   -6.2371   24.5074 C.3     1  UNL1        0.1724
     38 C           7.9774   -7.9133   26.0126 C.3     1  UNL1        0.0019
     39 C           8.8903   -7.6461   24.8528 C.3     1  UNL1        0.0273
@<TRIPOS>BOND
     1    38    39    1
     2    39    37    1
     3    37    34    1
     4    34    35    2
     5    34    36    2
     6    34    32    1
     7    32    24    1
     8    24    25   ar
     9    25    26   ar
    10    26    27   ar
    11    27    28    1
    12    27    29   ar
    13    29    22    1
    14    22    23    2
    15    22     1    1
    16     1     2   ar
    17     2     3   ar
    18     3     4   ar
    19     4     5   ar
    20     5     6   ar
    21     6     7   ar
    22     7    11    1
    23    11    12   ar
    24    12    13   ar
    25    13    14   ar
    26    14    17    1
    27    17    18    2
    28    17    19    2
    29    17    20    1
    30    20    21    1
    31    14    15   ar
    32    15    16   ar
    33     7     8   ar
    34     8     9   ar
    35    29    30   ar
    36    30    31    1
    37    30    24   ar
    38     9     1   ar
    39     9     4    1
    40    16    11   ar
    41    32    33    1
    42     5    10    1
