@<TRIPOS>MOLECULE
*****
 28 30 0 0 0
SMALL
GASTEIGER

@<TRIPOS>ATOM
      1 C          -9.8931  -18.8161   21.6718 C.3     1  UNL1        0.1502
      2 C         -11.0123  -19.2147   20.7562 C.3     1  UNL1        0.0309
      3 C         -12.2605  -18.5260   21.2229 C.3     1  UNL1        0.0236
      4 C         -11.9127  -17.7018   22.4269 C.3     1  UNL1        0.0912
      5 N         -10.4495  -17.8811   22.7044 N.pl3   1  UNL1       -0.3015
      6 C          -9.6782  -17.2383   23.8188 C.ar    1  UNL1        0.0481
      7 C          -9.6772  -17.8577   25.1849 C.ar    1  UNL1        0.0145
      8 C          -8.9059  -17.2149   26.2993 C.ar    1  UNL1        0.0051
      9 C          -8.1355  -15.9527   26.0475 C.ar    1  UNL1        0.0715
     10 C          -8.1365  -15.3333   24.6814 C.ar    1  UNL1        0.0051
     11 C          -8.9079  -15.9761   23.5671 C.ar    1  UNL1        0.0145
     12 C          -7.3642  -15.3099   27.1619 C.3     1  UNL1        0.4186
     13 F          -6.5929  -14.6671   28.2763 F       1  UNL1       -0.1659
     14 F          -6.0897  -15.8685   26.6021 F       1  UNL1       -0.1659
     15 F          -8.6387  -14.7512   27.7218 F       1  UNL1       -0.1659
     16 N          -7.6721  -18.9828   20.3342 N.am    1  UNL1       -0.2654
     17 C          -8.4677  -19.2724   21.5723 C.2     1  UNL1        0.2453
     18 O          -7.8378  -20.0184   22.7111 O.2     1  UNL1       -0.2730
     19 H          -8.0855  -18.4931   19.5868 H       1  UNL1        0.1564
     20 C          -3.8223  -19.4287   20.1205 C.ar    1  UNL1        0.1549
     21 C          -5.0354  -18.5543   20.2391 C.ar    1  UNL1        0.0733
     22 C          -6.2466  -19.4391   20.2347 C.ar    1  UNL1        0.1760
     23 N          -5.7822  -20.8602   20.1133 N.ar    1  UNL1       -0.0621
     24 O          -4.2839  -20.8538   20.0427 O.2     1  UNL1       -0.3565
     25 C          -2.1302  -19.6781   21.3752 C.3     1  UNL1        0.0076
     26 C          -2.3978  -18.9603   20.0857 C.3     1  UNL1        0.0539
     27 C          -2.6653  -18.2423   18.7961 C.3     1  UNL1        0.0076
     28 C          -0.9732  -18.4918   20.0509 C.3     1  UNL1        0.0076
@<TRIPOS>BOND
     1    25    26    1
     2    26    27    1
     3    26    28    1
     4    26    20    1
     5    20    21   ar
     6    21    22   ar
     7    22    16    1
     8    16    17   am
     9    17    18    2
    10     1    17    1
    11     1     2    1
    12     2     3    1
    13     3     4    1
    14     4     5    1
    15     5     6    1
    16     6     7   ar
    17     7     8   ar
    18     8     9   ar
    19     9    12    1
    20    12    13    1
    21    12    14    1
    22    12    15    1
    23     9    10   ar
    24    10    11   ar
    25    22    23   ar
    26    23    24   ar
    27    24    20   ar
    28     5     1    1
    29    11     6   ar
    30    16    19    1
@<TRIPOS>MOLECULE
*****
 28 30 0 0 0
SMALL
GASTEIGER

@<TRIPOS>ATOM
      1 C          -6.4429  -15.6703   25.4776 C.3     1  UNL1        0.1502
      2 C          -5.9538  -15.0026   26.7285 C.3     1  UNL1        0.0309
      3 C          -7.1072  -14.9037   27.6825 C.3     1  UNL1        0.0236
      4 C          -8.3091  -15.5103   27.0210 C.3     1  UNL1        0.0912
      5 N          -7.8986  -15.9841   25.6583 N.pl3   1  UNL1       -0.3015
      6 C          -8.7876  -16.6540   24.6529 C.ar    1  UNL1        0.0481
      7 C          -8.8834  -16.1120   23.2575 C.ar    1  UNL1        0.0145
      8 C          -9.7724  -16.7820   22.2522 C.ar    1  UNL1        0.0051
      9 C         -10.5655  -17.9940   22.6421 C.ar    1  UNL1        0.0715
     10 C         -10.4697  -18.5360   24.0375 C.ar    1  UNL1        0.0051
     11 C          -9.5807  -17.8660   25.0428 C.ar    1  UNL1        0.0145
     12 C         -11.4545  -18.6639   21.6367 C.3     1  UNL1        0.4186
     13 F         -12.3435  -19.3338   20.6312 F       1  UNL1       -0.1659
     14 F         -11.0515  -20.0051   22.1739 F       1  UNL1       -0.1659
     15 F         -11.8576  -17.3227   21.0995 F       1  UNL1       -0.1659
     16 N          -5.2630  -17.3898   23.9280 N.am    1  UNL1       -0.2654
     17 C          -5.6207  -15.9713   24.2596 C.2     1  UNL1        0.2453
     18 O          -5.1563  -14.8539   23.3733 O.2     1  UNL1       -0.2730
     19 H          -5.5678  -18.1232   24.5097 H       1  UNL1        0.1564
     20 C          -2.5857  -17.8135   21.1499 C.ar    1  UNL1        0.1549
     21 C          -3.0031  -17.3167   22.5023 C.ar    1  UNL1        0.0733
     22 C          -4.4408  -17.6908   22.7101 C.ar    1  UNL1        0.1760
     23 N          -4.9119  -18.4188   21.4861 N.ar    1  UNL1       -0.0621
     24 O          -3.7654  -18.4947   20.5219 O.2     1  UNL1       -0.3565
     25 C          -1.3338  -19.0334   19.9481 C.3     1  UNL1        0.0076
     26 C          -1.2271  -17.6567   20.5337 C.3     1  UNL1        0.0539
     27 C          -1.1205  -16.2798   21.1193 C.3     1  UNL1        0.0076
     28 C           0.1315  -17.4998   19.9175 C.3     1  UNL1        0.0076
@<TRIPOS>BOND
     1    25    26    1
     2    26    27    1
     3    26    28    1
     4    26    20    1
     5    20    21   ar
     6    21    22   ar
     7    22    16    1
     8    16    17   am
     9    17    18    2
    10     1    17    1
    11     1     2    1
    12     2     3    1
    13     3     4    1
    14     4     5    1
    15     5     6    1
    16     6     7   ar
    17     7     8   ar
    18     8     9   ar
    19     9    12    1
    20    12    13    1
    21    12    14    1
    22    12    15    1
    23     9    10   ar
    24    10    11   ar
    25    22    23   ar
    26    23    24   ar
    27    24    20   ar
    28     5     1    1
    29    11     6   ar
    30    16    19    1
@<TRIPOS>MOLECULE
*****
 28 30 0 0 0
SMALL
GASTEIGER

@<TRIPOS>ATOM
      1 C          -6.7840  -16.0266   24.1562 C.3     1  UNL1        0.1502
      2 C          -7.4503  -15.4448   25.3676 C.3     1  UNL1        0.0309
      3 C          -6.3865  -15.1405   26.3805 C.3     1  UNL1        0.0236
      4 C          -5.0628  -15.5343   25.7950 C.3     1  UNL1        0.0912
      5 N          -5.3084  -16.0819   24.4204 N.pl3   1  UNL1       -0.3015
      6 C          -4.2622  -16.5949   23.4756 C.ar    1  UNL1        0.0481
      7 C          -4.0986  -18.0713   23.2676 C.ar    1  UNL1        0.0145
      8 C          -3.0525  -18.5841   22.3229 C.ar    1  UNL1        0.0051
      9 C          -2.1699  -17.6206   21.5863 C.ar    1  UNL1        0.0715
     10 C          -2.3335  -16.1441   21.7943 C.ar    1  UNL1        0.0051
     11 C          -3.3797  -15.6313   22.7390 C.ar    1  UNL1        0.0145
     12 C          -1.1237  -18.1335   20.6415 C.3     1  UNL1        0.4186
     13 F          -0.0776  -18.6464   19.6968 F       1  UNL1       -0.1659
     14 F          -0.5611  -16.7490   20.5128 F       1  UNL1       -0.1659
     15 F          -1.6863  -19.5180   20.7702 F       1  UNL1       -0.1659
     16 N          -7.8676  -17.9118   22.7343 N.am    1  UNL1       -0.2654
     17 C          -7.4724  -16.4745   22.9011 C.2     1  UNL1        0.2453
     18 O          -7.7656  -15.4850   21.8125 O.2     1  UNL1       -0.2730
     19 H          -7.6751  -18.5613   23.4487 H       1  UNL1        0.1564
     20 C          -9.1073  -19.5941   19.4635 C.ar    1  UNL1        0.1549
     21 C          -8.1385  -19.5051   20.6053 C.ar    1  UNL1        0.0733
     22 C          -8.5560  -18.3596   21.4791 C.ar    1  UNL1        0.1760
     23 N          -9.7827  -17.7407   20.8774 N.ar    1  UNL1       -0.0621
     24 O         -10.1234  -18.5036   19.6317 O.2     1  UNL1       -0.3565
     25 C         -10.4302  -20.1578   17.9040 C.3     1  UNL1        0.0076
     26 C          -9.0669  -20.5974   18.3491 C.3     1  UNL1        0.0539
     27 C          -7.7036  -21.0370   18.7943 C.3     1  UNL1        0.0076
     28 C          -9.0266  -21.6007   17.2348 C.3     1  UNL1        0.0076
@<TRIPOS>BOND
     1    25    26    1
     2    26    27    1
     3    26    28    1
     4    26    20    1
     5    20    21   ar
     6    21    22   ar
     7    22    16    1
     8    16    17   am
     9    17    18    2
    10     1    17    1
    11     1     2    1
    12     2     3    1
    13     3     4    1
    14     4     5    1
    15     5     6    1
    16     6     7   ar
    17     7     8   ar
    18     8     9   ar
    19     9    12    1
    20    12    13    1
    21    12    14    1
    22    12    15    1
    23     9    10   ar
    24    10    11   ar
    25    22    23   ar
    26    23    24   ar
    27    24    20   ar
    28     5     1    1
    29    11     6   ar
    30    16    19    1
@<TRIPOS>MOLECULE
*****
 28 30 0 0 0
SMALL
GASTEIGER

@<TRIPOS>ATOM
      1 C          -3.9261  -19.0910   21.7049 C.3     1  UNL1        0.1502
      2 C          -2.5432  -19.4755   21.2694 C.3     1  UNL1        0.0309
      3 C          -2.6665  -20.3736   20.0743 C.3     1  UNL1        0.0236
      4 C          -4.1257  -20.5442   19.7713 C.3     1  UNL1        0.0912
      5 N          -4.9041  -19.7515   20.7791 N.pl3   1  UNL1       -0.3015
      6 C          -6.3983  -19.6391   20.8489 C.ar    1  UNL1        0.0481
      7 C          -7.1006  -19.7837   22.1663 C.ar    1  UNL1        0.0145
      8 C          -8.5948  -19.6712   22.2360 C.ar    1  UNL1        0.0051
      9 C          -9.3866  -19.4141   20.9882 C.ar    1  UNL1        0.0715
     10 C          -8.6842  -19.2695   19.6708 C.ar    1  UNL1        0.0051
     11 C          -7.1901  -19.3820   19.6011 C.ar    1  UNL1        0.0145
     12 C         -10.8808  -19.3017   21.0580 C.3     1  UNL1        0.4186
     13 F         -12.3749  -19.1892   21.1277 F       1  UNL1       -0.1659
     14 F         -10.8997  -20.2655   22.2071 F       1  UNL1       -0.1659
     15 F         -10.8618  -18.3378   19.9088 F       1  UNL1       -0.1659
     16 N          -5.3254  -17.1467   22.7107 N.am    1  UNL1       -0.2654
     17 C          -4.2705  -18.2021   22.8630 C.2     1  UNL1        0.2453
     18 O          -3.5599  -18.3685   24.1735 O.2     1  UNL1       -0.2730
     19 H          -5.7917  -17.0374   21.8506 H       1  UNL1        0.1564
     20 C          -6.8070  -15.3072   25.7907 C.ar    1  UNL1        0.1549
     21 C          -6.8548  -16.4106   24.7756 C.ar    1  UNL1        0.0733
     22 C          -5.6697  -16.2577   23.8688 C.ar    1  UNL1        0.1760
     23 N          -4.8896  -15.0599   24.3234 N.ar    1  UNL1       -0.0621
     24 O          -5.5924  -14.4725   25.5112 O.2     1  UNL1       -0.3565
     25 C          -6.7019  -14.5617   27.7739 C.3     1  UNL1        0.0076
     26 C          -7.7995  -15.0786   26.8919 C.3     1  UNL1        0.0539
     27 C          -8.8972  -15.5956   26.0099 C.3     1  UNL1        0.0076
     28 C          -8.7920  -14.8501   27.9931 C.3     1  UNL1        0.0076
@<TRIPOS>BOND
     1    25    26    1
     2    26    27    1
     3    26    28    1
     4    26    20    1
     5    20    21   ar
     6    21    22   ar
     7    22    16    1
     8    16    17   am
     9    17    18    2
    10     1    17    1
    11     1     2    1
    12     2     3    1
    13     3     4    1
    14     4     5    1
    15     5     6    1
    16     6     7   ar
    17     7     8   ar
    18     8     9   ar
    19     9    12    1
    20    12    13    1
    21    12    14    1
    22    12    15    1
    23     9    10   ar
    24    10    11   ar
    25    22    23   ar
    26    23    24   ar
    27    24    20   ar
    28     5     1    1
    29    11     6   ar
    30    16    19    1
@<TRIPOS>MOLECULE
*****
 28 30 0 0 0
SMALL
GASTEIGER

@<TRIPOS>ATOM
      1 C         -14.3152   -1.6006   18.3399 C.3     1  UNL1        0.1502
      2 C         -14.6597   -0.1440   18.2416 C.3     1  UNL1        0.0309
      3 C         -13.3793    0.6373   18.2591 C.3     1  UNL1        0.0236
      4 C         -12.2435   -0.3364   18.3682 C.3     1  UNL1        0.0912
      5 N         -12.8219   -1.7195   18.4182 N.pl3   1  UNL1       -0.3015
      6 C         -12.0438   -2.9973   18.5272 C.ar    1  UNL1        0.0481
      7 C         -10.6471   -3.0734   17.9854 C.ar    1  UNL1        0.0145
      8 C          -9.8690   -4.3511   18.0944 C.ar    1  UNL1        0.0051
      9 C         -10.4876   -5.5527   18.7453 C.ar    1  UNL1        0.0715
     10 C         -11.8842   -5.4766   19.2871 C.ar    1  UNL1        0.0051
     11 C         -12.6623   -4.1989   19.1780 C.ar    1  UNL1        0.0145
     12 C          -9.7094   -6.8305   18.8543 C.3     1  UNL1        0.4186
     13 F          -8.9313   -8.1082   18.9633 F       1  UNL1       -0.1659
     14 F          -8.8789   -6.2313   19.9503 F       1  UNL1       -0.1659
     15 F         -10.5398   -7.4297   17.7583 F       1  UNL1       -0.1659
     16 N         -15.9664   -3.1292   19.6387 N.am    1  UNL1       -0.2654
     17 C         -15.2924   -2.7384   18.3569 C.2     1  UNL1        0.2453
     18 O         -15.5957   -3.4856   17.0921 O.2     1  UNL1       -0.2730
     19 H         -15.7673   -2.6388   20.4689 H       1  UNL1        0.1564
     20 C         -17.8788   -6.5067   19.6594 C.ar    1  UNL1        0.1549
     21 C         -16.5980   -5.7264   19.6292 C.ar    1  UNL1        0.0733
     22 C         -16.9436   -4.2671   19.6557 C.ar    1  UNL1        0.1760
     23 N         -18.4379   -4.1453   19.7023 N.ar    1  UNL1       -0.0621
     24 O         -19.0159   -5.5294   19.7045 O.2     1  UNL1       -0.3565
     25 C         -16.5755   -8.1143   19.1939 C.3     1  UNL1        0.0076
     26 C         -18.0010   -8.0016   19.6466 C.3     1  UNL1        0.0539
     27 C         -19.4267   -7.8890   20.0993 C.3     1  UNL1        0.0076
     28 C         -18.1232   -9.4966   19.6338 C.3     1  UNL1        0.0076
@<TRIPOS>BOND
     1    25    26    1
     2    26    27    1
     3    26    28    1
     4    26    20    1
     5    20    21   ar
     6    21    22   ar
     7    22    16    1
     8    16    17   am
     9    17    18    2
    10     1    17    1
    11     1     2    1
    12     2     3    1
    13     3     4    1
    14     4     5    1
    15     5     6    1
    16     6     7   ar
    17     7     8   ar
    18     8     9   ar
    19     9    12    1
    20    12    13    1
    21    12    14    1
    22    12    15    1
    23     9    10   ar
    24    10    11   ar
    25    22    23   ar
    26    23    24   ar
    27    24    20   ar
    28     5     1    1
    29    11     6   ar
    30    16    19    1
@<TRIPOS>MOLECULE
*****
 28 30 0 0 0
SMALL
GASTEIGER

@<TRIPOS>ATOM
      1 C          -7.5953  -15.9464   25.1501 C.3     1  UNL1        0.1502
      2 C          -8.3231  -15.4636   26.3696 C.3     1  UNL1        0.0309
      3 C          -7.3012  -15.0160   27.3723 C.3     1  UNL1        0.0236
      4 C          -5.9419  -15.2221   26.7725 C.3     1  UNL1        0.0912
      5 N          -6.1237  -15.7972   25.3991 N.pl3   1  UNL1       -0.3015
      6 C          -5.0264  -16.1594   24.4425 C.ar    1  UNL1        0.0481
      7 C          -4.6453  -15.2112   23.3445 C.ar    1  UNL1        0.0145
      8 C          -3.5481  -15.5734   22.3880 C.ar    1  UNL1        0.0051
      9 C          -2.8321  -16.8839   22.5295 C.ar    1  UNL1        0.0715
     10 C          -3.2132  -17.8321   23.6275 C.ar    1  UNL1        0.0051
     11 C          -4.3104  -17.4698   24.5840 C.ar    1  UNL1        0.0145
     12 C          -1.7348  -17.2461   21.5730 C.3     1  UNL1        0.4186
     13 F          -0.6376  -17.6082   20.6164 F       1  UNL1       -0.1659
     14 F          -2.1253  -18.6909   21.6721 F       1  UNL1       -0.1659
     15 F          -1.3443  -15.8012   21.4739 F       1  UNL1       -0.1659
     16 N          -8.8309  -17.8576   23.8968 N.am    1  UNL1       -0.2654
     17 C          -8.2281  -16.4841   23.9009 C.2     1  UNL1        0.2453
     18 O          -8.2582  -15.6482   22.6558 O.2     1  UNL1       -0.2730
     19 H          -8.8112  -18.4062   24.7140 H       1  UNL1        0.1564
     20 C          -9.7578  -19.3684   20.4437 C.ar    1  UNL1        0.1549
     21 C          -8.7359  -18.9471   21.4578 C.ar    1  UNL1        0.0733
     22 C          -9.4637  -18.3952   22.6476 C.ar    1  UNL1        0.1760
     23 N         -10.9354  -18.4753   22.3689 N.ar    1  UNL1       -0.0621
     24 O         -11.1172  -19.0768   21.0069 O.2     1  UNL1       -0.3565
     25 C          -8.0722  -20.2892   19.5435 C.3     1  UNL1        0.0076
     26 C          -9.4708  -19.9747   19.1021 C.3     1  UNL1        0.0539
     27 C         -10.8695  -19.6603   18.6607 C.3     1  UNL1        0.0076
     28 C          -9.1837  -20.5811   17.7605 C.3     1  UNL1        0.0076
@<TRIPOS>BOND
     1    25    26    1
     2    26    27    1
     3    26    28    1
     4    26    20    1
     5    20    21   ar
     6    21    22   ar
     7    22    16    1
     8    16    17   am
     9    17    18    2
    10     1    17    1
    11     1     2    1
    12     2     3    1
    13     3     4    1
    14     4     5    1
    15     5     6    1
    16     6     7   ar
    17     7     8   ar
    18     8     9   ar
    19     9    12    1
    20    12    13    1
    21    12    14    1
    22    12    15    1
    23     9    10   ar
    24    10    11   ar
    25    22    23   ar
    26    23    24   ar
    27    24    20   ar
    28     5     1    1
    29    11     6   ar
    30    16    19    1
