@<TRIPOS>MOLECULE
*****
 32 35 0 0 0
SMALL
GASTEIGER

@<TRIPOS>ATOM
      1 N          -7.7160  -19.6269   21.4592 N.3     1  UNL1       -0.2679
      2 C          -8.4862  -19.2334   22.6848 C.3     1  UNL1        0.0978
      3 C          -9.3767  -20.2315   23.3636 C.3     1  UNL1        0.0224
      4 C         -10.1469  -19.8380   24.5891 C.3     1  UNL1        0.0065
      5 C         -10.0266  -18.4464   25.1358 C.3     1  UNL1        0.0277
      6 C          -9.1361  -17.4483   24.4570 C.ar    1  UNL1       -0.0073
      7 C          -9.0158  -16.0566   25.0038 C.ar    1  UNL1       -0.0015
      8 C          -8.1253  -15.0586   24.3250 C.ar    1  UNL1        0.0203
      9 C          -7.3551  -15.4521   23.0995 C.ar    1  UNL1        0.0985
     10 N          -7.4754  -16.8436   22.5527 N.ar    1  UNL1       -0.2471
     11 C          -8.3659  -17.8418   23.2315 C.ar    1  UNL1        0.0695
     12 C          -8.2930  -19.3751   20.0978 C.3     1  UNL1        0.0725
     13 C          -9.6683  -19.8714   19.7625 C.3     1  UNL1        0.0188
     14 C         -10.8210  -18.9127   19.7157 C.3     1  UNL1        0.0188
     15 C         -11.5692  -18.5777   20.9719 C.3     1  UNL1        0.0721
     16 N         -11.6454  -17.1555   21.4428 N.3     1  UNL1       -0.2727
     17 C         -13.2551  -17.8537   23.3589 C.3     1  UNL1        0.0188
     18 C         -12.3854  -16.8217   22.7041 C.3     1  UNL1        0.0721
     19 C         -10.9815  -16.0672   20.6523 C.3     1  UNL1        0.0721
     20 C         -11.5921  -15.5951   19.3662 C.3     1  UNL1        0.0188
     21 C          -6.3688  -20.2722   21.5951 C.3     1  UNL1        0.0886
     22 C          -5.1264  -19.4335   21.5398 C.3     1  UNL1        0.0764
     23 C          -4.2317  -19.4967   20.3375 C.3     1  UNL1        0.0626
     24 C          -2.9893  -18.6580   20.2822 C.ar    1  UNL1        0.0577
     25 N          -2.0946  -18.7212   19.0800 N.ar    1  UNL1       -0.2484
     26 C          -0.8523  -17.8825   19.0247 C.ar    1  UNL1        0.0984
     27 C          -0.5046  -16.9806   20.1717 C.ar    1  UNL1        0.0204
     28 C          -1.3993  -16.9173   21.3739 C.ar    1  UNL1       -0.0002
     29 C          -2.6416  -17.7560   21.4292 C.ar    1  UNL1        0.0073
     30 C          -3.5364  -17.6928   22.6315 C.3     1  UNL1        0.0968
     31 N          -4.7787  -18.5315   22.6868 N.3     1  UNL1       -0.2934
     32 H          -5.5625  -17.8894   22.8045 H       1  UNL1        0.1236
@<TRIPOS>BOND
     1    17    18    1
     2    18    16    1
     3    16    19    1
     4    19    20    1
     5    16    15    1
     6    15    14    1
     7    14    13    1
     8    13    12    1
     9    12     1    1
    10     1    21    1
    11    22    21    1
    12    22    23    1
    13    23    24    1
    14    24    25   ar
    15    25    26   ar
    16    26    27   ar
    17    27    28   ar
    18    28    29   ar
    19    29    30    1
    20    30    31    1
    21     2     1    1
    22     2     3    1
    23     3     4    1
    24     4     5    1
    25     5     6    1
    26     6     7   ar
    27     7     8   ar
    28     8     9   ar
    29     9    10   ar
    30    10    11   ar
    31    31    22    1
    32    11     2    1
    33    29    24   ar
    34    11     6   ar
    35    31    32    1
@<TRIPOS>MOLECULE
*****
 32 35 0 0 0
SMALL
GASTEIGER

@<TRIPOS>ATOM
      1 N          -7.7220  -18.9566   21.3478 N.3     1  UNL1       -0.2679
      2 C          -8.9469  -19.1871   22.1823 C.3     1  UNL1        0.0978
      3 C          -8.9045  -20.1588   23.3242 C.3     1  UNL1        0.0224
      4 C         -10.1294  -20.3894   24.1587 C.3     1  UNL1        0.0065
      5 C         -11.3967  -19.6482   23.8514 C.3     1  UNL1        0.0277
      6 C         -11.4391  -18.6765   22.7095 C.ar    1  UNL1       -0.0073
      7 C         -12.7065  -17.9352   22.4022 C.ar    1  UNL1       -0.0015
      8 C         -12.7489  -16.9635   21.2603 C.ar    1  UNL1        0.0203
      9 C         -11.5240  -16.7330   20.4257 C.ar    1  UNL1        0.0985
     10 N         -10.2567  -17.4742   20.7331 N.ar    1  UNL1       -0.2471
     11 C         -10.2142  -18.4459   21.8750 C.ar    1  UNL1        0.0695
     12 C          -7.2172  -20.0399   20.4414 C.3     1  UNL1        0.0725
     13 C          -5.9556  -20.7761   20.7826 C.3     1  UNL1        0.0188
     14 C          -4.6505  -20.3466   20.1810 C.3     1  UNL1        0.0188
     15 C          -3.5578  -19.8157   21.0608 C.3     1  UNL1        0.0721
     16 N          -2.8990  -18.5086   20.7327 N.3     1  UNL1       -0.2727
     17 C          -1.7315  -17.8878   18.4963 C.3     1  UNL1        0.0188
     18 C          -2.9710  -17.9618   19.3378 C.3     1  UNL1        0.0721
     19 C          -2.1683  -17.7483   21.7995 C.3     1  UNL1        0.0721
     20 C          -2.0588  -16.2548   21.7146 C.3     1  UNL1        0.0188
     21 C          -7.0018  -17.6428   21.4197 C.3     1  UNL1        0.0886
     22 C          -6.7079  -17.0205   22.7526 C.3     1  UNL1        0.0764
     23 C          -7.8318  -16.6812   23.6861 C.3     1  UNL1        0.0626
     24 C          -7.5378  -16.0589   25.0189 C.ar    1  UNL1        0.0577
     25 N          -8.6618  -15.7196   25.9525 N.ar    1  UNL1       -0.2484
     26 C          -8.3678  -15.0974   27.2853 C.ar    1  UNL1        0.0984
     27 C          -6.9498  -14.8145   27.6845 C.ar    1  UNL1        0.0204
     28 C          -5.8259  -15.1539   26.7510 C.ar    1  UNL1       -0.0002
     29 C          -6.1199  -15.7761   25.4182 C.ar    1  UNL1        0.0073
     30 C          -4.9959  -16.1155   24.4846 C.3     1  UNL1        0.0968
     31 N          -5.2899  -16.7377   23.1518 N.3     1  UNL1       -0.2934
     32 H          -4.7937  -17.6285   23.1269 H       1  UNL1        0.1236
@<TRIPOS>BOND
     1    17    18    1
     2    18    16    1
     3    16    19    1
     4    19    20    1
     5    16    15    1
     6    15    14    1
     7    14    13    1
     8    13    12    1
     9    12     1    1
    10     1    21    1
    11    22    21    1
    12    22    23    1
    13    23    24    1
    14    24    25   ar
    15    25    26   ar
    16    26    27   ar
    17    27    28   ar
    18    28    29   ar
    19    29    30    1
    20    30    31    1
    21     2     1    1
    22     2     3    1
    23     3     4    1
    24     4     5    1
    25     5     6    1
    26     6     7   ar
    27     7     8   ar
    28     8     9   ar
    29     9    10   ar
    30    10    11   ar
    31    31    22    1
    32    11     2    1
    33    29    24   ar
    34    11     6   ar
    35    31    32    1
@<TRIPOS>MOLECULE
*****
 32 35 0 0 0
SMALL
GASTEIGER

@<TRIPOS>ATOM
      1 N          -8.7327  -17.9448   21.3095 N.3     1  UNL1       -0.2679
      2 C         -10.1734  -17.5276   21.2957 C.3     1  UNL1        0.0978
      3 C         -10.7129  -16.7327   20.1437 C.3     1  UNL1        0.0224
      4 C         -12.1537  -16.3154   20.1298 C.3     1  UNL1        0.0065
      5 C         -13.0549  -16.6931   21.2679 C.3     1  UNL1        0.0277
      6 C         -12.5153  -17.4880   22.4198 C.ar    1  UNL1       -0.0073
      7 C         -13.4165  -17.8657   23.5579 C.ar    1  UNL1       -0.0015
      8 C         -12.8770  -18.6606   24.7099 C.ar    1  UNL1        0.0203
      9 C         -11.4363  -19.0778   24.7238 C.ar    1  UNL1        0.0985
     10 N         -10.5351  -18.7002   23.5857 N.ar    1  UNL1       -0.2471
     11 C         -11.0746  -17.9052   22.4337 C.ar    1  UNL1        0.0695
     12 C          -8.3702  -19.3939   21.1729 C.3     1  UNL1        0.0725
     13 C          -6.9445  -19.8294   21.3400 C.3     1  UNL1        0.0188
     14 C          -6.0290  -19.8714   20.1525 C.3     1  UNL1        0.0188
     15 C          -4.6961  -20.5514   20.2569 C.3     1  UNL1        0.0721
     16 N          -3.4462  -19.7342   20.3985 N.3     1  UNL1       -0.2727
     17 C          -3.6048  -18.8927   22.8514 C.3     1  UNL1        0.0188
     18 C          -2.8230  -19.5447   21.7496 C.3     1  UNL1        0.0721
     19 C          -2.8195  -19.1064   19.1888 C.3     1  UNL1        0.0721
     20 C          -2.7442  -17.6128   19.0729 C.3     1  UNL1        0.0188
     21 C          -7.6544  -16.9130   21.4601 C.3     1  UNL1        0.0886
     22 C          -7.2282  -16.4677   22.8277 C.3     1  UNL1        0.0764
     23 C          -8.2590  -16.1913   23.8816 C.3     1  UNL1        0.0626
     24 C          -7.8328  -15.7459   25.2492 C.ar    1  UNL1        0.0577
     25 N          -8.8636  -15.4695   26.3031 N.ar    1  UNL1       -0.2484
     26 C          -8.4374  -15.0242   27.6706 C.ar    1  UNL1        0.0984
     27 C          -6.9802  -14.8553   27.9840 C.ar    1  UNL1        0.0204
     28 C          -5.9494  -15.1317   26.9301 C.ar    1  UNL1       -0.0002
     29 C          -6.3757  -15.5770   25.5626 C.ar    1  UNL1        0.0073
     30 C          -5.3448  -15.8535   24.5086 C.3     1  UNL1        0.0968
     31 N          -5.7711  -16.2988   23.1411 N.3     1  UNL1       -0.2934
     32 H          -5.3273  -17.2019   22.9739 H       1  UNL1        0.1236
@<TRIPOS>BOND
     1    17    18    1
     2    18    16    1
     3    16    19    1
     4    19    20    1
     5    16    15    1
     6    15    14    1
     7    14    13    1
     8    13    12    1
     9    12     1    1
    10     1    21    1
    11    22    21    1
    12    22    23    1
    13    23    24    1
    14    24    25   ar
    15    25    26   ar
    16    26    27   ar
    17    27    28   ar
    18    28    29   ar
    19    29    30    1
    20    30    31    1
    21     2     1    1
    22     2     3    1
    23     3     4    1
    24     4     5    1
    25     5     6    1
    26     6     7   ar
    27     7     8   ar
    28     8     9   ar
    29     9    10   ar
    30    10    11   ar
    31    31    22    1
    32    11     2    1
    33    29    24   ar
    34    11     6   ar
    35    31    32    1
@<TRIPOS>MOLECULE
*****
 32 35 0 0 0
SMALL
GASTEIGER

@<TRIPOS>ATOM
      1 N          -5.8246  -19.0276   21.3719 N.3     1  UNL1       -0.2679
      2 C          -5.3623  -18.1978   22.5328 C.3     1  UNL1        0.0978
      3 C          -4.0793  -18.5356   23.2324 C.3     1  UNL1        0.0224
      4 C          -3.6170  -17.7058   24.3933 C.3     1  UNL1        0.0065
      5 C          -4.4378  -16.5381   24.8546 C.3     1  UNL1        0.0277
      6 C          -5.7209  -16.2003   24.1549 C.ar    1  UNL1       -0.0073
      7 C          -6.5418  -15.0326   24.6162 C.ar    1  UNL1       -0.0015
      8 C          -7.8249  -14.6948   23.9165 C.ar    1  UNL1        0.0203
      9 C          -8.2871  -15.5246   22.7556 C.ar    1  UNL1        0.0985
     10 N          -7.4663  -16.6923   22.2944 N.ar    1  UNL1       -0.2471
     11 C          -6.1832  -17.0301   22.9940 C.ar    1  UNL1        0.0695
     12 C          -5.1231  -18.9249   20.0500 C.3     1  UNL1        0.0725
     13 C          -3.9601  -19.8223   19.7464 C.3     1  UNL1        0.0188
     14 C          -2.8127  -19.9143   20.7081 C.3     1  UNL1        0.0188
     15 C          -1.4967  -19.2798   20.3684 C.3     1  UNL1        0.0721
     16 N          -1.4595  -17.9066   19.7658 N.3     1  UNL1       -0.2727
     17 C          -2.0113  -16.1590   21.6074 C.3     1  UNL1        0.0188
     18 C          -1.0540  -16.7305   20.6038 C.3     1  UNL1        0.0721
     19 C          -1.8278  -17.7096   18.3251 C.3     1  UNL1        0.0721
     20 C          -2.9274  -16.7588   17.9553 C.3     1  UNL1        0.0188
     21 C          -6.9883  -19.9602   21.5328 C.3     1  UNL1        0.0886
     22 C          -8.3781  -19.4103   21.6606 C.3     1  UNL1        0.0764
     23 C          -9.1257  -19.5540   22.9530 C.3     1  UNL1        0.0626
     24 C         -10.5155  -19.0041   23.0807 C.ar    1  UNL1        0.0577
     25 N         -11.2630  -19.1478   24.3731 N.ar    1  UNL1       -0.2484
     26 C         -12.6527  -18.5979   24.5008 C.ar    1  UNL1        0.0984
     27 C         -13.2948  -17.9043   23.3361 C.ar    1  UNL1        0.0204
     28 C         -12.5472  -17.7606   22.0437 C.ar    1  UNL1       -0.0002
     29 C         -11.1575  -18.3105   21.9160 C.ar    1  UNL1        0.0073
     30 C         -10.4099  -18.1668   20.6235 C.3     1  UNL1        0.0968
     31 N          -9.0202  -18.7167   20.4958 N.3     1  UNL1       -0.2934
     32 H          -8.4151  -17.9334   20.2495 H       1  UNL1        0.1236
@<TRIPOS>BOND
     1    17    18    1
     2    18    16    1
     3    16    19    1
     4    19    20    1
     5    16    15    1
     6    15    14    1
     7    14    13    1
     8    13    12    1
     9    12     1    1
    10     1    21    1
    11    22    21    1
    12    22    23    1
    13    23    24    1
    14    24    25   ar
    15    25    26   ar
    16    26    27   ar
    17    27    28   ar
    18    28    29   ar
    19    29    30    1
    20    30    31    1
    21     2     1    1
    22     2     3    1
    23     3     4    1
    24     4     5    1
    25     5     6    1
    26     6     7   ar
    27     7     8   ar
    28     8     9   ar
    29     9    10   ar
    30    10    11   ar
    31    31    22    1
    32    11     2    1
    33    29    24   ar
    34    11     6   ar
    35    31    32    1
@<TRIPOS>MOLECULE
*****
 32 35 0 0 0
SMALL
GASTEIGER

@<TRIPOS>ATOM
      1 N          -7.5291  -18.6198   22.1577 N.3     1  UNL1       -0.2679
      2 C          -8.9168  -18.9782   22.6005 C.3     1  UNL1        0.0978
      3 C          -9.1296  -20.1185   23.5514 C.3     1  UNL1        0.0224
      4 C         -10.5172  -20.4769   23.9942 C.3     1  UNL1        0.0065
      5 C         -11.6920  -19.6950   23.4861 C.3     1  UNL1        0.0277
      6 C         -11.4792  -18.5546   22.5352 C.ar    1  UNL1       -0.0073
      7 C         -12.6541  -17.7725   22.0271 C.ar    1  UNL1       -0.0015
      8 C         -12.4413  -16.6321   21.0762 C.ar    1  UNL1        0.0203
      9 C         -11.0537  -16.2737   20.6334 C.ar    1  UNL1        0.0985
     10 N          -9.8789  -17.0557   21.1415 N.ar    1  UNL1       -0.2471
     11 C         -10.0916  -18.1962   22.0924 C.ar    1  UNL1        0.0695
     12 C          -7.0591  -17.1978   22.2410 C.3     1  UNL1        0.0725
     13 C          -6.2632  -16.7391   23.4269 C.3     1  UNL1        0.0188
     14 C          -6.3255  -15.3052   23.8628 C.3     1  UNL1        0.0188
     15 C          -7.5743  -14.7674   24.4959 C.3     1  UNL1        0.0721
     16 N          -8.2570  -15.5419   25.5842 N.3     1  UNL1       -0.2727
     17 C          -9.4557  -17.7803   26.1346 C.3     1  UNL1        0.0188
     18 C          -9.2668  -16.5947   25.2352 C.3     1  UNL1        0.0721
     19 C          -7.9298  -15.2636   27.0213 C.3     1  UNL1        0.0721
     20 C          -6.6235  -15.7251   27.5961 C.3     1  UNL1        0.0188
     21 C          -6.6116  -19.6833   21.6317 C.3     1  UNL1        0.0886
     22 C          -5.1588  -19.3799   21.4135 C.3     1  UNL1        0.0764
     23 C          -4.6897  -18.8765   20.0807 C.3     1  UNL1        0.0626
     24 C          -3.2369  -18.5731   19.8626 C.ar    1  UNL1        0.0577
     25 N          -2.7678  -18.0697   18.5298 N.ar    1  UNL1       -0.2484
     26 C          -1.3151  -17.7663   18.3117 C.ar    1  UNL1        0.0984
     27 C          -0.3316  -17.9662   19.4264 C.ar    1  UNL1        0.0204
     28 C          -0.8007  -18.4696   20.7593 C.ar    1  UNL1       -0.0002
     29 C          -2.2534  -18.7730   20.9773 C.ar    1  UNL1        0.0073
     30 C          -2.7226  -19.2764   22.3102 C.3     1  UNL1        0.0968
     31 N          -4.1753  -19.5798   22.5283 N.3     1  UNL1       -0.2934
     32 H          -4.4854  -18.9936   23.3033 H       1  UNL1        0.1236
@<TRIPOS>BOND
     1    17    18    1
     2    18    16    1
     3    16    19    1
     4    19    20    1
     5    16    15    1
     6    15    14    1
     7    14    13    1
     8    13    12    1
     9    12     1    1
    10     1    21    1
    11    22    21    1
    12    22    23    1
    13    23    24    1
    14    24    25   ar
    15    25    26   ar
    16    26    27   ar
    17    27    28   ar
    18    28    29   ar
    19    29    30    1
    20    30    31    1
    21     2     1    1
    22     2     3    1
    23     3     4    1
    24     4     5    1
    25     5     6    1
    26     6     7   ar
    27     7     8   ar
    28     8     9   ar
    29     9    10   ar
    30    10    11   ar
    31    31    22    1
    32    11     2    1
    33    29    24   ar
    34    11     6   ar
    35    31    32    1
@<TRIPOS>MOLECULE
*****
 32 35 0 0 0
SMALL
GASTEIGER

@<TRIPOS>ATOM
      1 N          -7.6260  -19.1311   20.8070 N.3     1  UNL1       -0.2679
      2 C          -8.1017  -18.1957   21.8787 C.3     1  UNL1        0.0978
      3 C          -7.8259  -16.7255   21.7676 C.3     1  UNL1        0.0224
      4 C          -8.3016  -15.7900   22.8393 C.3     1  UNL1        0.0065
      5 C          -9.0533  -16.3248   24.0221 C.3     1  UNL1        0.0277
      6 C          -9.3291  -17.7950   24.1332 C.ar    1  UNL1       -0.0073
      7 C         -10.0808  -18.3298   25.3160 C.ar    1  UNL1       -0.0015
      8 C         -10.3567  -19.8000   25.4271 C.ar    1  UNL1        0.0203
      9 C          -9.8809  -20.7354   24.3554 C.ar    1  UNL1        0.0985
     10 N          -9.1293  -20.2007   23.1726 N.ar    1  UNL1       -0.2471
     11 C          -8.8534  -18.7304   23.0615 C.ar    1  UNL1        0.0695
     12 C          -8.4335  -19.3111   19.5558 C.3     1  UNL1        0.0725
     13 C          -9.8388  -19.8294   19.6383 C.3     1  UNL1        0.0188
     14 C         -10.9920  -18.8704   19.6562 C.3     1  UNL1        0.0188
     15 C         -11.7140  -18.5896   20.9406 C.3     1  UNL1        0.0721
     16 N         -12.1118  -17.1851   21.2859 N.3     1  UNL1       -0.2727
     17 C         -13.3294  -17.8430   23.4847 C.3     1  UNL1        0.0188
     18 C         -12.5417  -16.8494   22.6832 C.3     1  UNL1        0.0721
     19 C         -12.0796  -16.1164   20.2339 C.3     1  UNL1        0.0721
     20 C         -10.8052  -15.3756   19.9561 C.3     1  UNL1        0.0188
     21 C          -6.3426  -19.8865   20.9863 C.3     1  UNL1        0.0886
     22 C          -5.0513  -19.2975   20.5007 C.3     1  UNL1        0.0764
     23 C          -3.8156  -19.4005   21.3447 C.3     1  UNL1        0.0626
     24 C          -2.5244  -18.8115   20.8591 C.ar    1  UNL1        0.0577
     25 N          -1.2887  -18.9145   21.7031 N.ar    1  UNL1       -0.2484
     26 C           0.0025  -18.3255   21.2174 C.ar    1  UNL1        0.0984
     27 C           0.0579  -17.6334   19.8878 C.ar    1  UNL1        0.0204
     28 C          -1.1778  -17.5304   19.0437 C.ar    1  UNL1       -0.0002
     29 C          -2.4689  -18.1194   19.5294 C.ar    1  UNL1        0.0073
     30 C          -3.7047  -18.0164   18.6854 C.3     1  UNL1        0.0968
     31 N          -4.9959  -18.6055   19.1710 N.3     1  UNL1       -0.2934
     32 H          -5.2899  -19.2873   18.4717 H       1  UNL1        0.1236
@<TRIPOS>BOND
     1    17    18    1
     2    18    16    1
     3    16    19    1
     4    19    20    1
     5    16    15    1
     6    15    14    1
     7    14    13    1
     8    13    12    1
     9    12     1    1
    10     1    21    1
    11    22    21    1
    12    22    23    1
    13    23    24    1
    14    24    25   ar
    15    25    26   ar
    16    26    27   ar
    17    27    28   ar
    18    28    29   ar
    19    29    30    1
    20    30    31    1
    21     2     1    1
    22     2     3    1
    23     3     4    1
    24     4     5    1
    25     5     6    1
    26     6     7   ar
    27     7     8   ar
    28     8     9   ar
    29     9    10   ar
    30    10    11   ar
    31    31    22    1
    32    11     2    1
    33    29    24   ar
    34    11     6   ar
    35    31    32    1
@<TRIPOS>MOLECULE
*****
 32 35 0 0 0
SMALL
GASTEIGER

@<TRIPOS>ATOM
      1 N          -6.4381  -18.9456   22.2367 N.3     1  UNL1       -0.2679
      2 C          -5.2525  -19.2652   21.3752 C.3     1  UNL1        0.0978
      3 C          -5.3000  -20.4355   20.4382 C.3     1  UNL1        0.0224
      4 C          -4.1144  -20.7551   19.5767 C.3     1  UNL1        0.0065
      5 C          -2.8813  -19.9044   19.6522 C.3     1  UNL1        0.0277
      6 C          -2.8338  -18.7341   20.5892 C.ar    1  UNL1       -0.0073
      7 C          -1.6007  -17.8833   20.6647 C.ar    1  UNL1       -0.0015
      8 C          -1.5532  -16.7130   21.6017 C.ar    1  UNL1        0.0203
      9 C          -2.7388  -16.3934   22.4632 C.ar    1  UNL1        0.0985
     10 N          -3.9719  -17.2441   22.3877 N.ar    1  UNL1       -0.2471
     11 C          -4.0194  -18.4145   21.4507 C.ar    1  UNL1        0.0695
     12 C          -6.4867  -17.6530   22.9962 C.3     1  UNL1        0.0725
     13 C          -7.4955  -16.6051   22.6295 C.3     1  UNL1        0.0188
     14 C          -7.4568  -15.2614   23.2950 C.3     1  UNL1        0.0188
     15 C          -8.0072  -15.0945   24.6803 C.3     1  UNL1        0.0721
     16 N          -7.1118  -15.2760   25.8700 N.3     1  UNL1       -0.2727
     17 C          -8.6076  -16.8361   27.3118 C.3     1  UNL1        0.0188
     18 C          -7.6975  -15.6490   27.1996 C.3     1  UNL1        0.0721
     19 C          -5.6306  -15.0845   25.7301 C.3     1  UNL1        0.0721
     20 C          -4.7011  -16.2420   25.9447 C.3     1  UNL1        0.0188
     21 C          -7.5751  -19.9186   22.3387 C.3     1  UNL1        0.0886
     22 C          -8.9896  -19.4197   22.3594 C.3     1  UNL1        0.0764
     23 C          -9.7747  -19.4435   23.6372 C.3     1  UNL1        0.0626
     24 C         -11.1893  -18.9446   23.6579 C.ar    1  UNL1        0.0577
     25 N         -11.9744  -18.9685   24.9357 N.ar    1  UNL1       -0.2484
     26 C         -13.3888  -18.4696   24.9563 C.ar    1  UNL1        0.0984
     27 C         -14.0181  -17.9469   23.6990 C.ar    1  UNL1        0.0204
     28 C         -13.2330  -17.9230   22.4212 C.ar    1  UNL1       -0.0002
     29 C         -11.8186  -18.4219   22.4006 C.ar    1  UNL1        0.0073
     30 C         -11.0334  -18.3981   21.1227 C.3     1  UNL1        0.0968
     31 N          -9.6189  -18.8970   21.1021 N.3     1  UNL1       -0.2934
     32 H          -9.0380  -18.1220   20.7822 H       1  UNL1        0.1236
@<TRIPOS>BOND
     1    17    18    1
     2    18    16    1
     3    16    19    1
     4    19    20    1
     5    16    15    1
     6    15    14    1
     7    14    13    1
     8    13    12    1
     9    12     1    1
    10     1    21    1
    11    22    21    1
    12    22    23    1
    13    23    24    1
    14    24    25   ar
    15    25    26   ar
    16    26    27   ar
    17    27    28   ar
    18    28    29   ar
    19    29    30    1
    20    30    31    1
    21     2     1    1
    22     2     3    1
    23     3     4    1
    24     4     5    1
    25     5     6    1
    26     6     7   ar
    27     7     8   ar
    28     8     9   ar
    29     9    10   ar
    30    10    11   ar
    31    31    22    1
    32    11     2    1
    33    29    24   ar
    34    11     6   ar
    35    31    32    1
@<TRIPOS>MOLECULE
*****
 32 35 0 0 0
SMALL
GASTEIGER

@<TRIPOS>ATOM
      1 N          -7.4409  -19.0486   21.9857 N.3     1  UNL1       -0.2679
      2 C          -6.3182  -19.6984   21.2325 C.3     1  UNL1        0.0978
      3 C          -6.6179  -20.6864   20.1445 C.3     1  UNL1        0.0224
      4 C          -5.4951  -21.3363   19.3914 C.3     1  UNL1        0.0065
      5 C          -4.0727  -20.9980   19.7263 C.3     1  UNL1        0.0277
      6 C          -3.7730  -20.0100   20.8143 C.ar    1  UNL1       -0.0073
      7 C          -2.3505  -19.6717   21.1492 C.ar    1  UNL1       -0.0015
      8 C          -2.0508  -18.6836   22.2373 C.ar    1  UNL1        0.0203
      9 C          -3.1735  -18.0338   22.9904 C.ar    1  UNL1        0.0985
     10 N          -4.5960  -18.3720   22.6555 N.ar    1  UNL1       -0.2471
     11 C          -4.8957  -19.3601   21.5674 C.ar    1  UNL1        0.0695
     12 C          -8.4296  -19.8927   22.7339 C.3     1  UNL1        0.0725
     13 C          -9.8937  -19.5743   22.6621 C.3     1  UNL1        0.0188
     14 C         -10.6058  -19.6133   21.3425 C.3     1  UNL1        0.0188
     15 C         -11.8076  -18.7455   21.1130 C.3     1  UNL1        0.0721
     16 N         -11.7962  -17.3144   21.5624 N.3     1  UNL1       -0.2727
     17 C         -13.2816  -17.9266   23.6042 C.3     1  UNL1        0.0188
     18 C         -12.6211  -16.8921   22.7418 C.3     1  UNL1        0.0721
     19 C         -10.9599  -16.3057   20.8322 C.3     1  UNL1        0.0721
     20 C         -11.4335  -15.7444   19.5243 C.3     1  UNL1        0.0188
     21 C          -7.5750  -17.5546   21.9906 C.3     1  UNL1        0.0886
     22 C          -7.2138  -16.7732   23.2190 C.3     1  UNL1        0.0764
     23 C          -8.1929  -16.6581   24.3495 C.3     1  UNL1        0.0626
     24 C          -7.8317  -15.8766   25.5779 C.ar    1  UNL1        0.0577
     25 N          -8.8108  -15.7615   26.7084 N.ar    1  UNL1       -0.2484
     26 C          -8.4496  -14.9801   27.9367 C.ar    1  UNL1        0.0984
     27 C          -7.1093  -14.3138   28.0346 C.ar    1  UNL1        0.0204
     28 C          -6.1301  -14.4289   26.9041 C.ar    1  UNL1       -0.0002
     29 C          -6.4914  -15.2103   25.6758 C.ar    1  UNL1        0.0073
     30 C          -5.5122  -15.3255   24.5452 C.3     1  UNL1        0.0968
     31 N          -5.8734  -16.1069   23.3169 N.3     1  UNL1       -0.2934
     32 H          -5.1719  -16.8407   23.2178 H       1  UNL1        0.1236
@<TRIPOS>BOND
     1    17    18    1
     2    18    16    1
     3    16    19    1
     4    19    20    1
     5    16    15    1
     6    15    14    1
     7    14    13    1
     8    13    12    1
     9    12     1    1
    10     1    21    1
    11    22    21    1
    12    22    23    1
    13    23    24    1
    14    24    25   ar
    15    25    26   ar
    16    26    27   ar
    17    27    28   ar
    18    28    29   ar
    19    29    30    1
    20    30    31    1
    21     2     1    1
    22     2     3    1
    23     3     4    1
    24     4     5    1
    25     5     6    1
    26     6     7   ar
    27     7     8   ar
    28     8     9   ar
    29     9    10   ar
    30    10    11   ar
    31    31    22    1
    32    11     2    1
    33    29    24   ar
    34    11     6   ar
    35    31    32    1
@<TRIPOS>MOLECULE
*****
 32 35 0 0 0
SMALL
GASTEIGER

@<TRIPOS>ATOM
      1 N          -6.6079  -18.7539   20.6077 N.3     1  UNL1       -0.2679
      2 C          -5.2031  -18.9731   21.0858 C.3     1  UNL1        0.0978
      3 C          -4.9559  -19.6310   22.4109 C.3     1  UNL1        0.0224
      4 C          -3.5512  -19.8502   22.8890 C.3     1  UNL1        0.0065
      5 C          -2.3936  -19.4114   22.0420 C.3     1  UNL1        0.0277
      6 C          -2.6408  -18.7535   20.7169 C.ar    1  UNL1       -0.0073
      7 C          -1.4832  -18.3147   19.8698 C.ar    1  UNL1       -0.0015
      8 C          -1.7304  -17.6568   18.5446 C.ar    1  UNL1        0.0203
      9 C          -3.1351  -17.4377   18.0665 C.ar    1  UNL1        0.0985
     10 N          -4.2927  -17.8764   18.9135 N.ar    1  UNL1       -0.2471
     11 C          -4.0455  -18.5343   20.2388 C.ar    1  UNL1        0.0695
     12 C          -7.2783  -19.7867   19.7510 C.3     1  UNL1        0.0725
     13 C          -8.6207  -19.5020   19.1451 C.3     1  UNL1        0.0188
     14 C          -9.8617  -19.6290   19.9780 C.3     1  UNL1        0.0188
     15 C         -11.0201  -18.7055   19.7434 C.3     1  UNL1        0.0721
     16 N         -11.5065  -17.8164   20.8494 N.3     1  UNL1       -0.2727
     17 C         -12.8767  -17.5367   23.0390 C.3     1  UNL1        0.0188
     18 C         -12.1473  -18.4152   22.0662 C.3     1  UNL1        0.0721
     19 C         -11.3519  -16.3285   20.7384 C.3     1  UNL1        0.0721
     20 C         -11.5245  -15.6535   19.4101 C.3     1  UNL1        0.0188
     21 C          -7.3422  -17.5020   20.9862 C.3     1  UNL1        0.0886
     22 C          -7.6901  -17.2415   22.4219 C.3     1  UNL1        0.0764
     23 C          -6.7696  -16.4257   23.2805 C.3     1  UNL1        0.0626
     24 C          -7.1174  -16.1652   24.7162 C.ar    1  UNL1        0.0577
     25 N          -6.1969  -15.3495   25.5748 N.ar    1  UNL1       -0.2484
     26 C          -6.5448  -15.0890   27.0105 C.ar    1  UNL1        0.0984
     27 C          -7.8132  -15.6443   27.5875 C.ar    1  UNL1        0.0204
     28 C          -8.7336  -16.4600   26.7289 C.ar    1  UNL1       -0.0002
     29 C          -8.3858  -16.7205   25.2933 C.ar    1  UNL1        0.0073
     30 C          -9.3063  -17.5362   24.4346 C.3     1  UNL1        0.0968
     31 N          -8.9584  -17.7967   22.9989 N.3     1  UNL1       -0.2934
     32 H          -9.7248  -17.4245   22.4381 H       1  UNL1        0.1236
@<TRIPOS>BOND
     1    17    18    1
     2    18    16    1
     3    16    19    1
     4    19    20    1
     5    16    15    1
     6    15    14    1
     7    14    13    1
     8    13    12    1
     9    12     1    1
    10     1    21    1
    11    22    21    1
    12    22    23    1
    13    23    24    1
    14    24    25   ar
    15    25    26   ar
    16    26    27   ar
    17    27    28   ar
    18    28    29   ar
    19    29    30    1
    20    30    31    1
    21     2     1    1
    22     2     3    1
    23     3     4    1
    24     4     5    1
    25     5     6    1
    26     6     7   ar
    27     7     8   ar
    28     8     9   ar
    29     9    10   ar
    30    10    11   ar
    31    31    22    1
    32    11     2    1
    33    29    24   ar
    34    11     6   ar
    35    31    32    1
