@<TRIPOS>MOLECULE
*****
 52 55 0 0 0
SMALL
GASTEIGER

@<TRIPOS>ATOM
      1 C           5.8733   -2.3425   23.8473 C.3     1  UNL1        0.0760
      2 C           6.5742   -2.9901   26.2638 C.2     1  UNL1        0.2403
      3 O           7.9855   -2.5792   25.9646 O.2     1  UNL1       -0.2733
      4 N           5.5181   -2.8718   25.2051 N.am    1  UNL1       -0.3043
      5 H           4.5919   -3.1415   25.4015 H       1  UNL1        0.1494
      6 C           6.2190   -3.5193   27.6217 C.3     1  UNL1        0.1496
      7 N           5.5755   -0.6815   30.3204 N.am    1  UNL1       -0.2567
      8 C           6.3368    0.3910   31.0416 C.3     1  UNL1        0.1168
      9 C           6.2779   -1.5641   29.3316 C.2     1  UNL1        0.3046
     10 O           7.7416   -1.3743   29.0641 O.2     1  UNL1       -0.2526
     11 N           5.5166   -2.6367   28.6104 N.am    1  UNL1       -0.2824
     12 H           4.5559   -2.7613   28.7860 H       1  UNL1        0.1514
     13 C           4.1119   -0.8714   30.5879 C.3     1  UNL1        0.1413
     14 C           0.9816    0.3610   28.6519 C.ar    1  UNL1        0.0875
     15 N           1.6070   -0.4054   29.7795 N.ar    1  UNL1       -0.2453
     16 C           3.0960   -0.2651   29.6657 C.ar    1  UNL1        0.0858
     17 C           3.3909    0.5881   28.4677 C.ar    1  UNL1        0.0530
     18 S           2.0841    0.9750   27.8411 S.2     1  UNL1       -0.0705
     19 C          -1.4397   -0.5486   28.8970 C.3     1  UNL1        0.0069
     20 C          -0.4883    0.4906   28.3824 C.3     1  UNL1        0.0465
     21 C          -1.0068    1.6594   27.5981 C.3     1  UNL1        0.0069
     22 C           6.5662   -4.9311   27.9907 C.3     1  UNL1        0.0270
     23 C           6.6968   -5.9753   26.9218 C.3     1  UNL1        0.0022
     24 C           6.7828   -5.2987   29.4288 C.3     1  UNL1        0.0022
     25 C           5.6275   -0.9003   23.5166 C.3     1  UNL1        0.0216
     26 C           4.4666   -0.1770   24.1323 C.3     1  UNL1        0.0217
     27 C           3.0880   -0.3537   23.5678 C.3     1  UNL1        0.0792
     28 N           1.9200    0.3313   24.2131 N.am    1  UNL1       -0.2720
     29 C           1.5516    1.7277   23.8073 C.2     1  UNL1        0.4019
     30 O           2.3512    2.4389   22.7563 O.2     1  UNL1       -0.2264
     31 H           1.3951   -0.1355   24.9029 H       1  UNL1        0.1527
     32 O           0.3835    2.4127   24.4526 O.3     1  UNL1       -0.4291
     33 C          -0.2265    3.6220   23.8081 C.3     1  UNL1        0.2447
     34 C          -1.2725    3.4584   22.7455 C.ar    1  UNL1        0.0714
     35 C          -1.0574    2.8811   21.3779 C.ar    1  UNL1        0.1053
     36 N          -2.3693    2.9093   20.6512 N.ar    1  UNL1       -0.2350
     37 C          -3.3953    3.5040   21.5697 C.ar    1  UNL1        0.1343
     38 S          -2.7174    3.8434   22.8640 S.2     1  UNL1       -0.0652
     39 C           2.8777   -1.2153   22.3582 C.3     1  UNL1        0.0460
     40 C           2.7175   -0.5845   21.0067 C.ar    1  UNL1       -0.0205
     41 C           3.9276   -0.1537   20.2319 C.ar    1  UNL1       -0.0042
     42 C           3.7674    0.4770   18.8805 C.ar    1  UNL1       -0.0003
     43 C           2.3972    0.6771   18.3038 C.ar    1  UNL1       -0.0000
     44 C           1.1872    0.2463   19.0785 C.ar    1  UNL1       -0.0003
     45 C           1.3474   -0.3845   20.4300 C.ar    1  UNL1       -0.0042
     46 C           6.4744   -3.2557   22.8201 C.3     1  UNL1        0.0459
     47 C           5.8841   -3.3272   21.4430 C.ar    1  UNL1       -0.0205
     48 C           4.5493   -3.9780   21.2320 C.ar    1  UNL1       -0.0042
     49 C           3.9590   -4.0495   19.8549 C.ar    1  UNL1       -0.0003
     50 C           4.7036   -3.4701   18.6888 C.ar    1  UNL1       -0.0000
     51 C           6.0385   -2.8192   18.8997 C.ar    1  UNL1       -0.0003
     52 C           6.6288   -2.7477   20.2768 C.ar    1  UNL1       -0.0042
@<TRIPOS>BOND
     1    19    20    1
     2    20    21    1
     3    20    14    1
     4    14    15   ar
     5    15    16   ar
     6    16    13    1
     7    13     7    1
     8     7     8    1
     9     7     9   am
    10     9    10    2
    11     9    11   am
    12     6    11    1
    13     6     2    1
    14     2     3    2
    15     2     4   am
    16     4     1    1
    17     1    25    1
    18    25    26    1
    19    27    26    1
    20    27    39    1
    21    39    40    1
    22    40    41   ar
    23    41    42   ar
    24    42    43   ar
    25    43    44   ar
    26    44    45   ar
    27    27    28    1
    28    28    29   am
    29    29    30    2
    30    29    32    1
    31    32    33    1
    32    33    34    1
    33    34    35   ar
    34    35    36   ar
    35    36    37   ar
    36    37    38   ar
    37     1    46    1
    38    46    47    1
    39    47    48   ar
    40    48    49   ar
    41    49    50   ar
    42    50    51   ar
    43    51    52   ar
    44     6    22    1
    45    22    23    1
    46    22    24    1
    47    16    17   ar
    48    17    18   ar
    49    18    14   ar
    50    45    40   ar
    51    38    34   ar
    52    52    47   ar
    53    11    12    1
    54     4     5    1
    55    28    31    1
@<TRIPOS>MOLECULE
*****
 52 55 0 0 0
SMALL
GASTEIGER

@<TRIPOS>ATOM
      1 C           4.6694   -0.3958   23.3906 C.3     1  UNL1        0.0760
      2 C           4.3547   -0.2264   25.9640 C.2     1  UNL1        0.2403
      3 O           4.5669   -1.7062   26.0873 O.2     1  UNL1       -0.2733
      4 N           4.4059    0.4288   24.6155 N.am    1  UNL1       -0.3043
      5 H           4.2667    1.4000   24.5346 H       1  UNL1        0.1494
      6 C           4.0913    0.5982   27.1890 C.3     1  UNL1        0.1496
      7 N           0.3194    1.0696   28.3295 N.am    1  UNL1       -0.2567
      8 C          -0.7525    0.3037   29.0469 C.3     1  UNL1        0.1168
      9 C           1.6694    0.4510   28.1179 C.2     1  UNL1        0.3046
     10 O           1.9476   -0.9336   28.6237 O.2     1  UNL1       -0.2526
     11 N           2.7412    1.2168   27.4005 N.am    1  UNL1       -0.2824
     12 H           2.5586    2.1255   27.0685 H       1  UNL1        0.1514
     13 C           0.0412    2.4540   27.8237 C.3     1  UNL1        0.1413
     14 C          -0.0639    2.7761   23.9570 C.ar    1  UNL1        0.0875
     15 N           0.6581    2.4210   25.2230 N.ar    1  UNL1       -0.2453
     16 C          -0.2711    2.6739   26.3730 C.ar    1  UNL1        0.0858
     17 C          -1.5673    3.1853   25.8179 C.ar    1  UNL1        0.0530
     18 S          -1.4393    3.2485   24.3247 S.2     1  UNL1       -0.0705
     19 C           1.9681    2.8123   22.3384 C.3     1  UNL1        0.0069
     20 C           0.4919    2.6763   22.5674 C.3     1  UNL1        0.0465
     21 C          -0.4284    2.4406   21.4066 C.3     1  UNL1        0.0069
     22 C           5.1778    0.8041   28.2024 C.3     1  UNL1        0.0270
     23 C           4.8287    1.2027   29.6057 C.3     1  UNL1        0.0022
     24 C           6.6133    0.6115   27.8124 C.3     1  UNL1        0.0022
     25 C           6.0769   -0.6063   22.9166 C.3     1  UNL1        0.0216
     26 C           6.9303   -1.6660   23.5479 C.3     1  UNL1        0.0217
     27 C           6.5699   -3.1133   23.3876 C.3     1  UNL1        0.0792
     28 N           5.9621   -3.8662   24.5338 N.am    1  UNL1       -0.2720
     29 C           6.8439   -4.5939   25.5049 C.2     1  UNL1        0.4019
     30 O           8.3334   -4.5687   25.3298 O.2     1  UNL1       -0.2264
     31 H           4.9845   -3.8827   24.6488 H       1  UNL1        0.1527
     32 O           6.2361   -5.3468   26.6511 O.3     1  UNL1       -0.4291
     33 C           7.0834   -5.7367   27.8258 C.3     1  UNL1        0.2447
     34 C           6.9390   -5.0087   29.1293 C.ar    1  UNL1        0.0714
     35 C           6.5608   -3.5669   29.2968 C.ar    1  UNL1        0.1053
     36 N           6.5355   -3.2617   30.7652 N.ar    1  UNL1       -0.2350
     37 C           6.8980   -4.5151   31.5053 C.ar    1  UNL1        0.1343
     38 S           7.1473   -5.5947   30.4943 S.2     1  UNL1       -0.0652
     39 C           6.8173   -3.8076   22.0813 C.3     1  UNL1        0.0460
     40 C           5.9648   -3.4885   20.8890 C.ar    1  UNL1       -0.0205
     41 C           4.5497   -3.9820   20.8252 C.ar    1  UNL1       -0.0042
     42 C           3.6973   -3.6629   19.6330 C.ar    1  UNL1       -0.0003
     43 C           4.2598   -2.8504   18.5046 C.ar    1  UNL1       -0.0000
     44 C           5.6749   -2.3569   18.5684 C.ar    1  UNL1       -0.0003
     45 C           6.5273   -2.6760   19.7606 C.ar    1  UNL1       -0.0042
     46 C           3.5253   -1.0100   22.6395 C.3     1  UNL1        0.0459
     47 C           3.1246   -0.4605   21.3026 C.ar    1  UNL1       -0.0205
     48 C           4.0976    0.3566   20.5054 C.ar    1  UNL1       -0.0042
     49 C           3.6969    0.9062   19.1684 C.ar    1  UNL1       -0.0003
     50 C           2.3232    0.6386   18.6287 C.ar    1  UNL1       -0.0000
     51 C           1.3502   -0.1786   19.4259 C.ar    1  UNL1       -0.0003
     52 C           1.7509   -0.7281   20.7628 C.ar    1  UNL1       -0.0042
@<TRIPOS>BOND
     1    19    20    1
     2    20    21    1
     3    20    14    1
     4    14    15   ar
     5    15    16   ar
     6    16    13    1
     7    13     7    1
     8     7     8    1
     9     7     9   am
    10     9    10    2
    11     9    11   am
    12     6    11    1
    13     6     2    1
    14     2     3    2
    15     2     4   am
    16     4     1    1
    17     1    25    1
    18    25    26    1
    19    27    26    1
    20    27    39    1
    21    39    40    1
    22    40    41   ar
    23    41    42   ar
    24    42    43   ar
    25    43    44   ar
    26    44    45   ar
    27    27    28    1
    28    28    29   am
    29    29    30    2
    30    29    32    1
    31    32    33    1
    32    33    34    1
    33    34    35   ar
    34    35    36   ar
    35    36    37   ar
    36    37    38   ar
    37     1    46    1
    38    46    47    1
    39    47    48   ar
    40    48    49   ar
    41    49    50   ar
    42    50    51   ar
    43    51    52   ar
    44     6    22    1
    45    22    23    1
    46    22    24    1
    47    16    17   ar
    48    17    18   ar
    49    18    14   ar
    50    45    40   ar
    51    38    34   ar
    52    52    47   ar
    53    11    12    1
    54     4     5    1
    55    28    31    1
@<TRIPOS>MOLECULE
*****
 52 55 0 0 0
SMALL
GASTEIGER

@<TRIPOS>ATOM
      1 C           3.4197   -0.9101   22.1078 C.3     1  UNL1        0.0760
      2 C           4.7246   -0.9999   24.3526 C.2     1  UNL1        0.2403
      3 O           5.5262    0.1971   23.9345 O.2     1  UNL1       -0.2733
      4 N           3.6713   -1.5535   23.4392 N.am    1  UNL1       -0.3043
      5 H           3.1452   -2.3391   23.7136 H       1  UNL1        0.1494
      6 C           4.9762   -1.6432   25.6841 C.3     1  UNL1        0.1496
      7 N           3.9652    0.2313   29.0328 N.am    1  UNL1       -0.2567
      8 C           4.5324    1.2478   29.9788 C.3     1  UNL1        0.1168
      9 C           4.7543   -0.1977   27.8315 C.2     1  UNL1        0.3046
     10 O           6.1107    0.3898   27.5761 O.2     1  UNL1       -0.2526
     11 N           4.1871   -1.2142   26.8855 N.am    1  UNL1       -0.2824
     12 H           3.2969   -1.5998   27.0530 H       1  UNL1        0.1514
     13 C           2.6089   -0.3562   29.2881 C.3     1  UNL1        0.1413
     14 C          -0.0191    1.2632   26.9351 C.ar    1  UNL1        0.0875
     15 N           1.3907    0.8489   27.2366 N.ar    1  UNL1       -0.2453
     16 C           1.4050    0.2054   28.5914 C.ar    1  UNL1        0.0858
     17 C           0.0041    0.2220   29.1273 C.ar    1  UNL1        0.0530
     18 S          -0.8761    0.8758   28.1037 S.2     1  UNL1       -0.0705
     19 C           0.2054    1.6839   24.3811 C.3     1  UNL1        0.0069
     20 C          -0.4893    1.9452   25.6846 C.3     1  UNL1        0.0465
     21 C          -1.6543    2.8886   25.7376 C.3     1  UNL1        0.0069
     22 C           6.0170   -2.7155   25.8142 C.3     1  UNL1        0.0270
     23 C           6.6154   -3.3330   24.5851 C.3     1  UNL1        0.0022
     24 C           6.4593   -3.1704   27.1733 C.3     1  UNL1        0.0022
     25 C           2.1669   -0.1163   21.8832 C.3     1  UNL1        0.0216
     26 C           1.2473   -0.4705   20.7524 C.3     1  UNL1        0.0217
     27 C           0.5906    0.6147   19.9516 C.3     1  UNL1        0.0792
     28 N          -0.6024    1.3370   20.5040 N.am    1  UNL1       -0.2720
     29 C          -0.4520    2.7267   21.0482 C.2     1  UNL1        0.4019
     30 O           0.8913    3.3941   21.0401 O.2     1  UNL1       -0.2264
     31 H          -1.4841    0.8990   20.5093 H       1  UNL1        0.1527
     32 O          -1.6450    3.4490   21.6005 O.3     1  UNL1       -0.4291
     33 C          -2.3548    4.4730   20.7653 C.3     1  UNL1        0.2447
     34 C          -3.5375    4.0734   19.9337 C.ar    1  UNL1        0.0714
     35 C          -4.8121    3.4706   20.4457 C.ar    1  UNL1        0.1053
     36 N          -5.7157    3.2312   19.2726 N.ar    1  UNL1       -0.2350
     37 C          -4.9996    3.6861   18.0356 C.ar    1  UNL1        0.1343
     38 S          -3.6534    4.2066   18.4442 S.2     1  UNL1       -0.0652
     39 C           1.1268    0.9775   18.5986 C.3     1  UNL1        0.0460
     40 C           2.5913    0.8319   18.3085 C.ar    1  UNL1       -0.0205
     41 C           3.0799   -0.3133   17.4720 C.ar    1  UNL1       -0.0042
     42 C           4.5444   -0.4589   17.1819 C.ar    1  UNL1       -0.0003
     43 C           5.5202    0.5407   17.7284 C.ar    1  UNL1       -0.0000
     44 C           5.0316    1.6858   18.5649 C.ar    1  UNL1       -0.0003
     45 C           3.5672    1.8314   18.8549 C.ar    1  UNL1       -0.0042
     46 C           4.4209   -1.0605   21.0009 C.3     1  UNL1        0.0459
     47 C           4.5340   -2.3620   20.2637 C.ar    1  UNL1       -0.0205
     48 C           5.8785   -2.9957   20.0627 C.ar    1  UNL1       -0.0042
     49 C           5.9916   -4.2971   19.3254 C.ar    1  UNL1       -0.0003
     50 C           4.7601   -4.9649   18.7893 C.ar    1  UNL1       -0.0000
     51 C           3.4154   -4.3311   18.9903 C.ar    1  UNL1       -0.0003
     52 C           3.3024   -3.0297   19.7275 C.ar    1  UNL1       -0.0042
@<TRIPOS>BOND
     1    19    20    1
     2    20    21    1
     3    20    14    1
     4    14    15   ar
     5    15    16   ar
     6    16    13    1
     7    13     7    1
     8     7     8    1
     9     7     9   am
    10     9    10    2
    11     9    11   am
    12     6    11    1
    13     6     2    1
    14     2     3    2
    15     2     4   am
    16     4     1    1
    17     1    25    1
    18    25    26    1
    19    27    26    1
    20    27    39    1
    21    39    40    1
    22    40    41   ar
    23    41    42   ar
    24    42    43   ar
    25    43    44   ar
    26    44    45   ar
    27    27    28    1
    28    28    29   am
    29    29    30    2
    30    29    32    1
    31    32    33    1
    32    33    34    1
    33    34    35   ar
    34    35    36   ar
    35    36    37   ar
    36    37    38   ar
    37     1    46    1
    38    46    47    1
    39    47    48   ar
    40    48    49   ar
    41    49    50   ar
    42    50    51   ar
    43    51    52   ar
    44     6    22    1
    45    22    23    1
    46    22    24    1
    47    16    17   ar
    48    17    18   ar
    49    18    14   ar
    50    45    40   ar
    51    38    34   ar
    52    52    47   ar
    53    11    12    1
    54     4     5    1
    55    28    31    1
@<TRIPOS>MOLECULE
*****
 52 55 0 0 0
SMALL
GASTEIGER

@<TRIPOS>ATOM
      1 C           5.8910   -2.6493   23.5877 C.3     1  UNL1        0.0760
      2 C           6.7860   -3.1102   25.9828 C.2     1  UNL1        0.2403
      3 O           8.1819   -2.8197   25.5171 O.2     1  UNL1       -0.2733
      4 N           5.6405   -3.0250   25.0181 N.am    1  UNL1       -0.3043
      5 H           4.7243   -3.2157   25.3237 H       1  UNL1        0.1494
      6 C           6.5355   -3.4859   27.4132 C.3     1  UNL1        0.1496
      7 N           4.6661   -0.6008   29.3959 N.am    1  UNL1       -0.2567
      8 C           3.3704    0.1533   29.3465 C.3     1  UNL1        0.1168
      9 C           4.9530   -1.6663   28.3799 C.2     1  UNL1        0.3046
     10 O           3.9441   -1.9776   27.3143 O.2     1  UNL1       -0.2526
     11 N           6.2487   -2.4204   28.4293 N.am    1  UNL1       -0.2824
     12 H           6.9108   -2.2161   29.1287 H       1  UNL1        0.1514
     13 C           5.6748   -0.2895   30.4614 C.3     1  UNL1        0.1413
     14 C           5.3902   -0.5988   34.3201 C.ar    1  UNL1        0.0875
     15 N           5.9517    0.0630   33.0967 N.ar    1  UNL1       -0.2453
     16 C           5.3822   -0.6279   31.8932 C.ar    1  UNL1        0.0858
     17 C           4.4688   -1.7168   32.3728 C.ar    1  UNL1        0.0530
     18 S           4.4737   -1.6988   33.8727 S.2     1  UNL1       -0.0705
     19 C           7.1154   -0.1243   36.2038 C.3     1  UNL1        0.0069
     20 C           5.6922   -0.2261   35.7413 C.3     1  UNL1        0.0465
     21 C           4.5709    0.0448   36.7001 C.3     1  UNL1        0.0069
     22 C           6.5719   -4.9271   27.8275 C.3     1  UNL1        0.0270
     23 C           6.5885   -5.2888   29.2831 C.3     1  UNL1        0.0022
     24 C           6.5917   -6.0065   26.7862 C.3     1  UNL1        0.0022
     25 C           5.8126   -1.2123   23.1649 C.3     1  UNL1        0.0216
     26 C           4.7151   -0.3349   23.6900 C.3     1  UNL1        0.0217
     27 C           3.2851   -0.6423   23.3573 C.3     1  UNL1        0.0792
     28 N           2.1886   -0.2003   24.2805 N.am    1  UNL1       -0.2720
     29 C           1.4850    1.1024   24.0396 C.2     1  UNL1        0.4019
     30 O           1.8778    1.9630   22.8756 O.2     1  UNL1       -0.2264
     31 H           1.9308   -0.7651   25.0445 H       1  UNL1        0.1527
     32 O           0.3885    1.5444   24.9629 O.3     1  UNL1       -0.4291
     33 C           0.6901    2.4914   26.0863 C.3     1  UNL1        0.2447
     34 C           0.4136    2.0859   27.5038 C.ar    1  UNL1        0.0714
     35 C           0.8305    2.8374   28.7332 C.ar    1  UNL1        0.1053
     36 N           0.3462    2.0736   29.9299 N.ar    1  UNL1       -0.2350
     37 C          -0.3700    0.8500   29.4401 C.ar    1  UNL1        0.1343
     38 S          -0.3283    0.8576   27.9407 S.2     1  UNL1       -0.0652
     39 C           2.9516   -1.3916   22.1014 C.3     1  UNL1        0.0460
     40 C           2.7851   -0.6508   20.8077 C.ar    1  UNL1       -0.0205
     41 C           3.9893   -0.1251   20.0842 C.ar    1  UNL1       -0.0042
     42 C           3.8227    0.6157   18.7906 C.ar    1  UNL1       -0.0003
     43 C           2.4520    0.8308   18.2205 C.ar    1  UNL1       -0.0000
     44 C           1.2479    0.3051   18.9441 C.ar    1  UNL1       -0.0003
     45 C           1.4144   -0.4357   20.2377 C.ar    1  UNL1       -0.0042
     46 C           6.2199   -3.7107   22.5800 C.3     1  UNL1        0.0459
     47 C           5.8028   -3.5414   21.1491 C.ar    1  UNL1       -0.0205
     48 C           6.7106   -2.8424   20.1810 C.ar    1  UNL1       -0.0042
     49 C           6.2936   -2.6731   18.7501 C.ar    1  UNL1       -0.0003
     50 C           4.9687   -3.2028   18.2874 C.ar    1  UNL1       -0.0000
     51 C           4.0608   -3.9018   19.2555 C.ar    1  UNL1       -0.0003
     52 C           4.4779   -4.0711   20.6864 C.ar    1  UNL1       -0.0042
@<TRIPOS>BOND
     1    19    20    1
     2    20    21    1
     3    20    14    1
     4    14    15   ar
     5    15    16   ar
     6    16    13    1
     7    13     7    1
     8     7     8    1
     9     7     9   am
    10     9    10    2
    11     9    11   am
    12     6    11    1
    13     6     2    1
    14     2     3    2
    15     2     4   am
    16     4     1    1
    17     1    25    1
    18    25    26    1
    19    27    26    1
    20    27    39    1
    21    39    40    1
    22    40    41   ar
    23    41    42   ar
    24    42    43   ar
    25    43    44   ar
    26    44    45   ar
    27    27    28    1
    28    28    29   am
    29    29    30    2
    30    29    32    1
    31    32    33    1
    32    33    34    1
    33    34    35   ar
    34    35    36   ar
    35    36    37   ar
    36    37    38   ar
    37     1    46    1
    38    46    47    1
    39    47    48   ar
    40    48    49   ar
    41    49    50   ar
    42    50    51   ar
    43    51    52   ar
    44     6    22    1
    45    22    23    1
    46    22    24    1
    47    16    17   ar
    48    17    18   ar
    49    18    14   ar
    50    45    40   ar
    51    38    34   ar
    52    52    47   ar
    53    11    12    1
    54     4     5    1
    55    28    31    1
@<TRIPOS>MOLECULE
*****
 52 55 0 0 0
SMALL
GASTEIGER

@<TRIPOS>ATOM
      1 C           4.1149   -1.1640   21.5814 C.3     1  UNL1        0.0760
      2 C           4.9428   -2.8369   23.3886 C.2     1  UNL1        0.2403
      3 O           4.3657   -3.9747   22.5997 O.2     1  UNL1       -0.2733
      4 N           4.8174   -1.4315   22.8795 N.am    1  UNL1       -0.3043
      5 H           5.1961   -0.6847   23.3973 H       1  UNL1        0.1494
      6 C           5.6452   -3.1045   24.6867 C.3     1  UNL1        0.1496
      7 N           5.4490   -0.3485   27.5356 N.am    1  UNL1       -0.2567
      8 C           6.0940    0.9566   27.8970 C.3     1  UNL1        0.1168
      9 C           5.8696   -1.0739   26.2919 C.2     1  UNL1        0.3046
     10 O           6.9351   -0.4942   25.4095 O.2     1  UNL1       -0.2526
     11 N           5.2246   -2.3791   25.9305 N.am    1  UNL1       -0.2824
     12 H           4.5253   -2.7596   26.5096 H       1  UNL1        0.1514
     13 C           4.3835   -0.9283   28.4179 C.3     1  UNL1        0.1413
     14 C           0.9542    0.6881   27.5853 C.ar    1  UNL1        0.0875
     15 N           2.3511    0.3048   27.1956 N.ar    1  UNL1       -0.2453
     16 C           2.9882   -0.3798   28.3684 C.ar    1  UNL1        0.0858
     17 C           1.9851   -0.4197   29.4829 C.ar    1  UNL1        0.0530
     18 S           0.7280    0.2403   28.9990 S.2     1  UNL1       -0.0705
     19 C           0.0387    1.2615   25.2225 C.3     1  UNL1        0.0069
     20 C          -0.0416    1.3950   26.7143 C.3     1  UNL1        0.0465
     21 C          -1.1178    2.2353   27.3352 C.3     1  UNL1        0.0069
     22 C           6.7682   -4.0974   24.7410 C.3     1  UNL1        0.0270
     23 C           7.7522   -4.1793   23.6118 C.3     1  UNL1        0.0022
     24 C           6.9072   -5.0083   25.9245 C.3     1  UNL1        0.0022
     25 C           2.7631   -0.5141   21.5802 C.3     1  UNL1        0.0216
     26 C           1.7319   -0.9299   20.5734 C.3     1  UNL1        0.0217
     27 C           0.9283    0.1096   19.8497 C.3     1  UNL1        0.0792
     28 N          -0.2609    0.7360   20.5154 N.am    1  UNL1       -0.2720
     29 C          -0.1272    2.0695   21.1894 C.2     1  UNL1        0.4019
     30 O           1.1957    2.7764   21.1975 O.2     1  UNL1       -0.2264
     31 H          -1.1292    0.2720   20.5101 H       1  UNL1        0.1527
     32 O          -1.3164    2.6959   21.8552 O.3     1  UNL1       -0.4291
     33 C          -1.9700    3.9001   21.2446 C.3     1  UNL1        0.2447
     34 C          -3.2050    3.7400   20.4084 C.ar    1  UNL1        0.0714
     35 C          -4.5355    3.2401   20.8876 C.ar    1  UNL1        0.1053
     36 N          -5.4791    3.2429   19.7216 N.ar    1  UNL1       -0.2350
     37 C          -4.7317    3.7446   18.5217 C.ar    1  UNL1        0.1343
     38 S          -3.3262    4.0518   18.9462 S.2     1  UNL1       -0.0652
     39 C           1.3140    0.5226   18.4602 C.3     1  UNL1        0.0460
     40 C           2.7622    0.6457   18.0891 C.ar    1  UNL1       -0.0205
     41 C           3.5564    1.8316   18.5503 C.ar    1  UNL1       -0.0042
     42 C           5.0046    1.9546   18.1792 C.ar    1  UNL1       -0.0003
     43 C           5.6584    0.8918   17.3468 C.ar    1  UNL1       -0.0000
     44 C           4.8642   -0.2941   16.8855 C.ar    1  UNL1       -0.0003
     45 C           3.4160   -0.4171   17.2567 C.ar    1  UNL1       -0.0042
     46 C           4.7644   -1.5464   20.2844 C.3     1  UNL1        0.0459
     47 C           6.2589   -1.5212   20.1580 C.ar    1  UNL1       -0.0205
     48 C           7.0150   -0.2587   20.4484 C.ar    1  UNL1       -0.0042
     49 C           8.5094   -0.2336   20.3220 C.ar    1  UNL1       -0.0003
     50 C           9.2478   -1.4709   19.9052 C.ar    1  UNL1       -0.0000
     51 C           8.4917   -2.7335   19.6147 C.ar    1  UNL1       -0.0003
     52 C           6.9972   -2.7586   19.7412 C.ar    1  UNL1       -0.0042
@<TRIPOS>BOND
     1    19    20    1
     2    20    21    1
     3    20    14    1
     4    14    15   ar
     5    15    16   ar
     6    16    13    1
     7    13     7    1
     8     7     8    1
     9     7     9   am
    10     9    10    2
    11     9    11   am
    12     6    11    1
    13     6     2    1
    14     2     3    2
    15     2     4   am
    16     4     1    1
    17     1    25    1
    18    25    26    1
    19    27    26    1
    20    27    39    1
    21    39    40    1
    22    40    41   ar
    23    41    42   ar
    24    42    43   ar
    25    43    44   ar
    26    44    45   ar
    27    27    28    1
    28    28    29   am
    29    29    30    2
    30    29    32    1
    31    32    33    1
    32    33    34    1
    33    34    35   ar
    34    35    36   ar
    35    36    37   ar
    36    37    38   ar
    37     1    46    1
    38    46    47    1
    39    47    48   ar
    40    48    49   ar
    41    49    50   ar
    42    50    51   ar
    43    51    52   ar
    44     6    22    1
    45    22    23    1
    46    22    24    1
    47    16    17   ar
    48    17    18   ar
    49    18    14   ar
    50    45    40   ar
    51    38    34   ar
    52    52    47   ar
    53    11    12    1
    54     4     5    1
    55    28    31    1
@<TRIPOS>MOLECULE
*****
 52 55 0 0 0
SMALL
GASTEIGER

@<TRIPOS>ATOM
      1 C           2.5477   -0.5568   29.1269 C.3     1  UNL1        0.0760
      2 C           3.3183   -0.2483   26.6649 C.2     1  UNL1        0.2403
      3 O           3.6683    1.1814   26.9536 O.2     1  UNL1       -0.2733
      4 N           2.7580   -1.1174   27.7516 N.am    1  UNL1       -0.3043
      5 H           2.5283   -2.0558   27.5621 H       1  UNL1        0.1494
      6 C           3.5286   -0.8089   25.2896 C.3     1  UNL1        0.1496
      7 N           6.8896   -2.9134   25.4477 N.am    1  UNL1       -0.2567
      8 C           8.2645   -2.8114   26.0385 C.3     1  UNL1        0.1168
      9 C           5.8965   -1.8102   25.6641 C.2     1  UNL1        0.3046
     10 O           6.2784   -0.6050   26.4714 O.2     1  UNL1       -0.2526
     11 N           4.5216   -1.9122   25.0732 N.am    1  UNL1       -0.2824
     12 H           4.2709   -2.7032   24.5433 H       1  UNL1        0.1514
     13 C           6.5076   -4.1185   24.6404 C.3     1  UNL1        0.1413
     14 C           5.1459   -3.8104   21.0188 C.ar    1  UNL1        0.0875
     15 N           4.9217   -3.9514   22.4952 N.ar    1  UNL1       -0.2453
     16 C           6.2626   -3.9870   23.1663 C.ar    1  UNL1        0.0858
     17 C           7.3156   -3.8681   22.1047 C.ar    1  UNL1        0.0530
     18 S           6.6255   -3.7589   20.7774 S.2     1  UNL1       -0.0705
     19 C           3.5215   -4.9930   19.3717 C.3     1  UNL1        0.0069
     20 C           4.0780   -3.7342   19.9681 C.3     1  UNL1        0.0465
     21 C           3.5666   -2.3993   19.5138 C.3     1  UNL1        0.0069
     22 C           2.7458   -0.2664   24.1308 C.3     1  UNL1        0.0270
     23 C           1.6153    0.6896   24.3712 C.3     1  UNL1        0.0022
     24 C           3.0937   -0.6799   22.7315 C.3     1  UNL1        0.0022
     25 C           3.6792   -0.5410   30.1114 C.3     1  UNL1        0.0216
     26 C           3.4846   -1.1072   31.4867 C.3     1  UNL1        0.0217
     27 C           4.6753   -1.4619   32.3273 C.3     1  UNL1        0.0792
     28 N           4.5278   -1.6083   33.8128 N.am    1  UNL1       -0.2720
     29 C           4.6521   -0.4059   34.7010 C.2     1  UNL1        0.4019
     30 O           4.9240    0.9429   34.1037 O.2     1  UNL1       -0.2264
     31 H           4.3494   -2.4936   34.2049 H       1  UNL1        0.1527
     32 O           4.5046   -0.5524   36.1866 O.3     1  UNL1       -0.4291
     33 C           4.9041    0.5728   37.0945 C.3     1  UNL1        0.2447
     34 C           3.8561    1.4715   37.6809 C.ar    1  UNL1        0.0714
     35 C           3.7836    2.9615   37.5233 C.ar    1  UNL1        0.1053
     36 N           2.5793    3.4489   38.2730 N.ar    1  UNL1       -0.2350
     37 C           1.9074    2.2602   38.8939 C.ar    1  UNL1        0.1343
     38 S           2.6965    1.0382   38.5280 S.2     1  UNL1       -0.0652
     39 C           6.0134   -1.6700   31.6824 C.3     1  UNL1        0.0460
     40 C           6.3717   -3.0113   31.1143 C.ar    1  UNL1       -0.0205
     41 C           6.6355   -4.1683   32.0318 C.ar    1  UNL1       -0.0042
     42 C           6.9937   -5.5095   31.4638 C.ar    1  UNL1       -0.0003
     43 C           7.0882   -5.6938   29.9781 C.ar    1  UNL1       -0.0000
     44 C           6.8244   -4.5369   29.0606 C.ar    1  UNL1       -0.0003
     45 C           6.4662   -3.1957   29.6287 C.ar    1  UNL1       -0.0042
     46 C           1.2059   -0.0118   29.5176 C.3     1  UNL1        0.0459
     47 C           0.6111    1.1348   28.7550 C.ar    1  UNL1       -0.0205
     48 C          -0.3799    0.8735   27.6598 C.ar    1  UNL1       -0.0042
     49 C          -0.9746    2.0201   26.8972 C.ar    1  UNL1       -0.0003
     50 C          -0.5784    3.4280   27.2299 C.ar    1  UNL1       -0.0000
     51 C           0.4126    3.6894   28.3252 C.ar    1  UNL1       -0.0003
     52 C           1.0074    2.5428   29.0878 C.ar    1  UNL1       -0.0042
@<TRIPOS>BOND
     1    19    20    1
     2    20    21    1
     3    20    14    1
     4    14    15   ar
     5    15    16   ar
     6    16    13    1
     7    13     7    1
     8     7     8    1
     9     7     9   am
    10     9    10    2
    11     9    11   am
    12     6    11    1
    13     6     2    1
    14     2     3    2
    15     2     4   am
    16     4     1    1
    17     1    25    1
    18    25    26    1
    19    27    26    1
    20    27    39    1
    21    39    40    1
    22    40    41   ar
    23    41    42   ar
    24    42    43   ar
    25    43    44   ar
    26    44    45   ar
    27    27    28    1
    28    28    29   am
    29    29    30    2
    30    29    32    1
    31    32    33    1
    32    33    34    1
    33    34    35   ar
    34    35    36   ar
    35    36    37   ar
    36    37    38   ar
    37     1    46    1
    38    46    47    1
    39    47    48   ar
    40    48    49   ar
    41    49    50   ar
    42    50    51   ar
    43    51    52   ar
    44     6    22    1
    45    22    23    1
    46    22    24    1
    47    16    17   ar
    48    17    18   ar
    49    18    14   ar
    50    45    40   ar
    51    38    34   ar
    52    52    47   ar
    53    11    12    1
    54     4     5    1
    55    28    31    1
@<TRIPOS>MOLECULE
*****
 52 55 0 0 0
SMALL
GASTEIGER

@<TRIPOS>ATOM
      1 C           6.1346   -2.7435   23.4483 C.3     1  UNL1        0.0760
      2 C           6.9620   -3.4443   25.8093 C.2     1  UNL1        0.2403
      3 O           8.3795   -3.4226   25.3190 O.2     1  UNL1       -0.2733
      4 N           5.8396   -3.1048   24.8740 N.am    1  UNL1       -0.3043
      5 H           4.9093   -3.1190   25.1958 H       1  UNL1        0.1494
      6 C           6.6670   -3.8055   27.2350 C.3     1  UNL1        0.1496
      7 N           7.1312   -0.8331   29.8233 N.am    1  UNL1       -0.2567
      8 C           8.2351   -0.0118   30.4208 C.3     1  UNL1        0.1168
      9 C           7.4510   -1.9087   28.8279 C.2     1  UNL1        0.3046
     10 O           8.8748   -2.1630   28.4299 O.2     1  UNL1       -0.2526
     11 N           6.3471   -2.7299   28.2305 N.am    1  UNL1       -0.2824
     12 H           5.4127   -2.5631   28.4917 H       1  UNL1        0.1514
     13 C           5.7075   -0.5789   30.2213 C.3     1  UNL1        0.1413
     14 C           4.7546   -0.3213   33.9751 C.ar    1  UNL1        0.0875
     15 N           5.2354    0.3046   32.6996 N.ar    1  UNL1       -0.2453
     16 C           5.2830   -0.7641   31.6481 C.ar    1  UNL1        0.0858
     17 C           4.8316   -2.0505   32.2737 C.ar    1  UNL1        0.0530
     18 S           4.5051   -1.7769   33.7120 S.2     1  UNL1       -0.0705
     19 C           3.7235    1.6293   35.3470 C.3     1  UNL1        0.0069
     20 C           4.5579    0.3844   35.2841 C.3     1  UNL1        0.0465
     21 C           5.1956   -0.1548   36.5301 C.3     1  UNL1        0.0069
     22 C           6.6919   -5.2423   27.6652 C.3     1  UNL1        0.0270
     23 C           6.7238   -6.3329   26.6359 C.3     1  UNL1        0.0022
     24 C           6.6848   -5.5883   29.1247 C.3     1  UNL1        0.0022
     25 C           6.2692   -1.3031   23.0521 C.3     1  UNL1        0.0216
     26 C           5.3556   -0.2730   23.6472 C.3     1  UNL1        0.0217
     27 C           3.8698   -0.4753   23.6069 C.3     1  UNL1        0.0792
     28 N           2.9988    0.1519   24.6547 N.am    1  UNL1       -0.2720
     29 C           3.1366   -0.2612   26.0901 C.2     1  UNL1        0.4019
     30 O           4.1453   -1.3014   26.4777 O.2     1  UNL1       -0.2264
     31 H           2.3367    0.8346   24.4003 H       1  UNL1        0.1527
     32 O           2.2656    0.3661   27.1380 O.3     1  UNL1       -0.4291
     33 C           2.2475   -0.1915   28.5303 C.3     1  UNL1        0.2447
     34 C           1.7118    0.6345   29.6621 C.ar    1  UNL1        0.0714
     35 C           2.1307    0.5383   31.0992 C.ar    1  UNL1        0.1053
     36 N           1.3409    1.5460   31.8807 N.ar    1  UNL1       -0.2350
     37 C           0.4338    2.2650   30.9266 C.ar    1  UNL1        0.1343
     38 S           0.6631    1.7016   29.5555 S.2     1  UNL1       -0.0652
     39 C           3.2551   -1.3049   22.5188 C.3     1  UNL1        0.0460
     40 C           2.9612   -0.6903   21.1823 C.ar    1  UNL1       -0.0205
     41 C           1.5425   -0.5563   20.7141 C.ar    1  UNL1       -0.0042
     42 C           1.2487    0.0582   19.3777 C.ar    1  UNL1       -0.0003
     43 C           2.3736    0.5388   18.5096 C.ar    1  UNL1       -0.0000
     44 C           3.7923    0.4049   18.9778 C.ar    1  UNL1       -0.0003
     45 C           4.0861   -0.2096   20.3142 C.ar    1  UNL1       -0.0042
     46 C           6.2950   -3.8228   22.4189 C.3     1  UNL1        0.0459
     47 C           5.7809   -3.6125   21.0255 C.ar    1  UNL1       -0.0205
     48 C           4.3907   -4.0457   20.6657 C.ar    1  UNL1       -0.0042
     49 C           3.8767   -3.8355   19.2723 C.ar    1  UNL1       -0.0003
     50 C           4.7528   -3.1921   18.2387 C.ar    1  UNL1       -0.0000
     51 C           6.1432   -2.7588   18.5986 C.ar    1  UNL1       -0.0003
     52 C           6.6572   -2.9691   19.9920 C.ar    1  UNL1       -0.0042
@<TRIPOS>BOND
     1    19    20    1
     2    20    21    1
     3    20    14    1
     4    14    15   ar
     5    15    16   ar
     6    16    13    1
     7    13     7    1
     8     7     8    1
     9     7     9   am
    10     9    10    2
    11     9    11   am
    12     6    11    1
    13     6     2    1
    14     2     3    2
    15     2     4   am
    16     4     1    1
    17     1    25    1
    18    25    26    1
    19    27    26    1
    20    27    39    1
    21    39    40    1
    22    40    41   ar
    23    41    42   ar
    24    42    43   ar
    25    43    44   ar
    26    44    45   ar
    27    27    28    1
    28    28    29   am
    29    29    30    2
    30    29    32    1
    31    32    33    1
    32    33    34    1
    33    34    35   ar
    34    35    36   ar
    35    36    37   ar
    36    37    38   ar
    37     1    46    1
    38    46    47    1
    39    47    48   ar
    40    48    49   ar
    41    49    50   ar
    42    50    51   ar
    43    51    52   ar
    44     6    22    1
    45    22    23    1
    46    22    24    1
    47    16    17   ar
    48    17    18   ar
    49    18    14   ar
    50    45    40   ar
    51    38    34   ar
    52    52    47   ar
    53    11    12    1
    54     4     5    1
    55    28    31    1
@<TRIPOS>MOLECULE
*****
 52 55 0 0 0
SMALL
GASTEIGER

@<TRIPOS>ATOM
      1 C           3.7027   -0.5978   22.6207 C.3     1  UNL1        0.0760
      2 C           4.1886   -0.4644   25.1694 C.2     1  UNL1        0.2403
      3 O           4.7124    0.9305   24.9965 O.2     1  UNL1       -0.2733
      4 N           3.6837   -1.2286   23.9815 N.am    1  UNL1       -0.3043
      5 H           3.3400   -2.1441   24.0949 H       1  UNL1        0.1494
      6 C           4.1697   -1.0951   26.5302 C.3     1  UNL1        0.1496
      7 N           7.0357   -3.8356   26.3687 N.am    1  UNL1       -0.2567
      8 C           8.3625   -4.0509   25.7029 C.3     1  UNL1        0.1168
      9 C           6.2661   -2.5730   26.1166 C.2     1  UNL1        0.3046
     10 O           6.8233   -1.5256   25.1986 O.2     1  UNL1       -0.2526
     11 N           4.9393   -2.3578   26.7824 N.am    1  UNL1       -0.2824
     12 H           4.5736   -3.0452   27.3849 H       1  UNL1        0.1514
     13 C           6.4785   -4.8829   27.2867 C.3     1  UNL1        0.1413
     14 C           6.6948   -3.8249   31.0149 C.ar    1  UNL1        0.0875
     15 N           6.3944   -3.5108   29.5792 N.ar    1  UNL1       -0.2453
     16 C           6.6507   -4.7480   28.7707 C.ar    1  UNL1        0.0858
     17 C           7.1094   -5.8267   29.7067 C.ar    1  UNL1        0.0530
     18 S           7.1366   -5.2562   31.0937 S.2     1  UNL1       -0.0705
     19 C           5.2481   -2.6744   32.8407 C.3     1  UNL1        0.0069
     20 C           6.5743   -2.8745   32.1691 C.3     1  UNL1        0.0465
     21 C           7.7802   -2.1241   32.6518 C.3     1  UNL1        0.0069
     22 C           3.3812   -0.4633   27.6388 C.3     1  UNL1        0.0270
     23 C           2.2493    0.4673   27.3182 C.3     1  UNL1        0.0022
     24 C           3.7246   -0.7621   29.0681 C.3     1  UNL1        0.0022
     25 C           2.5971    0.3280   22.2077 C.3     1  UNL1        0.0216
     26 C           2.8985    1.7640   21.8965 C.3     1  UNL1        0.0217
     27 C           2.1651    2.4614   20.7892 C.3     1  UNL1        0.0792
     28 N           0.7501    2.9144   20.9956 N.am    1  UNL1       -0.2720
     29 C          -0.3871    1.9861   20.6871 C.2     1  UNL1        0.4019
     30 O          -0.1093    0.6050   20.1721 O.2     1  UNL1       -0.2264
     31 H           0.5678    3.8209   21.3336 H       1  UNL1        0.1527
     32 O          -1.8021    2.4391   20.8935 O.3     1  UNL1       -0.4291
     33 C          -2.0827    3.6949   21.6643 C.3     1  UNL1        0.2447
     34 C          -3.4321    3.9093   22.2834 C.ar    1  UNL1        0.0714
     35 C          -3.7479    4.8554   23.4037 C.ar    1  UNL1        0.1053
     36 N          -5.2135    4.7460   23.7036 N.ar    1  UNL1       -0.2350
     37 C          -5.8035    3.7323   22.7686 C.ar    1  UNL1        0.1343
     38 S          -4.7025    3.2151   21.8909 S.2     1  UNL1       -0.0652
     39 C           2.8467    2.7057   19.4756 C.3     1  UNL1        0.0460
     40 C           3.5776    1.5890   18.7907 C.ar    1  UNL1       -0.0205
     41 C           5.0736    1.5130   18.8684 C.ar    1  UNL1       -0.0042
     42 C           5.8044    0.3964   18.1836 C.ar    1  UNL1       -0.0003
     43 C           5.0391   -0.6442   17.4210 C.ar    1  UNL1       -0.0000
     44 C           3.5431   -0.5682   17.3432 C.ar    1  UNL1       -0.0003
     45 C           2.8123    0.5484   18.0281 C.ar    1  UNL1       -0.0042
     46 C           4.8273   -0.8929   21.6728 C.3     1  UNL1        0.0459
     47 C           4.7506   -2.0855   20.7663 C.ar    1  UNL1       -0.0205
     48 C           5.9964   -2.8459   20.4203 C.ar    1  UNL1       -0.0042
     49 C           5.9197   -4.0385   19.5138 C.ar    1  UNL1       -0.0003
     50 C           4.5973   -4.4707   18.9532 C.ar    1  UNL1       -0.0000
     51 C           3.3514   -3.7103   19.2991 C.ar    1  UNL1       -0.0003
     52 C           3.4281   -2.5177   20.2057 C.ar    1  UNL1       -0.0042
@<TRIPOS>BOND
     1    19    20    1
     2    20    21    1
     3    20    14    1
     4    14    15   ar
     5    15    16   ar
     6    16    13    1
     7    13     7    1
     8     7     8    1
     9     7     9   am
    10     9    10    2
    11     9    11   am
    12     6    11    1
    13     6     2    1
    14     2     3    2
    15     2     4   am
    16     4     1    1
    17     1    25    1
    18    25    26    1
    19    27    26    1
    20    27    39    1
    21    39    40    1
    22    40    41   ar
    23    41    42   ar
    24    42    43   ar
    25    43    44   ar
    26    44    45   ar
    27    27    28    1
    28    28    29   am
    29    29    30    2
    30    29    32    1
    31    32    33    1
    32    33    34    1
    33    34    35   ar
    34    35    36   ar
    35    36    37   ar
    36    37    38   ar
    37     1    46    1
    38    46    47    1
    39    47    48   ar
    40    48    49   ar
    41    49    50   ar
    42    50    51   ar
    43    51    52   ar
    44     6    22    1
    45    22    23    1
    46    22    24    1
    47    16    17   ar
    48    17    18   ar
    49    18    14   ar
    50    45    40   ar
    51    38    34   ar
    52    52    47   ar
    53    11    12    1
    54     4     5    1
    55    28    31    1
@<TRIPOS>MOLECULE
*****
 52 55 0 0 0
SMALL
GASTEIGER

@<TRIPOS>ATOM
      1 C           2.3404    0.1105   21.6523 C.3     1  UNL1        0.0760
      2 C           0.4420    1.6707   20.8086 C.2     1  UNL1        0.2403
      3 O          -0.4620    0.4844   20.6489 O.2     1  UNL1       -0.2733
      4 N           1.8432    1.4838   21.3103 N.am    1  UNL1       -0.3043
      5 H           2.4365    2.2624   21.4152 H       1  UNL1        0.1494
      6 C          -0.0552    3.0440   20.4667 C.3     1  UNL1        0.1496
      7 N          -3.2729    4.4229   22.3362 N.am    1  UNL1       -0.2567
      8 C          -4.7662    4.3035   22.2611 C.3     1  UNL1        0.1168
      9 C          -2.4107    3.6738   21.3639 C.2     1  UNL1        0.3046
     10 O          -3.0419    2.8052   20.3164 O.2     1  UNL1       -0.2526
     11 N          -0.9174    3.7932   21.4390 N.am    1  UNL1       -0.2824
     12 H          -0.5031    4.3632   22.1265 H       1  UNL1        0.1514
     13 C          -2.6417    5.2915   23.3837 C.3     1  UNL1        0.1413
     14 C          -1.0359    3.0930   26.1502 C.ar    1  UNL1        0.0875
     15 N          -1.4935    3.2917   24.7356 N.ar    1  UNL1       -0.2453
     16 C          -2.0663    4.6734   24.6235 C.ar    1  UNL1        0.0858
     17 C          -1.9628    5.3287   25.9688 C.ar    1  UNL1        0.0530
     18 S          -1.3260    4.3520   26.9124 S.2     1  UNL1       -0.0705
     19 C           0.7908    1.2500   26.0208 C.3     1  UNL1        0.0069
     20 C          -0.3999    1.8530   26.7053 C.3     1  UNL1        0.0465
     21 C          -0.9547    1.2160   27.9448 C.3     1  UNL1        0.0069
     22 C           0.3097    3.6680   19.1524 C.3     1  UNL1        0.0270
     23 C           1.5243    4.5420   19.0487 C.3     1  UNL1        0.0022
     24 C          -0.5401    3.4181   17.9419 C.3     1  UNL1        0.0022
     25 C           2.5250   -0.2845   23.0875 C.3     1  UNL1        0.0216
     26 C           3.8855   -0.2155   23.7153 C.3     1  UNL1        0.0217
     27 C           4.4187   -1.3901   24.4809 C.3     1  UNL1        0.0792
     28 N           3.7493   -1.8237   25.7513 N.am    1  UNL1       -0.2720
     29 C           3.8513   -0.9714   26.9815 C.2     1  UNL1        0.4019
     30 O           4.6228    0.3143   26.9413 O.2     1  UNL1       -0.2264
     31 H           3.2430   -2.6676   25.7777 H       1  UNL1        0.1527
     32 O           3.1819   -1.4050   28.2519 O.3     1  UNL1       -0.4291
     33 C           2.2115   -0.4901   28.9384 C.3     1  UNL1        0.2447
     34 C           2.4784   -0.0298   30.3409 C.ar    1  UNL1        0.0714
     35 C           1.8607    1.1621   31.0102 C.ar    1  UNL1        0.1053
     36 N           2.4103    1.2480   32.4032 N.ar    1  UNL1       -0.2350
     37 C           3.3676    0.1092   32.5949 C.ar    1  UNL1        0.1343
     38 S           3.4097   -0.6805   31.3203 S.2     1  UNL1       -0.0652
     39 C           5.6213   -2.1310   23.9762 C.3     1  UNL1        0.0460
     40 C           5.6077   -2.7365   22.6038 C.ar    1  UNL1       -0.0205
     41 C           6.7823   -2.5494   21.6899 C.ar    1  UNL1       -0.0042
     42 C           6.7687   -3.1549   20.3176 C.ar    1  UNL1       -0.0003
     43 C           5.5805   -3.9473   19.8592 C.ar    1  UNL1       -0.0000
     44 C           4.4059   -4.1344   20.7731 C.ar    1  UNL1       -0.0003
     45 C           4.4195   -3.5289   22.1454 C.ar    1  UNL1       -0.0042
     46 C           2.6530   -0.8678   20.5590 C.3     1  UNL1        0.0459
     47 C           3.7985   -0.6088   19.6258 C.ar    1  UNL1       -0.0205
     48 C           5.0277    0.0921   20.1236 C.ar    1  UNL1       -0.0042
     49 C           6.1732    0.3511   19.1904 C.ar    1  UNL1       -0.0003
     50 C           6.0894   -0.0908   17.7594 C.ar    1  UNL1       -0.0000
     51 C           4.8602   -0.7916   17.2616 C.ar    1  UNL1       -0.0003
     52 C           3.7147   -1.0507   18.1947 C.ar    1  UNL1       -0.0042
@<TRIPOS>BOND
     1    19    20    1
     2    20    21    1
     3    20    14    1
     4    14    15   ar
     5    15    16   ar
     6    16    13    1
     7    13     7    1
     8     7     8    1
     9     7     9   am
    10     9    10    2
    11     9    11   am
    12     6    11    1
    13     6     2    1
    14     2     3    2
    15     2     4   am
    16     4     1    1
    17     1    25    1
    18    25    26    1
    19    27    26    1
    20    27    39    1
    21    39    40    1
    22    40    41   ar
    23    41    42   ar
    24    42    43   ar
    25    43    44   ar
    26    44    45   ar
    27    27    28    1
    28    28    29   am
    29    29    30    2
    30    29    32    1
    31    32    33    1
    32    33    34    1
    33    34    35   ar
    34    35    36   ar
    35    36    37   ar
    36    37    38   ar
    37     1    46    1
    38    46    47    1
    39    47    48   ar
    40    48    49   ar
    41    49    50   ar
    42    50    51   ar
    43    51    52   ar
    44     6    22    1
    45    22    23    1
    46    22    24    1
    47    16    17   ar
    48    17    18   ar
    49    18    14   ar
    50    45    40   ar
    51    38    34   ar
    52    52    47   ar
    53    11    12    1
    54     4     5    1
    55    28    31    1
