@<TRIPOS>MOLECULE
*****
 22 25 0 0 0
SMALL
GASTEIGER

@<TRIPOS>ATOM
      1 C          -8.3424  -19.0348   21.6165 C.2     1  UNL1       -0.0000
      2 C          -7.1329  -18.3793   22.2143 C.2     1  UNL1       -0.0006
      3 C          -5.8088  -18.9124   21.7529 C.ar    1  UNL1       -0.0040
      4 C          -5.9812  -20.0233   20.7600 C.ar    1  UNL1       -0.0003
      5 C          -4.7770  -20.6970   20.1718 C.ar    1  UNL1       -0.0000
      6 C          -3.4005  -20.2598   20.5767 C.ar    1  UNL1       -0.0003
      7 C          -3.2281  -19.1489   21.5696 C.ar    1  UNL1       -0.0043
      8 C          -4.4323  -18.4752   22.1578 C.ar    1  UNL1       -0.0218
      9 C          -4.0398  -17.3969   23.1239 C.3     1  UNL1        0.0310
     10 C          -4.9268  -16.4896   23.9239 C.3     1  UNL1        0.0310
     11 C          -6.4256  -16.4365   23.9552 C.ar    1  UNL1       -0.0218
     12 C          -6.9168  -15.3763   24.8958 C.ar    1  UNL1       -0.0043
     13 C          -8.3898  -15.1570   25.0755 C.ar    1  UNL1       -0.0003
     14 C          -9.3715  -15.9980   24.3147 C.ar    1  UNL1       -0.0000
     15 C          -8.8804  -17.0582   23.3741 C.ar    1  UNL1       -0.0003
     16 C          -7.4074  -17.2774   23.1944 C.ar    1  UNL1       -0.0040
     17 C          -9.7154  -18.5769   22.0103 C.ar    1  UNL1       -0.0000
     18 C         -10.3988  -17.4956   21.2269 C.ar    1  UNL1       -0.0000
     19 C         -11.7718  -17.0376   21.6207 C.ar    1  UNL1        0.0000
     20 C         -12.4614  -17.6609   22.7979 C.ar    1  UNL1        0.0000
     21 C         -11.7780  -18.7422   23.5813 C.ar    1  UNL1        0.0000
     22 C         -10.4050  -19.2002   23.1876 C.ar    1  UNL1       -0.0000
@<TRIPOS>BOND
     1     1     2    2
     2     2     3    1
     3     3     4   ar
     4     4     5   ar
     5     5     6   ar
     6     6     7   ar
     7     7     8   ar
     8     8     9    1
     9     9    10    1
    10    10    11    1
    11    11    12   ar
    12    12    13   ar
    13    13    14   ar
    14    14    15   ar
    15    15    16   ar
    16     1    17    1
    17    17    18   ar
    18    18    19   ar
    19    19    20   ar
    20    20    21   ar
    21    21    22   ar
    22    16     2    1
    23    22    17   ar
    24     8     3   ar
    25    16    11   ar
@<TRIPOS>MOLECULE
*****
 22 25 0 0 0
SMALL
GASTEIGER

@<TRIPOS>ATOM
      1 C          -8.1150  -17.3492   23.1070 C.2     1  UNL1       -0.0000
      2 C          -7.3327  -18.1697   22.1247 C.2     1  UNL1       -0.0006
      3 C          -5.8478  -18.1957   22.3353 C.ar    1  UNL1       -0.0040
      4 C          -5.4479  -17.3692   23.5215 C.ar    1  UNL1       -0.0003
      5 C          -4.0025  -17.2612   23.9073 C.ar    1  UNL1       -0.0000
      6 C          -2.9568  -17.9795   23.1069 C.ar    1  UNL1       -0.0003
      7 C          -3.3567  -18.8060   21.9208 C.ar    1  UNL1       -0.0043
      8 C          -4.8022  -18.9141   21.5350 C.ar    1  UNL1       -0.0218
      9 C          -4.9833  -19.7838   20.3263 C.3     1  UNL1        0.0310
     10 C          -6.2546  -20.1500   19.6195 C.3     1  UNL1        0.0310
     11 C          -7.6590  -19.7369   19.9469 C.ar    1  UNL1       -0.0218
     12 C          -8.6433  -20.3286   18.9820 C.ar    1  UNL1       -0.0043
     13 C         -10.1074  -20.0390   19.1321 C.ar    1  UNL1       -0.0003
     14 C         -10.5872  -19.1577   20.2469 C.ar    1  UNL1       -0.0000
     15 C          -9.6029  -18.5659   21.2118 C.ar    1  UNL1       -0.0003
     16 C          -8.1388  -18.8555   21.0618 C.ar    1  UNL1       -0.0040
     17 C          -9.6073  -17.2561   22.9861 C.ar    1  UNL1       -0.0000
     18 C         -10.2257  -16.1828   22.1403 C.ar    1  UNL1       -0.0000
     19 C         -11.7179  -16.0896   22.0193 C.ar    1  UNL1        0.0000
     20 C         -12.5917  -17.0699   22.7442 C.ar    1  UNL1        0.0000
     21 C         -11.9733  -18.1432   23.5900 C.ar    1  UNL1        0.0000
     22 C         -10.4811  -18.2364   23.7110 C.ar    1  UNL1       -0.0000
@<TRIPOS>BOND
     1     1     2    2
     2     2     3    1
     3     3     4   ar
     4     4     5   ar
     5     5     6   ar
     6     6     7   ar
     7     7     8   ar
     8     8     9    1
     9     9    10    1
    10    10    11    1
    11    11    12   ar
    12    12    13   ar
    13    13    14   ar
    14    14    15   ar
    15    15    16   ar
    16     1    17    1
    17    17    18   ar
    18    18    19   ar
    19    19    20   ar
    20    20    21   ar
    21    21    22   ar
    22    16     2    1
    23    22    17   ar
    24     8     3   ar
    25    16    11   ar
@<TRIPOS>MOLECULE
*****
 22 25 0 0 0
SMALL
GASTEIGER

@<TRIPOS>ATOM
      1 C          -9.3702  -16.4252   23.4784 C.2     1  UNL1       -0.0000
      2 C          -8.0917  -17.0642   23.0234 C.2     1  UNL1       -0.0006
      3 C          -6.8603  -16.6694   23.7837 C.ar    1  UNL1       -0.0040
      4 C          -7.1795  -15.6880   24.8722 C.ar    1  UNL1       -0.0003
      5 C          -6.0850  -15.1636   25.7537 C.ar    1  UNL1       -0.0000
      6 C          -4.6714  -15.6206   25.5467 C.ar    1  UNL1       -0.0003
      7 C          -4.3523  -16.6020   24.4582 C.ar    1  UNL1       -0.0043
      8 C          -5.4467  -17.1264   23.5766 C.ar    1  UNL1       -0.0218
      9 C          -4.9154  -18.0910   22.5582 C.3     1  UNL1        0.0310
     10 C          -5.6663  -18.8370   21.4954 C.3     1  UNL1        0.0310
     11 C          -7.1342  -18.8024   21.1884 C.ar    1  UNL1       -0.0218
     12 C          -7.4749  -19.7035   20.0387 C.ar    1  UNL1       -0.0043
     13 C          -8.8951  -19.8157   19.5690 C.ar    1  UNL1       -0.0003
     14 C          -9.9744  -19.0268   20.2490 C.ar    1  UNL1       -0.0000
     15 C          -9.6337  -18.1257   21.3987 C.ar    1  UNL1       -0.0003
     16 C          -8.2136  -18.0135   21.8684 C.ar    1  UNL1       -0.0040
     17 C         -10.6599  -16.7517   22.7854 C.ar    1  UNL1       -0.0000
     18 C         -11.0705  -15.9835   21.5643 C.ar    1  UNL1       -0.0000
     19 C         -12.3602  -16.3099   20.8713 C.ar    1  UNL1        0.0000
     20 C         -13.2392  -17.4046   21.3994 C.ar    1  UNL1        0.0000
     21 C         -12.8286  -18.1728   22.6205 C.ar    1  UNL1        0.0000
     22 C         -11.5389  -17.8464   23.3135 C.ar    1  UNL1       -0.0000
@<TRIPOS>BOND
     1     1     2    2
     2     2     3    1
     3     3     4   ar
     4     4     5   ar
     5     5     6   ar
     6     6     7   ar
     7     7     8   ar
     8     8     9    1
     9     9    10    1
    10    10    11    1
    11    11    12   ar
    12    12    13   ar
    13    13    14   ar
    14    14    15   ar
    15    15    16   ar
    16     1    17    1
    17    17    18   ar
    18    18    19   ar
    19    19    20   ar
    20    20    21   ar
    21    21    22   ar
    22    16     2    1
    23    22    17   ar
    24     8     3   ar
    25    16    11   ar
@<TRIPOS>MOLECULE
*****
 22 25 0 0 0
SMALL
GASTEIGER

@<TRIPOS>ATOM
      1 C          -9.4064  -17.2199   23.5403 C.2     1  UNL1       -0.0000
      2 C          -7.9111  -17.1681   23.6465 C.2     1  UNL1       -0.0006
      3 C          -7.3680  -16.4173   24.8261 C.ar    1  UNL1       -0.0040
      4 C          -8.4711  -15.8599   25.6760 C.ar    1  UNL1       -0.0003
      5 C          -8.1424  -15.0722   26.9095 C.ar    1  UNL1       -0.0000
      6 C          -6.7107  -14.8418   27.2929 C.ar    1  UNL1       -0.0003
      7 C          -5.6076  -15.3992   26.4429 C.ar    1  UNL1       -0.0043
      8 C          -5.9363  -16.1869   25.2095 C.ar    1  UNL1       -0.0218
      9 C          -4.6940  -16.6505   24.5081 C.3     1  UNL1        0.0310
     10 C          -4.5767  -17.4589   23.2500 C.3     1  UNL1        0.0310
     11 C          -5.6727  -18.0034   22.3826 C.ar    1  UNL1       -0.0218
     12 C          -5.1198  -18.7606   21.2118 C.ar    1  UNL1       -0.0043
     13 C          -6.0509  -19.3885   20.2173 C.ar    1  UNL1       -0.0003
     14 C          -7.5348  -19.2591   20.3937 C.ar    1  UNL1       -0.0000
     15 C          -8.0877  -18.5018   21.5646 C.ar    1  UNL1       -0.0003
     16 C          -7.1567  -17.8740   22.5590 C.ar    1  UNL1       -0.0040
     17 C         -10.0526  -17.9459   22.3977 C.ar    1  UNL1       -0.0000
     18 C         -10.3785  -19.4045   22.5242 C.ar    1  UNL1       -0.0000
     19 C         -11.0246  -20.1305   21.3817 C.ar    1  UNL1        0.0000
     20 C         -11.3447  -19.3978   20.1126 C.ar    1  UNL1        0.0000
     21 C         -11.0187  -17.9392   19.9860 C.ar    1  UNL1        0.0000
     22 C         -10.3727  -17.2132   21.1286 C.ar    1  UNL1       -0.0000
@<TRIPOS>BOND
     1     1     2    2
     2     2     3    1
     3     3     4   ar
     4     4     5   ar
     5     5     6   ar
     6     6     7   ar
     7     7     8   ar
     8     8     9    1
     9     9    10    1
    10    10    11    1
    11    11    12   ar
    12    12    13   ar
    13    13    14   ar
    14    14    15   ar
    15    15    16   ar
    16     1    17    1
    17    17    18   ar
    18    18    19   ar
    19    19    20   ar
    20    20    21   ar
    21    21    22   ar
    22    16     2    1
    23    22    17   ar
    24     8     3   ar
    25    16    11   ar
@<TRIPOS>MOLECULE
*****
 22 25 0 0 0
SMALL
GASTEIGER

@<TRIPOS>ATOM
      1 C         -14.2974   -7.9431   18.5905 C.2     1  UNL1       -0.0000
      2 C         -14.0072   -6.5085   18.9188 C.2     1  UNL1       -0.0006
      3 C         -12.5587   -6.1191   18.9103 C.ar    1  UNL1       -0.0040
      4 C         -11.6799   -7.2844   18.5643 C.ar    1  UNL1       -0.0003
      5 C         -10.1916   -7.1087   18.5011 C.ar    1  UNL1       -0.0000
      6 C          -9.5821   -5.7676   18.7838 C.ar    1  UNL1       -0.0003
      7 C         -10.4608   -4.6023   19.1298 C.ar    1  UNL1       -0.0043
      8 C         -11.9491   -4.7780   19.1931 C.ar    1  UNL1       -0.0218
      9 C         -12.6376   -3.4952   19.5541 C.3     1  UNL1        0.0310
     10 C         -14.1056   -3.2365   19.7215 C.3     1  UNL1        0.0310
     11 C         -15.2477   -4.1969   19.5693 C.ar    1  UNL1       -0.0218
     12 C         -16.5650   -3.5269   19.8260 C.ar    1  UNL1       -0.0043
     13 C         -17.8385   -4.3131   19.7255 C.ar    1  UNL1       -0.0003
     14 C         -17.7948   -5.7692   19.3683 C.ar    1  UNL1       -0.0000
     15 C         -16.4775   -6.4392   19.1115 C.ar    1  UNL1       -0.0003
     16 C         -15.2040   -5.6531   19.2120 C.ar    1  UNL1       -0.0040
     17 C         -15.7139   -8.4364   18.5714 C.ar    1  UNL1       -0.0000
     18 C         -16.5108   -8.3795   17.3020 C.ar    1  UNL1       -0.0000
     19 C         -17.9272   -8.8728   17.2828 C.ar    1  UNL1        0.0000
     20 C         -18.5466   -9.4231   18.5332 C.ar    1  UNL1        0.0000
     21 C         -17.7497   -9.4800   19.8026 C.ar    1  UNL1        0.0000
     22 C         -16.3333   -8.9867   19.8218 C.ar    1  UNL1       -0.0000
@<TRIPOS>BOND
     1     1     2    2
     2     2     3    1
     3     3     4   ar
     4     4     5   ar
     5     5     6   ar
     6     6     7   ar
     7     7     8   ar
     8     8     9    1
     9     9    10    1
    10    10    11    1
    11    11    12   ar
    12    12    13   ar
    13    13    14   ar
    14    14    15   ar
    15    15    16   ar
    16     1    17    1
    17    17    18   ar
    18    18    19   ar
    19    19    20   ar
    20    20    21   ar
    21    21    22   ar
    22    16     2    1
    23    22    17   ar
    24     8     3   ar
    25    16    11   ar
@<TRIPOS>MOLECULE
*****
 22 25 0 0 0
SMALL
GASTEIGER

@<TRIPOS>ATOM
      1 C          -7.0544  -19.2203   21.1240 C.2     1  UNL1       -0.0000
      2 C          -7.7641  -18.2497   22.0208 C.2     1  UNL1       -0.0006
      3 C          -9.2626  -18.2887   21.9655 C.ar    1  UNL1       -0.0040
      4 C          -9.7485  -19.3231   20.9941 C.ar    1  UNL1       -0.0003
      5 C         -11.2203  -19.5250   20.7872 C.ar    1  UNL1       -0.0000
      6 C         -12.2063  -18.6923   21.5517 C.ar    1  UNL1       -0.0003
      7 C         -11.7205  -17.6578   22.5231 C.ar    1  UNL1       -0.0043
      8 C         -10.2486  -17.4560   22.7301 C.ar    1  UNL1       -0.0218
      9 C          -9.9796  -16.3787   23.7386 C.3     1  UNL1        0.0310
     10 C          -8.6582  -15.8681   24.2318 C.3     1  UNL1        0.0310
     11 C          -7.2794  -16.3086   23.8382 C.ar    1  UNL1       -0.0218
     12 C          -6.2260  -15.5346   24.5737 C.ar    1  UNL1       -0.0043
     13 C          -4.7745  -15.8205   24.3253 C.ar    1  UNL1       -0.0003
     14 C          -4.3766  -16.8804   23.3413 C.ar    1  UNL1       -0.0000
     15 C          -5.4301  -17.6544   22.6058 C.ar    1  UNL1       -0.0003
     16 C          -6.8815  -17.3686   22.8542 C.ar    1  UNL1       -0.0040
     17 C          -5.5551  -19.2635   21.1027 C.ar    1  UNL1       -0.0000
     18 C          -4.8101  -19.9833   22.1874 C.ar    1  UNL1       -0.0000
     19 C          -3.3109  -20.0265   22.1662 C.ar    1  UNL1        0.0000
     20 C          -2.5567  -19.3497   21.0601 C.ar    1  UNL1        0.0000
     21 C          -3.3018  -18.6298   19.9755 C.ar    1  UNL1        0.0000
     22 C          -4.8010  -18.5867   19.9967 C.ar    1  UNL1       -0.0000
@<TRIPOS>BOND
     1     1     2    2
     2     2     3    1
     3     3     4   ar
     4     4     5   ar
     5     5     6   ar
     6     6     7   ar
     7     7     8   ar
     8     8     9    1
     9     9    10    1
    10    10    11    1
    11    11    12   ar
    12    12    13   ar
    13    13    14   ar
    14    14    15   ar
    15    15    16   ar
    16     1    17    1
    17    17    18   ar
    18    18    19   ar
    19    19    20   ar
    20    20    21   ar
    21    21    22   ar
    22    16     2    1
    23    22    17   ar
    24     8     3   ar
    25    16    11   ar
@<TRIPOS>MOLECULE
*****
 22 25 0 0 0
SMALL
GASTEIGER

@<TRIPOS>ATOM
      1 C         -12.8331   -7.3683   18.0101 C.2     1  UNL1       -0.0000
      2 C         -14.1127   -6.8233   18.5720 C.2     1  UNL1       -0.0006
      3 C         -15.2422   -7.8035   18.6880 C.ar    1  UNL1       -0.0040
      4 C         -14.8391   -9.1641   18.2019 C.ar    1  UNL1       -0.0003
      5 C         -15.8254  -10.2938   18.2320 C.ar    1  UNL1       -0.0000
      6 C         -17.2147  -10.0629   18.7483 C.ar    1  UNL1       -0.0003
      7 C         -17.6178   -8.7024   19.2344 C.ar    1  UNL1       -0.0043
      8 C         -16.6315   -7.5727   19.2043 C.ar    1  UNL1       -0.0218
      9 C         -17.2344   -6.3045   19.7320 C.3     1  UNL1        0.0310
     10 C         -16.5970   -4.9541   19.8738 C.3     1  UNL1        0.0310
     11 C         -15.1991   -4.5383   19.5229 C.ar    1  UNL1       -0.0218
     12 C         -14.9671   -3.0873   19.8241 C.ar    1  UNL1       -0.0043
     13 C         -13.6295   -2.4681   19.5458 C.ar    1  UNL1       -0.0003
     14 C         -12.5239   -3.2999   18.9665 C.ar    1  UNL1       -0.0000
     15 C         -12.7559   -4.7509   18.6654 C.ar    1  UNL1       -0.0003
     16 C         -14.0935   -5.3702   18.9436 C.ar    1  UNL1       -0.0040
     17 C         -11.6413   -6.4713   17.8520 C.ar    1  UNL1       -0.0000
     18 C         -10.6680   -6.3111   18.9820 C.ar    1  UNL1       -0.0000
     19 C          -9.4762   -5.4142   18.8240 C.ar    1  UNL1        0.0000
     20 C          -9.2576   -4.6775   17.5357 C.ar    1  UNL1        0.0000
     21 C         -10.2309   -4.8377   16.4057 C.ar    1  UNL1        0.0000
     22 C         -11.4227   -5.7346   16.5638 C.ar    1  UNL1       -0.0000
@<TRIPOS>BOND
     1     1     2    2
     2     2     3    1
     3     3     4   ar
     4     4     5   ar
     5     5     6   ar
     6     6     7   ar
     7     7     8   ar
     8     8     9    1
     9     9    10    1
    10    10    11    1
    11    11    12   ar
    12    12    13   ar
    13    13    14   ar
    14    14    15   ar
    15    15    16   ar
    16     1    17    1
    17    17    18   ar
    18    18    19   ar
    19    19    20   ar
    20    20    21   ar
    21    21    22   ar
    22    16     2    1
    23    22    17   ar
    24     8     3   ar
    25    16    11   ar
@<TRIPOS>MOLECULE
*****
 22 25 0 0 0
SMALL
GASTEIGER

@<TRIPOS>ATOM
      1 C          -4.3213  -17.0877   23.5739 C.2     1  UNL1       -0.0000
      2 C          -5.8186  -17.1616   23.5222 C.2     1  UNL1       -0.0006
      3 C          -6.5433  -16.4672   24.6369 C.ar    1  UNL1       -0.0040
      4 C          -5.5861  -15.8259   25.5972 C.ar    1  UNL1       -0.0003
      5 C          -6.1071  -15.0773   26.7880 C.ar    1  UNL1       -0.0000
      6 C          -7.5854  -14.9700   27.0185 C.ar    1  UNL1       -0.0003
      7 C          -8.5427  -15.6112   26.0581 C.ar    1  UNL1       -0.0043
      8 C          -8.0216  -16.3599   24.8674 C.ar    1  UNL1       -0.0218
      9 C          -9.1403  -16.9204   24.0400 C.3     1  UNL1        0.0310
     10 C          -9.0570  -17.7267   22.7778 C.3     1  UNL1        0.0310
     11 C          -7.8343  -18.1716   22.0313 C.ar    1  UNL1       -0.0218
     12 C          -8.1960  -18.9638   20.8100 C.ar    1  UNL1       -0.0043
     13 C          -7.1164  -19.5046   19.9200 C.ar    1  UNL1       -0.0003
     14 C          -5.6752  -19.2531   20.2512 C.ar    1  UNL1       -0.0000
     15 C          -5.3136  -18.4609   21.4725 C.ar    1  UNL1       -0.0003
     16 C          -6.3931  -17.9201   22.3626 C.ar    1  UNL1       -0.0040
     17 C          -3.5004  -17.7490   22.5067 C.ar    1  UNL1       -0.0000
     18 C          -3.2005  -19.2161   22.5924 C.ar    1  UNL1       -0.0000
     19 C          -2.3796  -19.8775   21.5252 C.ar    1  UNL1        0.0000
     20 C          -1.8587  -19.0716   20.3723 C.ar    1  UNL1        0.0000
     21 C          -2.1587  -17.6044   20.2866 C.ar    1  UNL1        0.0000
     22 C          -2.9795  -16.9431   21.3538 C.ar    1  UNL1       -0.0000
@<TRIPOS>BOND
     1     1     2    2
     2     2     3    1
     3     3     4   ar
     4     4     5   ar
     5     5     6   ar
     6     6     7   ar
     7     7     8   ar
     8     8     9    1
     9     9    10    1
    10    10    11    1
    11    11    12   ar
    12    12    13   ar
    13    13    14   ar
    14    14    15   ar
    15    15    16   ar
    16     1    17    1
    17    17    18   ar
    18    18    19   ar
    19    19    20   ar
    20    20    21   ar
    21    21    22   ar
    22    16     2    1
    23    22    17   ar
    24     8     3   ar
    25    16    11   ar
