@<TRIPOS>MOLECULE
*****
 32 35 0 0 0
SMALL
GASTEIGER

@<TRIPOS>ATOM
      1 N          -8.3714  -19.2601   21.5786 N.3     1  UNL1       -0.2679
      2 C          -8.7932  -18.8639   22.9625 C.3     1  UNL1        0.0978
      3 C          -9.5757  -19.8218   23.8111 C.3     1  UNL1        0.0224
      4 C          -9.9975  -19.4257   25.1950 C.3     1  UNL1        0.0065
      5 C          -9.6369  -18.0717   25.7303 C.3     1  UNL1        0.0277
      6 C          -8.8544  -17.1138   24.8817 C.ar    1  UNL1       -0.0073
      7 C          -8.4938  -15.7597   25.4169 C.ar    1  UNL1       -0.0015
      8 C          -7.7113  -14.8018   24.5683 C.ar    1  UNL1        0.0203
      9 C          -7.2895  -15.1979   23.1844 C.ar    1  UNL1        0.0985
     10 N          -7.6501  -16.5519   22.6492 N.ar    1  UNL1       -0.2471
     11 C          -8.4326  -17.5099   23.4978 C.ar    1  UNL1        0.0695
     12 C          -9.2072  -18.8644   20.3977 C.3     1  UNL1        0.0724
     13 C         -10.3241  -17.0616   20.4469 C.3     1  UNL1        0.0014
     14 C         -10.6546  -18.5182   20.5854 C.3     1  UNL1        0.0161
     15 C         -10.9850  -19.9747   20.7240 C.3     1  UNL1        0.0014
     16 C         -12.1019  -18.1719   20.7732 C.3     1  UNL1        0.0182
     17 C         -12.5332  -17.3733   21.9675 C.3     1  UNL1        0.0652
     18 N         -12.7934  -18.0605   23.2751 N.3     1  UNL1       -0.3211
     19 H         -13.6011  -18.6763   23.1808 H       1  UNL1        0.1189
     20 H         -12.9803  -17.3624   23.9949 H       1  UNL1        0.1189
     21 C          -7.1137  -20.0519   21.3757 C.3     1  UNL1        0.0886
     22 C          -5.7806  -19.3651   21.4139 C.3     1  UNL1        0.0748
     23 C          -4.9140  -19.3411   20.1898 C.3     1  UNL1        0.0432
     24 C          -3.5809  -18.6544   20.2280 C.ar    1  UNL1       -0.0234
     25 C          -2.7143  -18.6304   19.0039 C.ar    1  UNL1       -0.0045
     26 C          -1.3813  -17.9437   19.0421 C.ar    1  UNL1       -0.0003
     27 C          -0.9150  -17.2809   20.3043 C.ar    1  UNL1       -0.0003
     28 C          -1.7816  -17.3049   21.5284 C.ar    1  UNL1       -0.0032
     29 C          -3.1146  -17.9916   21.4902 C.ar    1  UNL1       -0.0103
     30 C          -3.9813  -18.0156   22.7143 C.3     1  UNL1        0.0953
     31 N          -5.3143  -18.7023   22.6761 N.3     1  UNL1       -0.2934
     32 H          -6.0142  -18.0002   22.9159 H       1  UNL1        0.1236
@<TRIPOS>BOND
     1    13    14    1
     2    14    15    1
     3    14    16    1
     4    16    17    1
     5    17    18    1
     6    14    12    1
     7    12     1    1
     8     1    21    1
     9    22    21    1
    10    22    23    1
    11    23    24    1
    12    24    25   ar
    13    25    26   ar
    14    26    27   ar
    15    27    28   ar
    16    28    29   ar
    17    29    30    1
    18    30    31    1
    19     2     1    1
    20     2     3    1
    21     3     4    1
    22     4     5    1
    23     5     6    1
    24     6     7   ar
    25     7     8   ar
    26     8     9   ar
    27     9    10   ar
    28    10    11   ar
    29    31    22    1
    30    11     2    1
    31    29    24   ar
    32    11     6   ar
    33    18    19    1
    34    18    20    1
    35    31    32    1
@<TRIPOS>MOLECULE
*****
 32 35 0 0 0
SMALL
GASTEIGER

@<TRIPOS>ATOM
      1 N          -9.4615  -18.7174   22.7487 N.3     1  UNL1       -0.2679
      2 C          -8.8781  -17.3882   23.1265 C.3     1  UNL1        0.0978
      3 C          -8.4335  -16.4334   22.0585 C.3     1  UNL1        0.0224
      4 C          -7.8501  -15.1042   22.4363 C.3     1  UNL1        0.0065
      5 C          -7.7112  -14.7297   23.8821 C.3     1  UNL1        0.0277
      6 C          -8.1558  -15.6845   24.9502 C.ar    1  UNL1       -0.0073
      7 C          -8.0169  -15.3101   26.3961 C.ar    1  UNL1       -0.0015
      8 C          -8.4615  -16.2648   27.4641 C.ar    1  UNL1        0.0203
      9 C          -9.0449  -17.5941   27.0863 C.ar    1  UNL1        0.0985
     10 N          -9.1838  -17.9685   25.6405 N.ar    1  UNL1       -0.2471
     11 C          -8.7392  -17.0137   24.5724 C.ar    1  UNL1        0.0695
     12 C         -10.9446  -18.8647   22.5793 C.3     1  UNL1        0.0724
     13 C         -12.2955  -17.2877   23.0130 C.3     1  UNL1        0.0014
     14 C         -11.7086  -17.8671   21.7601 C.3     1  UNL1        0.0161
     15 C         -11.1217  -18.4464   20.5072 C.3     1  UNL1        0.0014
     16 C         -12.4726  -16.8694   20.9409 C.3     1  UNL1        0.0182
     17 C         -11.7605  -16.0395   19.9142 C.3     1  UNL1        0.0652
     18 N         -12.5442  -15.3172   18.8587 N.3     1  UNL1       -0.3211
     19 H         -12.9956  -15.9964   18.2460 H       1  UNL1        0.1189
     20 H         -11.9156  -14.7299   18.3106 H       1  UNL1        0.1189
     21 C          -8.5619  -19.8995   22.5404 C.3     1  UNL1        0.0886
     22 C          -7.2787  -19.7405   21.7800 C.3     1  UNL1        0.0748
     23 C          -6.0117  -19.4039   22.5089 C.3     1  UNL1        0.0432
     24 C          -4.7285  -19.2450   21.7485 C.ar    1  UNL1       -0.0234
     25 C          -3.4615  -18.9084   22.4774 C.ar    1  UNL1       -0.0045
     26 C          -2.1784  -18.7495   21.7170 C.ar    1  UNL1       -0.0003
     27 C          -2.1622  -18.9272   20.2277 C.ar    1  UNL1       -0.0003
     28 C          -3.4292  -19.2638   19.4987 C.ar    1  UNL1       -0.0032
     29 C          -4.7123  -19.4227   20.2591 C.ar    1  UNL1       -0.0103
     30 C          -5.9794  -19.7594   19.5302 C.3     1  UNL1        0.0953
     31 N          -7.2625  -19.9183   20.2906 N.3     1  UNL1       -0.2934
     32 H          -7.6010  -20.8620   20.1030 H       1  UNL1        0.1236
@<TRIPOS>BOND
     1    13    14    1
     2    14    15    1
     3    14    16    1
     4    16    17    1
     5    17    18    1
     6    14    12    1
     7    12     1    1
     8     1    21    1
     9    22    21    1
    10    22    23    1
    11    23    24    1
    12    24    25   ar
    13    25    26   ar
    14    26    27   ar
    15    27    28   ar
    16    28    29   ar
    17    29    30    1
    18    30    31    1
    19     2     1    1
    20     2     3    1
    21     3     4    1
    22     4     5    1
    23     5     6    1
    24     6     7   ar
    25     7     8   ar
    26     8     9   ar
    27     9    10   ar
    28    10    11   ar
    29    31    22    1
    30    11     2    1
    31    29    24   ar
    32    11     6   ar
    33    18    19    1
    34    18    20    1
    35    31    32    1
@<TRIPOS>MOLECULE
*****
 32 35 0 0 0
SMALL
GASTEIGER

@<TRIPOS>ATOM
      1 N          -8.9817  -18.2502   22.9746 N.3     1  UNL1       -0.2679
      2 C          -8.7236  -17.6630   24.3305 C.3     1  UNL1        0.0978
      3 C          -9.6067  -18.0286   25.4865 C.3     1  UNL1        0.0224
      4 C          -9.3487  -17.4413   26.8425 C.3     1  UNL1        0.0065
      5 C          -8.2076  -16.4885   27.0424 C.3     1  UNL1        0.0277
      6 C          -7.3245  -16.1230   25.8863 C.ar    1  UNL1       -0.0073
      7 C          -6.1833  -15.1701   26.0862 C.ar    1  UNL1       -0.0015
      8 C          -5.3002  -14.8046   24.9302 C.ar    1  UNL1        0.0203
      9 C          -5.5583  -15.3918   23.5742 C.ar    1  UNL1        0.0985
     10 N          -6.6994  -16.3446   23.3743 N.ar    1  UNL1       -0.2471
     11 C          -7.5825  -16.7102   24.5304 C.ar    1  UNL1        0.0695
     12 C         -10.0182  -17.6405   22.0781 C.3     1  UNL1        0.0724
     13 C         -11.5180  -19.1324   22.2366 C.3     1  UNL1        0.0014
     14 C         -11.4623  -17.6539   22.4837 C.3     1  UNL1        0.0161
     15 C         -11.4066  -16.1755   22.7309 C.3     1  UNL1        0.0014
     16 C         -12.9063  -17.6674   22.8894 C.3     1  UNL1        0.0182
     17 C         -13.3385  -18.4427   24.0987 C.3     1  UNL1        0.0652
     18 N         -14.5578  -18.0208   24.8637 N.3     1  UNL1       -0.3211
     19 H         -14.3912  -17.1114   25.2945 H       1  UNL1        0.1189
     20 H         -14.7590  -18.7090   25.5892 H       1  UNL1        0.1189
     21 C          -8.2031  -19.4472   22.5151 C.3     1  UNL1        0.0886
     22 C          -6.9506  -19.2635   21.7104 C.3     1  UNL1        0.0748
     23 C          -5.6150  -19.2549   22.3932 C.3     1  UNL1        0.0432
     24 C          -4.3624  -19.0712   21.5886 C.ar    1  UNL1       -0.0234
     25 C          -3.0269  -19.0626   22.2714 C.ar    1  UNL1       -0.0045
     26 C          -1.7744  -18.8789   21.4667 C.ar    1  UNL1       -0.0003
     27 C          -1.8575  -18.7038   19.9793 C.ar    1  UNL1       -0.0003
     28 C          -3.1930  -18.7124   19.2965 C.ar    1  UNL1       -0.0032
     29 C          -4.4455  -18.8961   20.1011 C.ar    1  UNL1       -0.0103
     30 C          -5.7811  -18.9047   19.4184 C.3     1  UNL1        0.0953
     31 N          -7.0336  -19.0884   20.2230 N.3     1  UNL1       -0.2934
     32 H          -7.5014  -19.9166   19.8547 H       1  UNL1        0.1236
@<TRIPOS>BOND
     1    13    14    1
     2    14    15    1
     3    14    16    1
     4    16    17    1
     5    17    18    1
     6    14    12    1
     7    12     1    1
     8     1    21    1
     9    22    21    1
    10    22    23    1
    11    23    24    1
    12    24    25   ar
    13    25    26   ar
    14    26    27   ar
    15    27    28   ar
    16    28    29   ar
    17    29    30    1
    18    30    31    1
    19     2     1    1
    20     2     3    1
    21     3     4    1
    22     4     5    1
    23     5     6    1
    24     6     7   ar
    25     7     8   ar
    26     8     9   ar
    27     9    10   ar
    28    10    11   ar
    29    31    22    1
    30    11     2    1
    31    29    24   ar
    32    11     6   ar
    33    18    19    1
    34    18    20    1
    35    31    32    1
@<TRIPOS>MOLECULE
*****
 32 35 0 0 0
SMALL
GASTEIGER

@<TRIPOS>ATOM
      1 N          -9.6973  -19.4261   22.8483 N.3     1  UNL1       -0.2679
      2 C          -9.4029  -18.4765   23.9715 C.3     1  UNL1        0.0978
      3 C          -9.8263  -18.8148   25.3701 C.3     1  UNL1        0.0224
      4 C          -9.5319  -17.8652   26.4933 C.3     1  UNL1        0.0065
      5 C          -8.8141  -16.5772   26.2178 C.3     1  UNL1        0.0277
      6 C          -8.3907  -16.2389   24.8192 C.ar    1  UNL1       -0.0073
      7 C          -7.6729  -14.9509   24.5436 C.ar    1  UNL1       -0.0015
      8 C          -7.2495  -14.6126   23.1450 C.ar    1  UNL1        0.0203
      9 C          -7.5439  -15.5622   22.0218 C.ar    1  UNL1        0.0985
     10 N          -8.2617  -16.8502   22.2973 N.ar    1  UNL1       -0.2471
     11 C          -8.6851  -17.1885   23.6960 C.ar    1  UNL1        0.0695
     12 C         -11.0205  -19.3678   22.1442 C.3     1  UNL1        0.0724
     13 C         -10.7967  -19.5544   20.0430 C.3     1  UNL1        0.0014
     14 C         -11.2066  -18.4504   20.9721 C.3     1  UNL1        0.0161
     15 C         -11.6165  -17.3465   21.9012 C.3     1  UNL1        0.0014
     16 C         -11.3927  -17.5331   19.8000 C.3     1  UNL1        0.0182
     17 C         -11.8652  -16.1260   20.0165 C.3     1  UNL1        0.0652
     18 N         -12.3616  -15.3147   18.8565 N.3     1  UNL1       -0.3211
     19 H         -11.5921  -15.1389   18.2105 H       1  UNL1        0.1189
     20 H         -12.7303  -14.4263   19.1960 H       1  UNL1        0.1189
     21 C          -8.6686  -20.4341   22.4292 C.3     1  UNL1        0.0886
     22 C          -7.4383  -19.9893   21.6951 C.3     1  UNL1        0.0748
     23 C          -6.1124  -19.9706   22.3962 C.3     1  UNL1        0.0432
     24 C          -4.8821  -19.5259   21.6621 C.ar    1  UNL1       -0.0234
     25 C          -3.5562  -19.5071   22.3631 C.ar    1  UNL1       -0.0045
     26 C          -2.3260  -19.0624   21.6291 C.ar    1  UNL1       -0.0003
     27 C          -2.4218  -18.6365   20.1940 C.ar    1  UNL1       -0.0003
     28 C          -3.7477  -18.6553   19.4930 C.ar    1  UNL1       -0.0032
     29 C          -4.9779  -19.1000   20.2270 C.ar    1  UNL1       -0.0103
     30 C          -6.3039  -19.1187   19.5260 C.3     1  UNL1        0.0953
     31 N          -7.5341  -19.5634   20.2601 N.3     1  UNL1       -0.2934
     32 H          -7.9156  -20.3554   19.7427 H       1  UNL1        0.1236
@<TRIPOS>BOND
     1    13    14    1
     2    14    15    1
     3    14    16    1
     4    16    17    1
     5    17    18    1
     6    14    12    1
     7    12     1    1
     8     1    21    1
     9    22    21    1
    10    22    23    1
    11    23    24    1
    12    24    25   ar
    13    25    26   ar
    14    26    27   ar
    15    27    28   ar
    16    28    29   ar
    17    29    30    1
    18    30    31    1
    19     2     1    1
    20     2     3    1
    21     3     4    1
    22     4     5    1
    23     5     6    1
    24     6     7   ar
    25     7     8   ar
    26     8     9   ar
    27     9    10   ar
    28    10    11   ar
    29    31    22    1
    30    11     2    1
    31    29    24   ar
    32    11     6   ar
    33    18    19    1
    34    18    20    1
    35    31    32    1
@<TRIPOS>MOLECULE
*****
 32 35 0 0 0
SMALL
GASTEIGER

@<TRIPOS>ATOM
      1 N          -9.4648  -16.9844   22.8980 N.3     1  UNL1       -0.2679
      2 C          -8.2588  -16.2758   23.4397 C.3     1  UNL1        0.0978
      3 C          -7.3099  -15.5876   22.5039 C.3     1  UNL1        0.0224
      4 C          -6.1039  -14.8790   23.0456 C.3     1  UNL1        0.0065
      5 C          -5.8468  -14.8586   24.5233 C.3     1  UNL1        0.0277
      6 C          -6.7957  -15.5469   25.4591 C.ar    1  UNL1       -0.0073
      7 C          -6.5386  -15.5266   26.9368 C.ar    1  UNL1       -0.0015
      8 C          -7.4875  -16.2149   27.8727 C.ar    1  UNL1        0.0203
      9 C          -8.6935  -16.9235   27.3309 C.ar    1  UNL1        0.0985
     10 N          -8.9506  -16.9438   25.8533 N.ar    1  UNL1       -0.2471
     11 C          -8.0017  -16.2555   24.9174 C.ar    1  UNL1        0.0695
     12 C         -10.8155  -16.3376   22.9821 C.3     1  UNL1        0.0724
     13 C         -12.6766  -16.4187   21.9674 C.3     1  UNL1        0.0014
     14 C         -12.0477  -17.1858   23.0926 C.3     1  UNL1        0.0161
     15 C         -11.4188  -17.9529   24.2177 C.3     1  UNL1        0.0014
     16 C         -13.2799  -18.0340   23.2030 C.3     1  UNL1        0.0182
     17 C         -13.7896  -18.4440   24.5529 C.3     1  UNL1        0.0652
     18 N         -15.2659  -18.5496   24.7968 N.3     1  UNL1       -0.3211
     19 H         -15.6888  -17.6240   24.7286 H       1  UNL1        0.1189
     20 H         -15.4301  -18.9307   25.7286 H       1  UNL1        0.1189
     21 C          -9.3200  -18.3399   22.2721 C.3     1  UNL1        0.0886
     22 C          -8.0249  -18.7329   21.6252 C.3     1  UNL1        0.0748
     23 C          -6.7670  -18.7916   22.4402 C.3     1  UNL1        0.0432
     24 C          -5.4719  -19.1847   21.7934 C.ar    1  UNL1       -0.0234
     25 C          -4.2140  -19.2434   22.6084 C.ar    1  UNL1       -0.0045
     26 C          -2.9190  -19.6364   21.9615 C.ar    1  UNL1       -0.0003
     27 C          -2.8819  -19.9707   20.4997 C.ar    1  UNL1       -0.0003
     28 C          -4.1398  -19.9120   19.6848 C.ar    1  UNL1       -0.0032
     29 C          -5.4348  -19.5190   20.3316 C.ar    1  UNL1       -0.0103
     30 C          -6.6928  -19.4603   19.5166 C.3     1  UNL1        0.0953
     31 N          -7.9878  -19.0672   20.1634 N.3     1  UNL1       -0.2934
     32 H          -8.6348  -19.8430   20.0223 H       1  UNL1        0.1236
@<TRIPOS>BOND
     1    13    14    1
     2    14    15    1
     3    14    16    1
     4    16    17    1
     5    17    18    1
     6    14    12    1
     7    12     1    1
     8     1    21    1
     9    22    21    1
    10    22    23    1
    11    23    24    1
    12    24    25   ar
    13    25    26   ar
    14    26    27   ar
    15    27    28   ar
    16    28    29   ar
    17    29    30    1
    18    30    31    1
    19     2     1    1
    20     2     3    1
    21     3     4    1
    22     4     5    1
    23     5     6    1
    24     6     7   ar
    25     7     8   ar
    26     8     9   ar
    27     9    10   ar
    28    10    11   ar
    29    31    22    1
    30    11     2    1
    31    29    24   ar
    32    11     6   ar
    33    18    19    1
    34    18    20    1
    35    31    32    1
@<TRIPOS>MOLECULE
*****
 32 35 0 0 0
SMALL
GASTEIGER

@<TRIPOS>ATOM
      1 N           6.6432   -3.2692   22.4170 N.3     1  UNL1       -0.2679
      2 C           6.8520   -3.7930   23.8070 C.3     1  UNL1        0.0978
      3 C           6.3502   -3.0129   24.9858 C.3     1  UNL1        0.0224
      4 C           6.5591   -3.5367   26.3757 C.3     1  UNL1        0.0065
      5 C           7.2698   -4.8407   26.5869 C.3     1  UNL1        0.0277
      6 C           7.7716   -5.6208   25.4081 C.ar    1  UNL1       -0.0073
      7 C           8.4824   -6.9248   25.6192 C.ar    1  UNL1       -0.0015
      8 C           8.9842   -7.7048   24.4404 C.ar    1  UNL1        0.0203
      9 C           8.7753   -7.1810   23.0505 C.ar    1  UNL1        0.0985
     10 N           8.0646   -5.8771   22.8393 N.ar    1  UNL1       -0.2471
     11 C           7.5627   -5.0969   24.0181 C.ar    1  UNL1        0.0695
     12 C           7.6516   -2.3425   21.8053 C.3     1  UNL1        0.0724
     13 C           7.0792   -0.8508   20.4099 C.3     1  UNL1        0.0014
     14 C           7.7306   -2.1986   20.3143 C.3     1  UNL1        0.0161
     15 C           8.3821   -3.5464   20.2188 C.3     1  UNL1        0.0014
     16 C           7.8096   -2.0548   18.8234 C.3     1  UNL1        0.0182
     17 C           6.5734   -1.7415   18.0335 C.3     1  UNL1        0.0652
     18 N           5.5853   -2.8271   17.7252 N.3     1  UNL1       -0.3211
     19 H           6.0157   -3.5122   17.1040 H       1  UNL1        0.1189
     20 H           4.7668   -2.4226   17.2703 H       1  UNL1        0.1189
     21 C           5.4258   -3.6720   21.6387 C.3     1  UNL1        0.0886
     22 C           4.3193   -2.6847   21.4129 C.3     1  UNL1        0.0748
     23 C           3.8896   -1.7728   22.5236 C.3     1  UNL1        0.0432
     24 C           2.7830   -0.7855   22.2978 C.ar    1  UNL1       -0.0234
     25 C           2.3533    0.1264   23.4085 C.ar    1  UNL1       -0.0045
     26 C           1.2468    1.1136   23.1827 C.ar    1  UNL1       -0.0003
     27 C           0.5701    1.1889   21.8461 C.ar    1  UNL1       -0.0003
     28 C           0.9998    0.2770   20.7355 C.ar    1  UNL1       -0.0032
     29 C           2.1063   -0.7102   20.9613 C.ar    1  UNL1       -0.0103
     30 C           2.5361   -1.6222   19.8506 C.3     1  UNL1        0.0953
     31 N           3.6425   -2.6095   20.0764 N.3     1  UNL1       -0.2934
     32 H           4.3679   -2.4007   19.3904 H       1  UNL1        0.1236
@<TRIPOS>BOND
     1    13    14    1
     2    14    15    1
     3    14    16    1
     4    16    17    1
     5    17    18    1
     6    14    12    1
     7    12     1    1
     8     1    21    1
     9    22    21    1
    10    22    23    1
    11    23    24    1
    12    24    25   ar
    13    25    26   ar
    14    26    27   ar
    15    27    28   ar
    16    28    29   ar
    17    29    30    1
    18    30    31    1
    19     2     1    1
    20     2     3    1
    21     3     4    1
    22     4     5    1
    23     5     6    1
    24     6     7   ar
    25     7     8   ar
    26     8     9   ar
    27     9    10   ar
    28    10    11   ar
    29    31    22    1
    30    11     2    1
    31    29    24   ar
    32    11     6   ar
    33    18    19    1
    34    18    20    1
    35    31    32    1
@<TRIPOS>MOLECULE
*****
 32 35 0 0 0
SMALL
GASTEIGER

@<TRIPOS>ATOM
      1 N           7.2158   -4.2604   23.0995 N.3     1  UNL1       -0.2679
      2 C           7.7133   -5.3686   23.9795 C.3     1  UNL1        0.0978
      3 C           8.4445   -6.5325   23.3789 C.3     1  UNL1        0.0224
      4 C           8.9419   -7.6407   24.2589 C.3     1  UNL1        0.0065
      5 C           8.7081   -7.5851   25.7395 C.3     1  UNL1        0.0277
      6 C           7.9769   -6.4213   26.3401 C.ar    1  UNL1       -0.0073
      7 C           7.7430   -6.3656   27.8208 C.ar    1  UNL1       -0.0015
      8 C           7.0118   -5.2018   28.4214 C.ar    1  UNL1        0.0203
      9 C           6.5144   -4.0936   27.5414 C.ar    1  UNL1        0.0985
     10 N           6.7482   -4.1492   26.0608 N.ar    1  UNL1       -0.2471
     11 C           7.4794   -5.3130   25.4601 C.ar    1  UNL1        0.0695
     12 C           8.1574   -3.1864   22.6414 C.3     1  UNL1        0.0724
     13 C           7.6324   -1.4181   21.5939 C.3     1  UNL1        0.0014
     14 C           8.1691   -2.7630   21.2025 C.3     1  UNL1        0.0161
     15 C           8.7059   -4.1078   20.8111 C.3     1  UNL1        0.0014
     16 C           8.1808   -2.3395   19.7635 C.3     1  UNL1        0.0182
     17 C           6.8907   -2.2111   19.0090 C.3     1  UNL1        0.0652
     18 N           6.9052   -2.0875   17.5142 N.3     1  UNL1       -0.3211
     19 H           7.3459   -1.2063   17.2501 H       1  UNL1        0.1189
     20 H           5.9482   -2.1080   17.1620 H       1  UNL1        0.1189
     21 C           5.7768   -4.2261   22.6776 C.3     1  UNL1        0.0886
     22 C           4.9113   -3.0615   23.0579 C.3     1  UNL1        0.0748
     23 C           4.0652   -2.3854   22.0201 C.3     1  UNL1        0.0432
     24 C           3.1996   -1.2208   22.4004 C.ar    1  UNL1       -0.0234
     25 C           2.3536   -0.5448   21.3626 C.ar    1  UNL1       -0.0045
     26 C           1.4881    0.6198   21.7429 C.ar    1  UNL1       -0.0003
     27 C           1.4686    1.1083   23.1610 C.ar    1  UNL1       -0.0003
     28 C           2.3147    0.4322   24.1988 C.ar    1  UNL1       -0.0032
     29 C           3.1802   -0.7323   23.8185 C.ar    1  UNL1       -0.0103
     30 C           4.0263   -1.4085   24.8563 C.3     1  UNL1        0.0953
     31 N           4.8918   -2.5730   24.4760 N.3     1  UNL1       -0.2934
     32 H           4.5975   -3.3599   25.0545 H       1  UNL1        0.1236
@<TRIPOS>BOND
     1    13    14    1
     2    14    15    1
     3    14    16    1
     4    16    17    1
     5    17    18    1
     6    14    12    1
     7    12     1    1
     8     1    21    1
     9    22    21    1
    10    22    23    1
    11    23    24    1
    12    24    25   ar
    13    25    26   ar
    14    26    27   ar
    15    27    28   ar
    16    28    29   ar
    17    29    30    1
    18    30    31    1
    19     2     1    1
    20     2     3    1
    21     3     4    1
    22     4     5    1
    23     5     6    1
    24     6     7   ar
    25     7     8   ar
    26     8     9   ar
    27     9    10   ar
    28    10    11   ar
    29    31    22    1
    30    11     2    1
    31    29    24   ar
    32    11     6   ar
    33    18    19    1
    34    18    20    1
    35    31    32    1
