@<TRIPOS>MOLECULE
*****
 36 40 0 0 0
SMALL
GASTEIGER

@<TRIPOS>ATOM
      1 N           6.4174   -2.1450   22.5886 N.am    1  UNL1       -0.2438
      2 C           5.7134   -0.8585   22.2736 C.3     1  UNL1        0.1009
      3 C           4.6265   -0.8319   21.2401 C.3     1  UNL1        0.0662
      4 C           4.2436   -2.0918   20.5217 C.3     1  UNL1        0.1600
      5 O           4.9476   -3.3783   20.8368 O.3     1  UNL1       -0.4374
      6 C           6.0345   -3.4049   21.8702 C.2     1  UNL1        0.4051
      7 O           6.7385   -4.6914   22.1853 O.2     1  UNL1       -0.2262
      8 C           3.2919   -1.1264   19.8798 C.ar    1  UNL1        0.0138
      9 C           1.8682   -1.0543   20.3464 C.ar    1  UNL1       -0.0010
     10 C           0.9164   -0.0888   19.7044 C.ar    1  UNL1       -0.0002
     11 C           1.3884    0.8045   18.5958 C.ar    1  UNL1       -0.0000
     12 C           2.8121    0.7325   18.1292 C.ar    1  UNL1       -0.0002
     13 C           3.7639   -0.2329   18.7711 C.ar    1  UNL1       -0.0010
     14 C           8.9428   -2.1835   23.1974 C.3     1  UNL1        0.0265
     15 C           7.5042   -2.1717   23.6221 C.3     1  UNL1        0.1011
     16 C           7.1525   -2.1866   25.0802 C.ar    1  UNL1       -0.0042
     17 C           7.0666   -0.8987   25.8442 C.ar    1  UNL1       -0.0027
     18 C           6.7149   -0.9136   27.3023 C.ar    1  UNL1       -0.0002
     19 C           6.4491   -2.2165   27.9964 C.ar    1  UNL1        0.0015
     20 C           6.5350   -3.5045   27.2324 C.ar    1  UNL1       -0.0002
     21 C           6.8867   -3.4895   25.7743 C.ar    1  UNL1       -0.0027
     22 C           6.0974   -2.2315   29.4545 C.ar    1  UNL1        0.0193
     23 C           6.6171   -3.3248   30.3402 C.ar    1  UNL1        0.0047
     24 C           6.2653   -3.3398   31.7984 C.ar    1  UNL1        0.0389
     25 C           5.3939   -2.2613   32.3707 C.ar    1  UNL1        0.1656
     26 N           4.8829   -2.0153   33.7593 N.ar    1  UNL1       -0.2034
     27 C           4.0474   -0.7698   33.7318 C.ar    1  UNL1        0.2213
     28 N           4.0420   -0.2462   32.3262 N.ar    1  UNL1       -0.1409
     29 N           4.8742   -1.1680   31.4850 N.ar    1  UNL1       -0.2092
     30 C           5.2260   -1.1531   30.0269 C.ar    1  UNL1        0.1021
     31 C           3.5303   -3.0163   19.5804 C.3     1  UNL1        0.0714
     32 C           4.2375   -4.2198   19.0313 C.3     1  UNL1        0.0922
     33 C           3.3014   -5.1151   19.7877 C.3     1  UNL1        0.0294
     34 C           5.1737   -3.3245   18.2749 C.3     1  UNL1        0.0294
     35 O           4.9448   -5.4233   18.4822 O.3     1  UNL1       -0.3866
     36 H           4.5264   -6.2285   18.8251 H       1  UNL1        0.2102
@<TRIPOS>BOND
     1    15    14    1
     2    15    16    1
     3    16    17   ar
     4    17    18   ar
     5    18    19   ar
     6    19    22    1
     7    22    23   ar
     8    23    24   ar
     9    24    25   ar
    10    25    26   ar
    11    26    27   ar
    12    27    28   ar
    13    28    29   ar
    14    29    30   ar
    15    19    20   ar
    16    20    21   ar
    17    15     1    1
    18     1     2    1
    19     2     3    1
    20     3     4    1
    21     4    31    1
    22    31    32    1
    23    32    33    1
    24    32    34    1
    25    32    35    1
    26     4     8    1
    27     8     9   ar
    28     9    10   ar
    29    10    11   ar
    30    11    12   ar
    31    12    13   ar
    32     4     5    1
    33     5     6    1
    34     6     7    2
    35    21    16   ar
    36     6     1   am
    37    30    22   ar
    38    13     8   ar
    39    29    25   ar
    40    35    36    1
@<TRIPOS>MOLECULE
*****
 36 40 0 0 0
SMALL
GASTEIGER

@<TRIPOS>ATOM
      1 N           1.2080    1.5203   19.6041 N.am    1  UNL1       -0.2438
      2 C           0.9127    0.0580   19.7608 C.3     1  UNL1        0.1009
      3 C           2.0380   -0.9225   19.9108 C.3     1  UNL1        0.0662
      4 C           3.4585   -0.4407   19.9041 C.3     1  UNL1        0.1600
      5 O           3.7537    1.0216   19.7474 O.3     1  UNL1       -0.4374
      6 C           2.6285    2.0020   19.5973 C.2     1  UNL1        0.4051
      7 O           2.9237    3.4643   19.4406 O.2     1  UNL1       -0.2262
      8 C           3.6837   -1.9132   20.0797 C.ar    1  UNL1        0.0138
      9 C           4.2818   -2.4339   21.3529 C.ar    1  UNL1       -0.0010
     10 C           4.5070   -3.9065   21.5285 C.ar    1  UNL1       -0.0002
     11 C           4.1341   -4.8584   20.4309 C.ar    1  UNL1       -0.0000
     12 C           3.5360   -4.3377   19.1577 C.ar    1  UNL1       -0.0002
     13 C           3.3108   -2.8652   18.9820 C.ar    1  UNL1       -0.0010
     14 C          -0.2243    3.0900   18.1092 C.3     1  UNL1        0.0265
     15 C           0.0828    2.5008   19.4540 C.3     1  UNL1        0.1011
     16 C          -0.7353    2.8921   20.6488 C.ar    1  UNL1       -0.0042
     17 C          -2.1922    3.2110   20.4883 C.ar    1  UNL1       -0.0027
     18 C          -3.0103    3.6024   21.6832 C.ar    1  UNL1       -0.0002
     19 C          -2.3716    3.6748   23.0384 C.ar    1  UNL1        0.0015
     20 C          -0.9147    3.3558   23.1989 C.ar    1  UNL1       -0.0002
     21 C          -0.0966    2.9645   22.0041 C.ar    1  UNL1       -0.0027
     22 C          -3.1897    4.0661   24.2333 C.ar    1  UNL1        0.0193
     23 C          -2.7991    3.5859   25.5995 C.ar    1  UNL1        0.0047
     24 C          -3.6172    3.9773   26.7944 C.ar    1  UNL1        0.0389
     25 C          -4.8259    4.8488   26.6229 C.ar    1  UNL1        0.1656
     26 N          -5.8181    5.3939   27.6070 N.ar    1  UNL1       -0.2034
     27 C          -6.8218    6.2110   26.8488 C.ar    1  UNL1        0.2213
     28 N          -6.4501    6.1709   25.3962 N.ar    1  UNL1       -0.1409
     29 N          -5.2165    5.3290   25.2565 N.ar    1  UNL1       -0.2092
     30 C          -4.3983    4.9377   24.0617 C.ar    1  UNL1        0.1021
     31 C           4.9571   -0.4703   19.9584 C.3     1  UNL1        0.0714
     32 C           5.7566    0.4984   19.1383 C.3     1  UNL1        0.0922
     33 C           6.2964    1.1160   20.3942 C.3     1  UNL1        0.0294
     34 C           5.2169   -0.1192   17.8824 C.3     1  UNL1        0.0294
     35 O           6.5561    1.4671   18.3183 O.3     1  UNL1       -0.3866
     36 H           7.0575    2.0525   18.9073 H       1  UNL1        0.2102
@<TRIPOS>BOND
     1    15    14    1
     2    15    16    1
     3    16    17   ar
     4    17    18   ar
     5    18    19   ar
     6    19    22    1
     7    22    23   ar
     8    23    24   ar
     9    24    25   ar
    10    25    26   ar
    11    26    27   ar
    12    27    28   ar
    13    28    29   ar
    14    29    30   ar
    15    19    20   ar
    16    20    21   ar
    17    15     1    1
    18     1     2    1
    19     2     3    1
    20     3     4    1
    21     4    31    1
    22    31    32    1
    23    32    33    1
    24    32    34    1
    25    32    35    1
    26     4     8    1
    27     8     9   ar
    28     9    10   ar
    29    10    11   ar
    30    11    12   ar
    31    12    13   ar
    32     4     5    1
    33     5     6    1
    34     6     7    2
    35    21    16   ar
    36     6     1   am
    37    30    22   ar
    38    13     8   ar
    39    29    25   ar
    40    35    36    1
@<TRIPOS>MOLECULE
*****
 36 40 0 0 0
SMALL
GASTEIGER

@<TRIPOS>ATOM
      1 N           3.2845    0.7884   23.1726 N.am    1  UNL1       -0.2438
      2 C           3.1314   -0.6994   23.0589 C.3     1  UNL1        0.1009
      3 C           3.6218   -1.4123   21.8336 C.3     1  UNL1        0.0662
      4 C           4.2653   -0.6375   20.7221 C.3     1  UNL1        0.1600
      5 O           4.4185    0.8504   20.8359 O.3     1  UNL1       -0.4374
      6 C           3.9281    1.5632   22.0611 C.2     1  UNL1        0.4051
      7 O           4.0812    3.0511   22.1749 O.2     1  UNL1       -0.2262
      8 C           4.3453   -2.0233   20.1538 C.ar    1  UNL1        0.0138
      9 C           5.6632   -2.7377   20.1017 C.ar    1  UNL1       -0.0010
     10 C           5.7431   -4.1236   19.5333 C.ar    1  UNL1       -0.0002
     11 C           4.5052   -4.7951   19.0171 C.ar    1  UNL1       -0.0000
     12 C           3.1873   -4.0807   19.0692 C.ar    1  UNL1       -0.0002
     13 C           3.1072   -2.6949   19.6375 C.ar    1  UNL1       -0.0010
     14 C           3.7230    1.7338   25.5525 C.3     1  UNL1        0.0265
     15 C           2.7942    1.5013   24.3979 C.3     1  UNL1        0.1011
     16 C           1.3750    1.9818   24.4685 C.ar    1  UNL1       -0.0042
     17 C           0.5396    1.6780   25.6767 C.ar    1  UNL1       -0.0027
     18 C          -0.8796    2.1585   25.7473 C.ar    1  UNL1       -0.0002
     19 C          -1.4634    2.9427   24.6098 C.ar    1  UNL1        0.0015
     20 C          -0.6280    3.2465   23.4016 C.ar    1  UNL1       -0.0002
     21 C           0.7912    2.7660   23.3309 C.ar    1  UNL1       -0.0027
     22 C          -2.8827    3.4233   24.6804 C.ar    1  UNL1        0.0193
     23 C          -3.4457    3.9104   25.9825 C.ar    1  UNL1        0.0047
     24 C          -4.8650    4.3909   26.0530 C.ar    1  UNL1        0.0389
     25 C          -5.7211    4.3842   24.8214 C.ar    1  UNL1        0.1656
     26 N          -7.1444    4.7950   24.5862 N.ar    1  UNL1       -0.2034
     27 C          -7.4610    4.5617   23.1387 C.ar    1  UNL1        0.2213
     28 N          -6.2334    4.0067   22.4792 N.ar    1  UNL1       -0.1409
     29 N          -5.1580    3.8971   23.5192 N.ar    1  UNL1       -0.2092
     30 C          -3.7388    3.4166   23.4487 C.ar    1  UNL1        0.1021
     31 C           4.9366   -0.3439   19.4133 C.3     1  UNL1        0.0714
     32 C           4.7494    0.9921   18.7574 C.3     1  UNL1        0.0922
     33 C           3.3241    0.6408   18.4488 C.3     1  UNL1        0.0294
     34 C           6.1746    1.3434   19.0660 C.3     1  UNL1        0.0294
     35 O           4.5621    2.3280   18.1015 O.3     1  UNL1       -0.3866
     36 H           3.6528    2.4018   17.7720 H       1  UNL1        0.2102
@<TRIPOS>BOND
     1    15    14    1
     2    15    16    1
     3    16    17   ar
     4    17    18   ar
     5    18    19   ar
     6    19    22    1
     7    22    23   ar
     8    23    24   ar
     9    24    25   ar
    10    25    26   ar
    11    26    27   ar
    12    27    28   ar
    13    28    29   ar
    14    29    30   ar
    15    19    20   ar
    16    20    21   ar
    17    15     1    1
    18     1     2    1
    19     2     3    1
    20     3     4    1
    21     4    31    1
    22    31    32    1
    23    32    33    1
    24    32    34    1
    25    32    35    1
    26     4     8    1
    27     8     9   ar
    28     9    10   ar
    29    10    11   ar
    30    11    12   ar
    31    12    13   ar
    32     4     5    1
    33     5     6    1
    34     6     7    2
    35    21    16   ar
    36     6     1   am
    37    30    22   ar
    38    13     8   ar
    39    29    25   ar
    40    35    36    1
@<TRIPOS>MOLECULE
*****
 36 40 0 0 0
SMALL
GASTEIGER

@<TRIPOS>ATOM
      1 N           3.1266    0.5429   23.5815 N.am    1  UNL1       -0.2438
      2 C           3.0556   -0.9141   23.2321 C.3     1  UNL1        0.1009
      3 C           3.5860   -1.3961   21.9144 C.3     1  UNL1        0.0662
      4 C           4.1874   -0.4212   20.9460 C.3     1  UNL1        0.1600
      5 O           4.2584    1.0359   21.2954 O.3     1  UNL1       -0.4374
      6 C           3.7281    1.5179   22.6131 C.2     1  UNL1        0.4051
      7 O           3.7991    2.9749   22.9625 O.2     1  UNL1       -0.2262
      8 C           4.3441   -1.6929   20.1664 C.ar    1  UNL1        0.0138
      9 C           3.1610   -2.5884   19.9463 C.ar    1  UNL1       -0.0010
     10 C           3.3178   -3.8602   19.1666 C.ar    1  UNL1       -0.0002
     11 C           4.6575   -4.2366   18.6070 C.ar    1  UNL1       -0.0000
     12 C           5.8406   -3.3412   18.8271 C.ar    1  UNL1       -0.0002
     13 C           5.6840   -2.0693   19.6067 C.ar    1  UNL1       -0.0010
     14 C           3.4291    0.8861   26.1389 C.3     1  UNL1        0.0265
     15 C           2.5963    1.0250   24.8992 C.3     1  UNL1        0.1011
     16 C           1.2331    1.6461   24.9771 C.ar    1  UNL1       -0.0042
     17 C           0.6168    2.2580   23.7541 C.ar    1  UNL1       -0.0027
     18 C          -0.7465    2.8790   23.8321 C.ar    1  UNL1       -0.0002
     19 C          -1.4932    2.8881   25.1329 C.ar    1  UNL1        0.0015
     20 C          -0.8768    2.2762   26.3558 C.ar    1  UNL1       -0.0002
     21 C           0.4863    1.6552   26.2779 C.ar    1  UNL1       -0.0027
     22 C          -2.8564    3.5092   25.2109 C.ar    1  UNL1        0.0193
     23 C          -3.8009    3.3930   24.0515 C.ar    1  UNL1        0.0047
     24 C          -5.1642    4.0141   24.1294 C.ar    1  UNL1        0.0389
     25 C          -5.5828    4.7512   25.3669 C.ar    1  UNL1        0.1656
     26 N          -6.8530    5.4611   25.7309 N.ar    1  UNL1       -0.2034
     27 C          -6.6935    6.0160   27.1154 C.ar    1  UNL1        0.2213
     28 N          -5.3247    5.6490   27.6070 N.ar    1  UNL1       -0.1409
     29 N          -4.6382    4.8674   26.5264 N.ar    1  UNL1       -0.2092
     30 C          -3.2750    4.2463   26.4483 C.ar    1  UNL1        0.1021
     31 C           4.8432    0.1121   19.7069 C.3     1  UNL1        0.0714
     32 C           4.3838    1.4117   19.1152 C.3     1  UNL1        0.0922
     33 C           3.0295    0.8181   18.8631 C.3     1  UNL1        0.0294
     34 C           5.7381    2.0053   19.3673 C.3     1  UNL1        0.0294
     35 O           3.9244    2.7112   18.5234 O.3     1  UNL1       -0.3866
     36 H           2.9996    2.6294   18.2422 H       1  UNL1        0.2102
@<TRIPOS>BOND
     1    15    14    1
     2    15    16    1
     3    16    17   ar
     4    17    18   ar
     5    18    19   ar
     6    19    22    1
     7    22    23   ar
     8    23    24   ar
     9    24    25   ar
    10    25    26   ar
    11    26    27   ar
    12    27    28   ar
    13    28    29   ar
    14    29    30   ar
    15    19    20   ar
    16    20    21   ar
    17    15     1    1
    18     1     2    1
    19     2     3    1
    20     3     4    1
    21     4    31    1
    22    31    32    1
    23    32    33    1
    24    32    34    1
    25    32    35    1
    26     4     8    1
    27     8     9   ar
    28     9    10   ar
    29    10    11   ar
    30    11    12   ar
    31    12    13   ar
    32     4     5    1
    33     5     6    1
    34     6     7    2
    35    21    16   ar
    36     6     1   am
    37    30    22   ar
    38    13     8   ar
    39    29    25   ar
    40    35    36    1
@<TRIPOS>MOLECULE
*****
 36 40 0 0 0
SMALL
GASTEIGER

@<TRIPOS>ATOM
      1 N           2.1631    1.6095   23.0347 N.am    1  UNL1       -0.2438
      2 C           2.1684    0.1253   23.2518 C.3     1  UNL1        0.1009
      3 C           2.7826   -0.7805   22.2260 C.3     1  UNL1        0.0662
      4 C           3.3915   -0.2021   20.9831 C.3     1  UNL1        0.1600
      5 O           3.3862    1.2821   20.7661 O.3     1  UNL1       -0.4374
      6 C           2.7720    2.1878   21.7919 C.2     1  UNL1        0.4051
      7 O           2.7667    3.6721   21.5749 O.2     1  UNL1       -0.2262
      8 C           3.6380   -1.6614   20.7391 C.ar    1  UNL1        0.0138
      9 C           4.2986   -2.4973   21.7950 C.ar    1  UNL1       -0.0010
     10 C           4.5451   -3.9567   21.5510 C.ar    1  UNL1       -0.0002
     11 C           4.1310   -4.5802   20.2512 C.ar    1  UNL1       -0.0000
     12 C           3.4704   -3.7443   19.1953 C.ar    1  UNL1       -0.0002
     13 C           3.2238   -2.2850   19.4392 C.ar    1  UNL1       -0.0010
     14 C           2.3878    3.0605   25.1781 C.3     1  UNL1        0.0265
     15 C           1.5489    2.5153   24.0605 C.3     1  UNL1        0.1011
     16 C           0.0958    2.8759   23.9687 C.ar    1  UNL1       -0.0042
     17 C          -0.7515    2.8963   25.2063 C.ar    1  UNL1       -0.0027
     18 C          -2.2047    3.2570   25.1144 C.ar    1  UNL1       -0.0002
     19 C          -2.8104    3.5972   23.7851 C.ar    1  UNL1        0.0015
     20 C          -1.9631    3.5768   22.5475 C.ar    1  UNL1       -0.0002
     21 C          -0.5100    3.2162   22.6393 C.ar    1  UNL1       -0.0027
     22 C          -4.2636    3.9578   23.6933 C.ar    1  UNL1        0.0193
     23 C          -5.0714    3.5203   22.5077 C.ar    1  UNL1        0.0047
     24 C          -6.5246    3.8810   22.4158 C.ar    1  UNL1        0.0389
     25 C          -7.1698    4.6792   23.5097 C.ar    1  UNL1        0.1656
     26 N          -8.5716    5.1803   23.6935 N.ar    1  UNL1       -0.2034
     27 C          -8.6300    5.9275   24.9928 C.ar    1  UNL1        0.2213
     28 N          -7.2644    5.8883   25.6120 N.ar    1  UNL1       -0.1409
     29 N          -6.3618    5.1167   24.6954 N.ar    1  UNL1       -0.2092
     30 C          -4.9088    4.7560   24.7872 C.ar    1  UNL1        0.1021
     31 C           4.0860   -0.1306   19.6556 C.3     1  UNL1        0.0714
     32 C           5.0337    0.9952   19.3647 C.3     1  UNL1        0.0922
     33 C           5.9370    0.5187   20.4633 C.3     1  UNL1        0.0294
     34 C           4.1305    1.4717   18.2660 C.3     1  UNL1        0.0294
     35 O           5.9815    2.1209   19.0738 O.3     1  UNL1       -0.3866
     36 H           6.7364    2.0730   19.6810 H       1  UNL1        0.2102
@<TRIPOS>BOND
     1    15    14    1
     2    15    16    1
     3    16    17   ar
     4    17    18   ar
     5    18    19   ar
     6    19    22    1
     7    22    23   ar
     8    23    24   ar
     9    24    25   ar
    10    25    26   ar
    11    26    27   ar
    12    27    28   ar
    13    28    29   ar
    14    29    30   ar
    15    19    20   ar
    16    20    21   ar
    17    15     1    1
    18     1     2    1
    19     2     3    1
    20     3     4    1
    21     4    31    1
    22    31    32    1
    23    32    33    1
    24    32    34    1
    25    32    35    1
    26     4     8    1
    27     8     9   ar
    28     9    10   ar
    29    10    11   ar
    30    11    12   ar
    31    12    13   ar
    32     4     5    1
    33     5     6    1
    34     6     7    2
    35    21    16   ar
    36     6     1   am
    37    30    22   ar
    38    13     8   ar
    39    29    25   ar
    40    35    36    1
@<TRIPOS>MOLECULE
*****
 36 40 0 0 0
SMALL
GASTEIGER

@<TRIPOS>ATOM
      1 N           3.0889   -1.1453   19.8448 N.am    1  UNL1       -0.2438
      2 C           1.6230   -0.8870   20.0305 C.3     1  UNL1        0.1009
      3 C           1.0581    0.4717   19.7391 C.3     1  UNL1        0.0662
      4 C           1.9590    1.5720   19.2620 C.3     1  UNL1        0.1600
      5 O           3.4249    1.3137   19.0764 O.3     1  UNL1       -0.4374
      6 C           3.9897   -0.0450   19.3678 C.2     1  UNL1        0.4051
      7 O           5.4557   -0.3033   19.1821 O.2     1  UNL1       -0.2262
      8 C           0.6479    2.3003   19.2848 C.ar    1  UNL1        0.0138
      9 C          -0.2106    2.2612   20.5143 C.ar    1  UNL1       -0.0010
     10 C          -1.5217    2.9895   20.5370 C.ar    1  UNL1       -0.0002
     11 C          -1.9745    3.7568   19.3303 C.ar    1  UNL1       -0.0000
     12 C          -1.1160    3.7959   18.1009 C.ar    1  UNL1       -0.0002
     13 C           0.1951    3.0677   18.0780 C.ar    1  UNL1       -0.0010
     14 C           3.4963   -3.6117   19.1372 C.3     1  UNL1        0.0265
     15 C           3.6538   -2.5040   20.1361 C.3     1  UNL1        0.1011
     16 C           4.3764   -2.7549   21.4265 C.ar    1  UNL1       -0.0042
     17 C           5.5275   -3.7157   21.4669 C.ar    1  UNL1       -0.0027
     18 C           6.2500   -3.9665   22.7574 C.ar    1  UNL1       -0.0002
     19 C           5.8214   -3.2566   24.0072 C.ar    1  UNL1        0.0015
     20 C           4.6703   -2.2958   23.9667 C.ar    1  UNL1       -0.0002
     21 C           3.9478   -2.0449   22.6764 C.ar    1  UNL1       -0.0027
     22 C           6.5439   -3.5074   25.2976 C.ar    1  UNL1        0.0193
     23 C           6.9650   -2.3533   26.1581 C.ar    1  UNL1        0.0047
     24 C           7.6875   -2.6041   27.4485 C.ar    1  UNL1        0.0389
     25 C           7.9889   -4.0092   27.8783 C.ar    1  UNL1        0.1656
     26 N           8.6813   -4.5618   29.0888 N.ar    1  UNL1       -0.2034
     27 C           8.6881   -6.0576   28.9764 C.ar    1  UNL1        0.2213
     28 N           7.9999   -6.4294   27.6965 N.ar    1  UNL1       -0.1409
     29 N           7.5678   -5.1635   27.0178 N.ar    1  UNL1       -0.2092
     30 C           6.8454   -4.9126   25.7275 C.ar    1  UNL1        0.1021
     31 C           2.4045    2.9252   18.7929 C.3     1  UNL1        0.0714
     32 C           3.6901    3.5089   19.2996 C.3     1  UNL1        0.0922
     33 C           4.2047    3.5961   17.8933 C.3     1  UNL1        0.0294
     34 C           3.1755    3.4218   20.7059 C.3     1  UNL1        0.0294
     35 O           4.9757    4.0926   19.8062 O.3     1  UNL1       -0.3866
     36 H           5.5665    4.2715   19.0580 H       1  UNL1        0.2102
@<TRIPOS>BOND
     1    15    14    1
     2    15    16    1
     3    16    17   ar
     4    17    18   ar
     5    18    19   ar
     6    19    22    1
     7    22    23   ar
     8    23    24   ar
     9    24    25   ar
    10    25    26   ar
    11    26    27   ar
    12    27    28   ar
    13    28    29   ar
    14    29    30   ar
    15    19    20   ar
    16    20    21   ar
    17    15     1    1
    18     1     2    1
    19     2     3    1
    20     3     4    1
    21     4    31    1
    22    31    32    1
    23    32    33    1
    24    32    34    1
    25    32    35    1
    26     4     8    1
    27     8     9   ar
    28     9    10   ar
    29    10    11   ar
    30    11    12   ar
    31    12    13   ar
    32     4     5    1
    33     5     6    1
    34     6     7    2
    35    21    16   ar
    36     6     1   am
    37    30    22   ar
    38    13     8   ar
    39    29    25   ar
    40    35    36    1
@<TRIPOS>MOLECULE
*****
 36 40 0 0 0
SMALL
GASTEIGER

@<TRIPOS>ATOM
      1 N          -1.9713    4.1943   19.5420 N.am    1  UNL1       -0.2438
      2 C          -2.1455    4.6050   20.9741 C.3     1  UNL1        0.1009
      3 C          -3.5229    4.7736   21.5438 C.3     1  UNL1        0.0662
      4 C          -4.7260    4.5317   20.6813 C.3     1  UNL1        0.1600
      5 O          -4.5518    4.1210   19.2491 O.3     1  UNL1       -0.4374
      6 C          -3.1745    3.9524   18.6796 C.2     1  UNL1        0.4051
      7 O          -3.0003    3.5418   17.2473 O.2     1  UNL1       -0.2262
      8 C          -5.3992    4.9031   21.9692 C.ar    1  UNL1        0.0138
      9 C          -4.9646    6.1290   22.7164 C.ar    1  UNL1       -0.0010
     10 C          -5.6379    6.5003   24.0044 C.ar    1  UNL1       -0.0002
     11 C          -6.7457    5.6459   24.5452 C.ar    1  UNL1       -0.0000
     12 C          -7.1803    4.4200   23.7980 C.ar    1  UNL1       -0.0002
     13 C          -6.5071    4.0485   22.5101 C.ar    1  UNL1       -0.0010
     14 C          -0.0479    5.0443   18.0162 C.3     1  UNL1        0.0265
     15 C          -0.5940    4.0257   18.9723 C.3     1  UNL1        0.1011
     16 C           0.2372    2.8384   19.3588 C.ar    1  UNL1       -0.0042
     17 C           0.7472    2.7050   20.7631 C.ar    1  UNL1       -0.0027
     18 C           1.5785    1.5176   21.1495 C.ar    1  UNL1       -0.0002
     19 C           1.8997    0.4638   20.1317 C.ar    1  UNL1        0.0015
     20 C           1.3898    0.5972   18.7273 C.ar    1  UNL1       -0.0002
     21 C           0.5585    1.7845   18.3409 C.ar    1  UNL1       -0.0027
     22 C           2.7310   -0.7236   20.5181 C.ar    1  UNL1        0.0193
     23 C           3.0391   -1.7853   19.5044 C.ar    1  UNL1        0.0047
     24 C           3.8704   -2.9727   19.8908 C.ar    1  UNL1        0.0389
     25 C           4.3935   -3.0981   21.2910 C.ar    1  UNL1        0.1656
     26 N           5.2324   -4.1471   21.9587 N.ar    1  UNL1       -0.2034
     27 C           5.4428   -3.7336   23.3851 C.ar    1  UNL1        0.2213
     28 N           4.7340   -2.4291   23.5990 N.ar    1  UNL1       -0.1409
     29 N           4.0854   -2.0363   22.3047 N.ar    1  UNL1       -0.2092
     30 C           3.2542   -0.8490   21.9183 C.ar    1  UNL1        0.1021
     31 C          -6.1629    4.4187   20.2661 C.3     1  UNL1        0.0714
     32 C          -6.5620    4.7279   18.8536 C.3     1  UNL1        0.0922
     33 C          -6.2817    6.1819   19.0927 C.3     1  UNL1        0.0294
     34 C          -6.8423    3.2738   18.6145 C.3     1  UNL1        0.0294
     35 O          -6.9611    5.0371   17.4411 O.3     1  UNL1       -0.3866
     36 H          -6.8761    5.9903   17.2824 H       1  UNL1        0.2102
@<TRIPOS>BOND
     1    15    14    1
     2    15    16    1
     3    16    17   ar
     4    17    18   ar
     5    18    19   ar
     6    19    22    1
     7    22    23   ar
     8    23    24   ar
     9    24    25   ar
    10    25    26   ar
    11    26    27   ar
    12    27    28   ar
    13    28    29   ar
    14    29    30   ar
    15    19    20   ar
    16    20    21   ar
    17    15     1    1
    18     1     2    1
    19     2     3    1
    20     3     4    1
    21     4    31    1
    22    31    32    1
    23    32    33    1
    24    32    34    1
    25    32    35    1
    26     4     8    1
    27     8     9   ar
    28     9    10   ar
    29    10    11   ar
    30    11    12   ar
    31    12    13   ar
    32     4     5    1
    33     5     6    1
    34     6     7    2
    35    21    16   ar
    36     6     1   am
    37    30    22   ar
    38    13     8   ar
    39    29    25   ar
    40    35    36    1
@<TRIPOS>MOLECULE
*****
 36 40 0 0 0
SMALL
GASTEIGER

@<TRIPOS>ATOM
      1 N           4.4144    3.0344   35.2077 N.am    1  UNL1       -0.2438
      2 C           5.4766    3.4725   36.1720 C.3     1  UNL1        0.1009
      3 C           5.1653    3.5731   37.6359 C.3     1  UNL1        0.0662
      4 C           3.7918    3.2357   38.1355 C.3     1  UNL1        0.1600
      5 O           2.7296    2.7976   37.1712 O.3     1  UNL1       -0.4374
      6 C           3.0410    2.6970   35.7074 C.2     1  UNL1        0.4051
      7 O           1.9787    2.2589   34.7430 O.2     1  UNL1       -0.2262
      8 C           4.4572    3.6006   39.4293 C.ar    1  UNL1        0.0138
      9 C           5.7539    2.9524   39.8148 C.ar    1  UNL1       -0.0010
     10 C           6.4193    3.3173   41.1086 C.ar    1  UNL1       -0.0002
     11 C           5.7882    4.3304   42.0170 C.ar    1  UNL1       -0.0000
     12 C           4.4916    4.9786   41.6316 C.ar    1  UNL1       -0.0002
     13 C           3.8260    4.6137   40.3378 C.ar    1  UNL1       -0.0010
     14 C           4.6622    4.1568   32.8777 C.3     1  UNL1        0.0265
     15 C           4.7257    2.9338   33.7438 C.3     1  UNL1        0.1011
     16 C           5.1005    1.6101   33.1460 C.ar    1  UNL1       -0.0042
     17 C           4.1875    0.9486   32.1567 C.ar    1  UNL1       -0.0027
     18 C           4.5623   -0.3752   31.5589 C.ar    1  UNL1       -0.0002
     19 C           5.8500   -1.0372   31.9504 C.ar    1  UNL1        0.0015
     20 C           6.7630   -0.3757   32.9397 C.ar    1  UNL1       -0.0002
     21 C           6.3882    0.9480   33.5375 C.ar    1  UNL1       -0.0027
     22 C           6.2248   -2.3610   31.3526 C.ar    1  UNL1        0.0193
     23 C           6.5744   -3.5148   32.2448 C.ar    1  UNL1        0.0047
     24 C           6.9493   -4.8386   31.6470 C.ar    1  UNL1        0.0389
     25 C           6.9744   -5.0083   30.1569 C.ar    1  UNL1        0.1656
     26 N           7.3021   -6.1849   29.2861 N.ar    1  UNL1       -0.2034
     27 C           7.1550   -5.7582   27.8557 C.ar    1  UNL1        0.2213
     28 N           6.7364   -4.3178   27.8423 N.ar    1  UNL1       -0.1409
     29 N           6.6248   -3.8544   29.2646 N.ar    1  UNL1       -0.2092
     30 C           6.2500   -2.5307   29.8624 C.ar    1  UNL1        0.1021
     31 C           2.6495    3.0250   39.0844 C.3     1  UNL1        0.0714
     32 C           1.7335    1.8506   38.9064 C.3     1  UNL1        0.0922
     33 C           0.5493    2.7710   38.9272 C.3     1  UNL1        0.0294
     34 C           2.9176    0.9300   38.8857 C.3     1  UNL1        0.0294
     35 O           0.8174    0.6762   38.7285 O.3     1  UNL1       -0.3866
     36 H          -0.1020    0.9843   38.7027 H       1  UNL1        0.2102
@<TRIPOS>BOND
     1    15    14    1
     2    15    16    1
     3    16    17   ar
     4    17    18   ar
     5    18    19   ar
     6    19    22    1
     7    22    23   ar
     8    23    24   ar
     9    24    25   ar
    10    25    26   ar
    11    26    27   ar
    12    27    28   ar
    13    28    29   ar
    14    29    30   ar
    15    19    20   ar
    16    20    21   ar
    17    15     1    1
    18     1     2    1
    19     2     3    1
    20     3     4    1
    21     4    31    1
    22    31    32    1
    23    32    33    1
    24    32    34    1
    25    32    35    1
    26     4     8    1
    27     8     9   ar
    28     9    10   ar
    29    10    11   ar
    30    11    12   ar
    31    12    13   ar
    32     4     5    1
    33     5     6    1
    34     6     7    2
    35    21    16   ar
    36     6     1   am
    37    30    22   ar
    38    13     8   ar
    39    29    25   ar
    40    35    36    1
@<TRIPOS>MOLECULE
*****
 36 40 0 0 0
SMALL
GASTEIGER

@<TRIPOS>ATOM
      1 N          -1.0153    3.7385   19.4154 N.am    1  UNL1       -0.2438
      2 C          -1.0189    3.8916   20.9075 C.3     1  UNL1        0.1009
      3 C          -2.3166    4.0591   21.6411 C.3     1  UNL1        0.0662
      4 C          -3.6106    4.0735   20.8825 C.3     1  UNL1        0.1600
      5 O          -3.6069    3.9203   19.3903 O.3     1  UNL1       -0.4374
      6 C          -2.3093    3.7528   18.6569 C.2     1  UNL1        0.4051
      7 O          -2.3056    3.5997   17.1646 O.2     1  UNL1       -0.2262
      8 C          -4.1257    4.2533   22.2797 C.ar    1  UNL1        0.0138
      9 C          -4.7419    3.0950   23.0068 C.ar    1  UNL1       -0.0010
     10 C          -5.2571    3.2748   24.4041 C.ar    1  UNL1       -0.0002
     11 C          -5.1561    4.6129   25.0742 C.ar    1  UNL1       -0.0000
     12 C          -4.5399    5.7712   24.3471 C.ar    1  UNL1       -0.0002
     13 C          -4.0247    5.5915   22.9499 C.ar    1  UNL1       -0.0010
     14 C           0.7252    4.6098   17.6945 C.3     1  UNL1        0.0265
     15 C           0.2823    3.5710   18.6818 C.3     1  UNL1        0.1011
     16 C           1.1370    2.3647   18.9355 C.ar    1  UNL1       -0.0042
     17 C           2.6030    2.4046   18.6206 C.ar    1  UNL1       -0.0027
     18 C           3.4577    1.1982   18.8743 C.ar    1  UNL1       -0.0002
     19 C           2.8464   -0.0479   19.4428 C.ar    1  UNL1        0.0015
     20 C           1.3804   -0.0878   19.7576 C.ar    1  UNL1       -0.0002
     21 C           0.5257    1.1185   19.5040 C.ar    1  UNL1       -0.0027
     22 C           3.7011   -1.2543   19.6964 C.ar    1  UNL1        0.0193
     23 C           3.1611   -2.6268   19.4235 C.ar    1  UNL1        0.0047
     24 C           4.0158   -3.8331   19.6772 C.ar    1  UNL1        0.0389
     25 C           5.4104   -3.6668   20.2038 C.ar    1  UNL1        0.1656
     26 N           6.4786   -4.6621   20.5480 N.ar    1  UNL1       -0.2034
     27 C           7.6788   -3.9046   21.0336 C.ar    1  UNL1        0.2213
     28 N           7.3523   -2.4412   20.9896 N.ar    1  UNL1       -0.1409
     29 N           5.9504   -2.2942   20.4768 N.ar    1  UNL1       -0.2092
     30 C           5.0957   -1.0880   20.2231 C.ar    1  UNL1        0.1021
     31 C          -5.0834    4.1502   20.6092 C.3     1  UNL1        0.0714
     32 C          -5.5744    4.6094   19.2683 C.3     1  UNL1        0.0922
     33 C          -6.0642    3.2227   18.9728 C.3     1  UNL1        0.0294
     34 C          -5.0846    5.9961   19.5636 C.3     1  UNL1        0.0294
     35 O          -6.0655    5.0684   17.9273 O.3     1  UNL1       -0.3866
     36 H          -6.4699    4.3219   17.4582 H       1  UNL1        0.2102
@<TRIPOS>BOND
     1    15    14    1
     2    15    16    1
     3    16    17   ar
     4    17    18   ar
     5    18    19   ar
     6    19    22    1
     7    22    23   ar
     8    23    24   ar
     9    24    25   ar
    10    25    26   ar
    11    26    27   ar
    12    27    28   ar
    13    28    29   ar
    14    29    30   ar
    15    19    20   ar
    16    20    21   ar
    17    15     1    1
    18     1     2    1
    19     2     3    1
    20     3     4    1
    21     4    31    1
    22    31    32    1
    23    32    33    1
    24    32    34    1
    25    32    35    1
    26     4     8    1
    27     8     9   ar
    28     9    10   ar
    29    10    11   ar
    30    11    12   ar
    31    12    13   ar
    32     4     5    1
    33     5     6    1
    34     6     7    2
    35    21    16   ar
    36     6     1   am
    37    30    22   ar
    38    13     8   ar
    39    29    25   ar
    40    35    36    1
