@<TRIPOS>MOLECULE
*****
 27 30 0 0 0
SMALL
GASTEIGER

@<TRIPOS>ATOM
      1 C         -15.1713   -4.9874   19.4947 C.3     1  UNL1        0.0358
      2 C         -15.2786   -6.4781   19.3683 C.3     1  UNL1        0.0872
      3 C         -13.9387   -5.8114   19.2675 C.3     1  UNL1        0.0358
      4 C         -17.1206   -0.9779   20.1070 C.ar    1  UNL1        0.0362
      5 C         -15.6253   -1.0847   20.0545 C.ar    1  UNL1        0.0028
      6 C         -14.9756   -2.4212   19.8505 C.ar    1  UNL1       -0.0042
      7 C         -15.8211   -3.6508   19.6988 C.ar    1  UNL1       -0.0217
      8 C         -17.3164   -3.5441   19.7512 C.ar    1  UNL1       -0.0042
      9 C         -17.9661   -2.2076   19.9553 C.ar    1  UNL1        0.0028
     10 C         -18.9628    3.4148   22.3854 C.3     1  UNL1        0.0950
     11 C         -18.6171    2.3777   21.3584 C.ar    1  UNL1        0.2062
     12 N         -18.9234    2.4527   19.8918 N.ar    1  UNL1       -0.2104
     13 C         -18.4000    1.2049   19.2446 C.ar    1  UNL1        0.1391
     14 C         -17.7703    0.3586   20.3111 C.ar    1  UNL1        0.1659
     15 O         -17.9045    1.0834   21.6174 O.2     1  UNL1       -0.4383
     16 C         -16.1141   -7.7238   19.3535 C.2     1  UNL1        0.2445
     17 O         -17.5600   -7.6525   18.9605 O.2     1  UNL1       -0.2730
     18 N         -15.5038   -9.0408   19.7318 N.am    1  UNL1       -0.1970
     19 O         -16.3392  -10.2865   19.7170 O.3     1  UNL1       -0.2952
     20 H         -14.5548   -9.0876   19.9897 H       1  UNL1        0.1822
     21 H         -17.2431  -10.0663   19.4423 H       1  UNL1        0.2414
     22 C         -12.4535   -5.9022   19.0782 C.ar    1  UNL1       -0.0217
     23 C         -11.8131   -7.2289   18.7960 C.ar    1  UNL1       -0.0043
     24 C         -10.3278   -7.3196   18.6067 C.ar    1  UNL1       -0.0003
     25 C          -9.4830   -6.0837   18.6996 C.ar    1  UNL1       -0.0000
     26 C         -10.1234   -4.7570   18.9819 C.ar    1  UNL1       -0.0003
     27 C         -11.6086   -4.6662   19.1712 C.ar    1  UNL1       -0.0043
@<TRIPOS>BOND
     1    10    11    1
     2    11    12   ar
     3    12    13   ar
     4    13    14   ar
     5    14     4    1
     6     4     5   ar
     7     5     6   ar
     8     6     7   ar
     9     1     7    1
    10     1     2    1
    11     2    16    1
    12    16    17    2
    13    16    18   am
    14    18    19    1
    15     2     3    1
    16     3    22    1
    17    22    23   ar
    18    23    24   ar
    19    24    25   ar
    20    25    26   ar
    21    26    27   ar
    22     7     8   ar
    23     8     9   ar
    24    14    15   ar
    25    15    11   ar
    26     9     4   ar
    27     3     1    1
    28    27    22   ar
    29    18    20    1
    30    19    21    1
@<TRIPOS>MOLECULE
*****
 27 30 0 0 0
SMALL
GASTEIGER

@<TRIPOS>ATOM
      1 C          -7.6979  -17.0640   23.8543 C.3     1  UNL1        0.0358
      2 C          -8.4755  -16.6263   25.0600 C.3     1  UNL1        0.0872
      3 C          -9.1970  -17.0380   23.8110 C.3     1  UNL1        0.0358
      4 C          -3.7542  -17.8669   21.8411 C.ar    1  UNL1        0.0362
      5 C          -3.8531  -16.8123   22.9031 C.ar    1  UNL1        0.0028
      6 C          -5.1676  -16.5446   23.5742 C.ar    1  UNL1       -0.0042
      7 C          -6.3833  -17.3317   23.1832 C.ar    1  UNL1       -0.0217
      8 C          -6.2844  -18.3863   22.1212 C.ar    1  UNL1       -0.0042
      9 C          -4.9699  -18.6539   21.4502 C.ar    1  UNL1        0.0028
     10 C           1.1402  -17.2509   19.9578 C.3     1  UNL1        0.0950
     11 C          -0.1900  -17.8515   20.3044 C.ar    1  UNL1        0.2062
     12 N          -0.6436  -19.2417   19.9702 N.ar    1  UNL1       -0.2104
     13 C          -2.0340  -19.4166   20.5053 C.ar    1  UNL1        0.1391
     14 C          -2.4397  -18.1346   21.1700 C.ar    1  UNL1        0.1659
     15 O          -1.3000  -17.1673   21.0458 O.2     1  UNL1       -0.4383
     16 C          -8.5080  -16.1359   26.4772 C.2     1  UNL1        0.2445
     17 O          -8.9906  -17.0398   27.5727 O.2     1  UNL1       -0.2730
     18 N          -8.0578  -14.7417   26.7989 N.am    1  UNL1       -0.1970
     19 O          -8.0902  -14.2513   28.2161 O.3     1  UNL1       -0.2952
     20 H          -7.7410  -14.1485   26.0798 H       1  UNL1        0.1822
     21 H          -8.4255  -14.9546   28.7939 H       1  UNL1        0.2414
     22 C         -10.4791  -17.2607   23.0649 C.ar    1  UNL1       -0.0217
     23 C         -11.6639  -17.8521   23.7695 C.ar    1  UNL1       -0.0043
     24 C         -12.9460  -18.0748   23.0234 C.ar    1  UNL1       -0.0003
     25 C         -13.0432  -17.7061   21.5726 C.ar    1  UNL1       -0.0000
     26 C         -11.8584  -17.1147   20.8680 C.ar    1  UNL1       -0.0003
     27 C         -10.5763  -16.8920   21.6141 C.ar    1  UNL1       -0.0043
@<TRIPOS>BOND
     1    10    11    1
     2    11    12   ar
     3    12    13   ar
     4    13    14   ar
     5    14     4    1
     6     4     5   ar
     7     5     6   ar
     8     6     7   ar
     9     1     7    1
    10     1     2    1
    11     2    16    1
    12    16    17    2
    13    16    18   am
    14    18    19    1
    15     2     3    1
    16     3    22    1
    17    22    23   ar
    18    23    24   ar
    19    24    25   ar
    20    25    26   ar
    21    26    27   ar
    22     7     8   ar
    23     8     9   ar
    24    14    15   ar
    25    15    11   ar
    26     9     4   ar
    27     3     1    1
    28    27    22   ar
    29    18    20    1
    30    19    21    1
@<TRIPOS>MOLECULE
*****
 27 30 0 0 0
SMALL
GASTEIGER

@<TRIPOS>ATOM
      1 C         -14.6253   -4.7133   19.3843 C.3     1  UNL1        0.0358
      2 C         -13.2847   -5.3684   19.2302 C.3     1  UNL1        0.0872
      3 C         -14.5353   -6.1935   19.1586 C.3     1  UNL1        0.0358
      4 C         -17.1028   -1.0148   20.0422 C.ar    1  UNL1        0.0362
      5 C         -15.6093   -0.9104   19.9496 C.ar    1  UNL1        0.0028
      6 C         -14.7835   -2.1432   19.7303 C.ar    1  UNL1       -0.0042
      7 C         -15.4512   -3.4805   19.6036 C.ar    1  UNL1       -0.0217
      8 C         -16.9446   -3.5849   19.6963 C.ar    1  UNL1       -0.0042
      9 C         -17.7704   -2.3521   19.9156 C.ar    1  UNL1        0.0028
     10 C         -19.3797    3.1627   22.3325 C.3     1  UNL1        0.0950
     11 C         -18.9752    2.1382   21.3142 C.ar    1  UNL1        0.2062
     12 N         -19.4240    2.0921   19.8836 N.ar    1  UNL1       -0.2104
     13 C         -18.7771    0.9053   19.2330 C.ar    1  UNL1        0.1391
     14 C         -17.9287    0.2180   20.2615 C.ar    1  UNL1        0.1659
     15 O         -18.0511    0.9800   21.5478 O.2     1  UNL1       -0.4383
     16 C         -11.7887   -5.2702   19.1825 C.2     1  UNL1        0.2445
     17 O         -10.9615   -6.5074   18.9946 O.2     1  UNL1       -0.2730
     18 N         -11.1199   -3.9350   19.3227 N.am    1  UNL1       -0.1970
     19 O          -9.6238   -3.8368   19.2751 O.3     1  UNL1       -0.2952
     20 H         -11.6628   -3.1230   19.4461 H       1  UNL1        0.1822
     21 H          -9.2456   -4.7211   19.1493 H       1  UNL1        0.2414
     22 C         -15.2054   -7.5244   18.9870 C.ar    1  UNL1       -0.0217
     23 C         -14.5674   -8.5811   18.1347 C.ar    1  UNL1       -0.0043
     24 C         -15.2376   -9.9121   17.9631 C.ar    1  UNL1       -0.0003
     25 C         -16.5458  -10.1864   18.6437 C.ar    1  UNL1       -0.0000
     26 C         -17.1838   -9.1297   19.4960 C.ar    1  UNL1       -0.0003
     27 C         -16.5137   -7.7988   19.6677 C.ar    1  UNL1       -0.0043
@<TRIPOS>BOND
     1    10    11    1
     2    11    12   ar
     3    12    13   ar
     4    13    14   ar
     5    14     4    1
     6     4     5   ar
     7     5     6   ar
     8     6     7   ar
     9     1     7    1
    10     1     2    1
    11     2    16    1
    12    16    17    2
    13    16    18   am
    14    18    19    1
    15     2     3    1
    16     3    22    1
    17    22    23   ar
    18    23    24   ar
    19    24    25   ar
    20    25    26   ar
    21    26    27   ar
    22     7     8   ar
    23     8     9   ar
    24    14    15   ar
    25    15    11   ar
    26     9     4   ar
    27     3     1    1
    28    27    22   ar
    29    18    20    1
    30    19    21    1
@<TRIPOS>MOLECULE
*****
 27 30 0 0 0
SMALL
GASTEIGER

@<TRIPOS>ATOM
      1 C         -14.0989   -5.5028   19.0737 C.3     1  UNL1        0.0358
      2 C         -12.9884   -6.4931   18.8836 C.3     1  UNL1        0.0872
      3 C         -14.4099   -6.9659   18.9603 C.3     1  UNL1        0.0358
      4 C         -15.4838   -1.2536   19.5993 C.ar    1  UNL1        0.0362
      5 C         -16.4635   -2.3826   19.7241 C.ar    1  UNL1        0.0028
      6 C         -16.0019   -3.7990   19.5489 C.ar    1  UNL1       -0.0042
      7 C         -14.5606   -4.0864   19.2489 C.ar    1  UNL1       -0.0217
      8 C         -13.5809   -2.9574   19.1241 C.ar    1  UNL1       -0.0042
      9 C         -14.0425   -1.5410   19.2993 C.ar    1  UNL1        0.0028
     10 C         -15.7893    4.0069   19.2607 C.3     1  UNL1        0.0950
     11 C         -16.0859    2.5808   19.6188 C.ar    1  UNL1        0.2062
     12 N         -17.2258    2.1041   20.4694 N.ar    1  UNL1       -0.2104
     13 C         -17.1390    0.6097   20.5656 C.ar    1  UNL1        0.1391
     14 C         -15.9454    0.1628   19.7745 C.ar    1  UNL1        0.1659
     15 O         -15.2946    1.3810   19.1894 O.2     1  UNL1       -0.4383
     16 C         -11.5266   -6.7919   18.7296 C.2     1  UNL1        0.2445
     17 O         -10.5049   -5.7875   19.1743 O.2     1  UNL1       -0.2730
     18 N         -11.0864   -8.0948   18.1310 N.am    1  UNL1       -0.1970
     19 O          -9.6245   -8.3936   17.9770 O.3     1  UNL1       -0.2952
     20 H         -11.7569   -8.7540   17.8392 H       1  UNL1        0.1822
     21 H          -9.1048   -7.6459   18.3110 H       1  UNL1        0.2414
     22 C         -15.4101   -8.0834   18.9391 C.ar    1  UNL1       -0.0217
     23 C         -16.6974   -7.9523   19.6978 C.ar    1  UNL1       -0.0043
     24 C         -17.6977   -9.0700   19.6766 C.ar    1  UNL1       -0.0003
     25 C         -17.4106  -10.3187   18.8967 C.ar    1  UNL1       -0.0000
     26 C         -16.1232  -10.4498   18.1380 C.ar    1  UNL1       -0.0003
     27 C         -15.1230   -9.3322   18.1592 C.ar    1  UNL1       -0.0043
@<TRIPOS>BOND
     1    10    11    1
     2    11    12   ar
     3    12    13   ar
     4    13    14   ar
     5    14     4    1
     6     4     5   ar
     7     5     6   ar
     8     6     7   ar
     9     1     7    1
    10     1     2    1
    11     2    16    1
    12    16    17    2
    13    16    18   am
    14    18    19    1
    15     2     3    1
    16     3    22    1
    17    22    23   ar
    18    23    24   ar
    19    24    25   ar
    20    25    26   ar
    21    26    27   ar
    22     7     8   ar
    23     8     9   ar
    24    14    15   ar
    25    15    11   ar
    26     9     4   ar
    27     3     1    1
    28    27    22   ar
    29    18    20    1
    30    19    21    1
@<TRIPOS>MOLECULE
*****
 27 30 0 0 0
SMALL
GASTEIGER

@<TRIPOS>ATOM
      1 C           0.1111    1.4987   25.2581 C.3     1  UNL1        0.0358
      2 C          -0.0888    1.5592   26.7435 C.3     1  UNL1        0.0872
      3 C          -1.0306    2.2858   25.8298 C.3     1  UNL1        0.0358
      4 C           2.4353    0.0307   21.6954 C.ar    1  UNL1        0.0362
      5 C           2.9060   -0.2918   23.0826 C.ar    1  UNL1        0.0028
      6 C           2.1313    0.1975   24.2701 C.ar    1  UNL1       -0.0042
      7 C           0.8859    1.0094   24.0705 C.ar    1  UNL1       -0.0217
      8 C           0.4152    1.3319   22.6833 C.ar    1  UNL1       -0.0042
      9 C           1.1899    0.8426   21.4957 C.ar    1  UNL1        0.0028
     10 C           3.9585   -0.8839   16.7230 C.3     1  UNL1        0.0950
     11 C           3.9101   -0.8790   18.2222 C.ar    1  UNL1        0.2062
     12 N           4.8942   -1.5443   19.1383 N.ar    1  UNL1       -0.2104
     13 C           4.4614   -1.2845   20.5508 C.ar    1  UNL1        0.1391
     14 C           3.2100   -0.4586   20.5077 C.ar    1  UNL1        0.1659
     15 O           2.8693   -0.2081   19.0686 O.2     1  UNL1       -0.4383
     16 C           0.3395    1.1745   28.1286 C.2     1  UNL1        0.2445
     17 O           0.4484    2.2210   29.1978 O.2     1  UNL1       -0.2730
     18 N           0.6588   -0.2566   28.4446 N.am    1  UNL1       -0.1970
     19 O           1.0871   -0.6413   29.8298 O.3     1  UNL1       -0.2952
     20 H           0.5873   -0.9435   27.7429 H       1  UNL1        0.1822
     21 H           1.1054    0.1479   30.3934 H       1  UNL1        0.2414
     22 C          -2.2336    3.1598   25.6323 C.ar    1  UNL1       -0.0217
     23 C          -2.5983    3.6341   24.2568 C.ar    1  UNL1       -0.0043
     24 C          -3.8014    4.5081   24.0593 C.ar    1  UNL1       -0.0003
     25 C          -4.6395    4.9078   25.2373 C.ar    1  UNL1       -0.0000
     26 C          -4.2748    4.4335   26.6128 C.ar    1  UNL1       -0.0003
     27 C          -3.0718    3.5595   26.8103 C.ar    1  UNL1       -0.0043
@<TRIPOS>BOND
     1    10    11    1
     2    11    12   ar
     3    12    13   ar
     4    13    14   ar
     5    14     4    1
     6     4     5   ar
     7     5     6   ar
     8     6     7   ar
     9     1     7    1
    10     1     2    1
    11     2    16    1
    12    16    17    2
    13    16    18   am
    14    18    19    1
    15     2     3    1
    16     3    22    1
    17    22    23   ar
    18    23    24   ar
    19    24    25   ar
    20    25    26   ar
    21    26    27   ar
    22     7     8   ar
    23     8     9   ar
    24    14    15   ar
    25    15    11   ar
    26     9     4   ar
    27     3     1    1
    28    27    22   ar
    29    18    20    1
    30    19    21    1
@<TRIPOS>MOLECULE
*****
 27 30 0 0 0
SMALL
GASTEIGER

@<TRIPOS>ATOM
      1 C           0.7046    1.2773   22.1860 C.3     1  UNL1        0.0358
      2 C           0.0395    1.8337   20.9621 C.3     1  UNL1        0.0872
      3 C           1.1625    0.8489   20.8233 C.3     1  UNL1        0.0358
      4 C           1.0637    1.0554   26.6661 C.ar    1  UNL1        0.0362
      5 C           2.1935    0.5846   25.7990 C.ar    1  UNL1        0.0028
      6 C           2.0738    0.6586   24.3056 C.ar    1  UNL1       -0.0042
      7 C           0.8243    1.2033   23.6794 C.ar    1  UNL1       -0.0217
      8 C          -0.3054    1.6741   24.5466 C.ar    1  UNL1       -0.0042
      9 C          -0.1857    1.6002   26.0399 C.ar    1  UNL1        0.0028
     10 C           0.9067    2.3365   31.7862 C.3     1  UNL1        0.0950
     11 C           1.1112    1.5703   30.5130 C.ar    1  UNL1        0.2062
     12 N           1.6239    0.1650   30.4023 N.ar    1  UNL1       -0.2104
     13 C           1.6685   -0.1989   28.9478 C.ar    1  UNL1        0.1391
     14 C           1.1834    0.9815   28.1596 C.ar    1  UNL1        0.1659
     15 O           0.8390    2.0749   29.1269 O.2     1  UNL1       -0.4383
     16 C          -0.9928    2.7235   20.3355 C.2     1  UNL1        0.2445
     17 O          -0.6264    3.5906   19.1676 O.2     1  UNL1       -0.2730
     18 N          -2.3915    2.7462   20.8769 N.am    1  UNL1       -0.1970
     19 O          -3.4238    3.6360   20.2504 O.3     1  UNL1       -0.2952
     20 H          -2.6320    2.1771   21.6434 H       1  UNL1        0.1822
     21 H          -3.0251    4.1250   19.5137 H       1  UNL1        0.2414
     22 C           2.0751    0.0331   19.9565 C.ar    1  UNL1       -0.0217
     23 C           2.4349    0.5163   18.5827 C.ar    1  UNL1       -0.0043
     24 C           3.3476   -0.2996   17.7159 C.ar    1  UNL1       -0.0003
     25 C           3.9005   -1.5986   18.2228 C.ar    1  UNL1       -0.0000
     26 C           3.5406   -2.0818   19.5965 C.ar    1  UNL1       -0.0003
     27 C           2.6280   -1.2660   20.4633 C.ar    1  UNL1       -0.0043
@<TRIPOS>BOND
     1    10    11    1
     2    11    12   ar
     3    12    13   ar
     4    13    14   ar
     5    14     4    1
     6     4     5   ar
     7     5     6   ar
     8     6     7   ar
     9     1     7    1
    10     1     2    1
    11     2    16    1
    12    16    17    2
    13    16    18   am
    14    18    19    1
    15     2     3    1
    16     3    22    1
    17    22    23   ar
    18    23    24   ar
    19    24    25   ar
    20    25    26   ar
    21    26    27   ar
    22     7     8   ar
    23     8     9   ar
    24    14    15   ar
    25    15    11   ar
    26     9     4   ar
    27     3     1    1
    28    27    22   ar
    29    18    20    1
    30    19    21    1
@<TRIPOS>MOLECULE
*****
 27 30 0 0 0
SMALL
GASTEIGER

@<TRIPOS>ATOM
      1 C           3.9252   -1.5218   21.2696 C.3     1  UNL1        0.0358
      2 C           4.5326   -2.0528   20.0051 C.3     1  UNL1        0.0872
      3 C           5.0490   -2.5131   21.3361 C.3     1  UNL1        0.0358
      4 C           0.9265    1.1150   23.3445 C.ar    1  UNL1        0.0362
      5 C           0.8269    0.8856   21.8655 C.ar    1  UNL1        0.0028
      6 C           1.8264    0.0067   21.1739 C.ar    1  UNL1       -0.0042
      7 C           2.9256   -0.6428   21.9613 C.ar    1  UNL1       -0.0217
      8 C           3.0252   -0.4135   23.4403 C.ar    1  UNL1       -0.0042
      9 C           2.0256    0.4654   24.1319 C.ar    1  UNL1        0.0028
     10 C          -2.7118    4.8321   24.2541 C.3     1  UNL1        0.0950
     11 C          -1.7454    3.7024   24.4543 C.ar    1  UNL1        0.2062
     12 N          -1.4771    2.9903   25.7470 N.ar    1  UNL1       -0.2104
     13 C          -0.4436    1.9344   25.4886 C.ar    1  UNL1        0.1391
     14 C          -0.0731    1.9939   24.0362 C.ar    1  UNL1        0.1659
     15 O          -0.8777    3.0866   23.3971 O.2     1  UNL1       -0.4383
     16 C           4.5851   -2.0937   18.5066 C.2     1  UNL1        0.2445
     17 O           5.5388   -3.0221   17.8146 O.2     1  UNL1       -0.2730
     18 N           3.6841   -1.2063   17.7000 N.am    1  UNL1       -0.1970
     19 O           3.7367   -1.2472   16.2015 O.3     1  UNL1       -0.2952
     20 H           3.0582   -0.5970   18.1542 H       1  UNL1        0.1822
     21 H           4.4008   -1.8952   15.9188 H       1  UNL1        0.2414
     22 C           5.9959   -3.3510   22.1429 C.ar    1  UNL1       -0.0217
     23 C           7.1872   -3.9814   21.4844 C.ar    1  UNL1       -0.0043
     24 C           8.1341   -4.8194   22.2913 C.ar    1  UNL1       -0.0003
     25 C           7.8899   -5.0271   23.7566 C.ar    1  UNL1       -0.0000
     26 C           6.6986   -4.3967   24.4151 C.ar    1  UNL1       -0.0003
     27 C           5.7517   -3.5587   23.6083 C.ar    1  UNL1       -0.0043
@<TRIPOS>BOND
     1    10    11    1
     2    11    12   ar
     3    12    13   ar
     4    13    14   ar
     5    14     4    1
     6     4     5   ar
     7     5     6   ar
     8     6     7   ar
     9     1     7    1
    10     1     2    1
    11     2    16    1
    12    16    17    2
    13    16    18   am
    14    18    19    1
    15     2     3    1
    16     3    22    1
    17    22    23   ar
    18    23    24   ar
    19    24    25   ar
    20    25    26   ar
    21    26    27   ar
    22     7     8   ar
    23     8     9   ar
    24    14    15   ar
    25    15    11   ar
    26     9     4   ar
    27     3     1    1
    28    27    22   ar
    29    18    20    1
    30    19    21    1
@<TRIPOS>MOLECULE
*****
 27 30 0 0 0
SMALL
GASTEIGER

@<TRIPOS>ATOM
      1 C           1.6985    0.5867   24.0036 C.3     1  UNL1        0.0358
      2 C           2.8141   -0.4067   24.1398 C.3     1  UNL1        0.0872
      3 C           2.3845    0.0568   22.7795 C.3     1  UNL1        0.0358
      4 C          -1.4218    3.2252   25.8883 C.ar    1  UNL1        0.0362
      5 C          -0.7214    2.1858   26.7124 C.ar    1  UNL1        0.0028
      6 C           0.3187    1.3063   26.0841 C.ar    1  UNL1       -0.0042
      7 C           0.6584    1.4663   24.6319 C.ar    1  UNL1       -0.0217
      8 C          -0.0420    2.5057   23.8079 C.ar    1  UNL1       -0.0042
      9 C          -1.0821    3.3851   24.4361 C.ar    1  UNL1        0.0028
     10 C          -3.7536    7.2660   28.3614 C.3     1  UNL1        0.0950
     11 C          -3.5337    5.9621   27.6533 C.ar    1  UNL1        0.2062
     12 N          -4.5914    4.9541   27.3132 N.ar    1  UNL1       -0.2104
     13 C          -3.9290    3.8063   26.6107 C.ar    1  UNL1        0.1391
     14 C          -2.4619    4.1047   26.5166 C.ar    1  UNL1        0.1659
     15 O          -2.2177    5.4371   27.1609 O.2     1  UNL1       -0.4383
     16 C           3.7062   -1.2479   25.0038 C.2     1  UNL1        0.2445
     17 O           4.9464   -1.8631   24.4263 O.2     1  UNL1       -0.2730
     18 N           3.3581   -1.4739   26.4452 N.am    1  UNL1       -0.1970
     19 O           4.2503   -2.3151   27.3092 O.3     1  UNL1       -0.2952
     20 H           2.5442   -1.0701   26.8242 H       1  UNL1        0.1822
     21 H           5.0016   -2.6334   26.7848 H       1  UNL1        0.2414
     22 C           2.5325    0.0185   21.2873 C.ar    1  UNL1       -0.0217
     23 C           2.0204    1.1553   20.4534 C.ar    1  UNL1       -0.0043
     24 C           2.1684    1.1170   18.9611 C.ar    1  UNL1       -0.0003
     25 C           2.8285   -0.0581   18.3029 C.ar    1  UNL1       -0.0000
     26 C           3.3406   -1.1949   19.1368 C.ar    1  UNL1       -0.0003
     27 C           3.1926   -1.1566   20.6290 C.ar    1  UNL1       -0.0043
@<TRIPOS>BOND
     1    10    11    1
     2    11    12   ar
     3    12    13   ar
     4    13    14   ar
     5    14     4    1
     6     4     5   ar
     7     5     6   ar
     8     6     7   ar
     9     1     7    1
    10     1     2    1
    11     2    16    1
    12    16    17    2
    13    16    18   am
    14    18    19    1
    15     2     3    1
    16     3    22    1
    17    22    23   ar
    18    23    24   ar
    19    24    25   ar
    20    25    26   ar
    21    26    27   ar
    22     7     8   ar
    23     8     9   ar
    24    14    15   ar
    25    15    11   ar
    26     9     4   ar
    27     3     1    1
    28    27    22   ar
    29    18    20    1
    30    19    21    1
@<TRIPOS>MOLECULE
*****
 27 30 0 0 0
SMALL
GASTEIGER

@<TRIPOS>ATOM
      1 C           3.6452   -1.4510   23.2233 C.3     1  UNL1        0.0358
      2 C           4.3018   -2.4149   22.2802 C.3     1  UNL1        0.0872
      3 C           3.3927   -1.3470   21.7484 C.3     1  UNL1        0.0358
      4 C           2.9452    0.0387   27.4115 C.ar    1  UNL1        0.0362
      5 C           2.3122    0.7442   26.2490 C.ar    1  UNL1        0.0028
      6 C           2.5455    0.2476   24.8529 C.ar    1  UNL1       -0.0042
      7 C           3.4119   -0.9544   24.6194 C.ar    1  UNL1       -0.0217
      8 C           4.0449   -1.6599   25.7819 C.ar    1  UNL1       -0.0042
      9 C           3.8116   -1.1633   27.1780 C.ar    1  UNL1        0.0028
     10 C           2.9602    3.0797   31.7281 C.3     1  UNL1        0.0950
     11 C           2.7188    1.9330   30.7917 C.ar    1  UNL1        0.2062
     12 N           1.9869    0.6655   31.1202 N.ar    1  UNL1       -0.2104
     13 C           1.9827   -0.1983   29.8939 C.ar    1  UNL1        0.1391
     14 C           2.7119    0.5353   28.8076 C.ar    1  UNL1        0.1659
     15 O           3.1668    1.8525   29.3625 O.2     1  UNL1       -0.4383
     16 C           5.2059   -3.5881   22.0427 C.2     1  UNL1        0.2445
     17 O           5.0611   -4.4057   20.7934 O.2     1  UNL1       -0.2730
     18 N           6.2546   -3.9437   23.0544 N.am    1  UNL1       -0.1970
     19 O           7.1587   -5.1169   22.8170 O.3     1  UNL1       -0.2952
     20 H           6.3496   -3.4071   23.8743 H       1  UNL1        0.1822
     21 H           6.9334   -5.5324   21.9699 H       1  UNL1        0.2414
     22 C           2.7220   -0.6704   20.5898 C.ar    1  UNL1       -0.0217
     23 C           1.3268   -0.1394   20.7365 C.ar    1  UNL1       -0.0043
     24 C           0.6561    0.5372   19.5779 C.ar    1  UNL1       -0.0003
     25 C           1.3806    0.6829   18.2726 C.ar    1  UNL1       -0.0000
     26 C           2.7758    0.1520   18.1259 C.ar    1  UNL1       -0.0003
     27 C           3.4465   -0.5247   19.2844 C.ar    1  UNL1       -0.0043
@<TRIPOS>BOND
     1    10    11    1
     2    11    12   ar
     3    12    13   ar
     4    13    14   ar
     5    14     4    1
     6     4     5   ar
     7     5     6   ar
     8     6     7   ar
     9     1     7    1
    10     1     2    1
    11     2    16    1
    12    16    17    2
    13    16    18   am
    14    18    19    1
    15     2     3    1
    16     3    22    1
    17    22    23   ar
    18    23    24   ar
    19    24    25   ar
    20    25    26   ar
    21    26    27   ar
    22     7     8   ar
    23     8     9   ar
    24    14    15   ar
    25    15    11   ar
    26     9     4   ar
    27     3     1    1
    28    27    22   ar
    29    18    20    1
    30    19    21    1
