@<TRIPOS>MOLECULE
*****
 45 51 0 0 0
SMALL
GASTEIGER

@<TRIPOS>ATOM
      1 C          -0.8804    3.1841   26.6743 C.ar    1  UNL1        0.1669
      2 N          -2.3532    3.1892   26.3901 N.ar    1  UNL1       -0.2221
      3 C          -2.5393    3.3645   24.9120 C.ar    1  UNL1        0.1307
      4 C          -3.7698    3.4434   24.0578 C.ar    1  UNL1        0.0777
      5 C          -3.6425    3.6257   22.5743 C.ar    1  UNL1        0.0893
      6 CL         -4.8730    3.7046   21.7200 Cl      1  UNL1       -0.0794
      7 C          -2.2848    3.7290   21.9452 C.ar    1  UNL1        0.0863
      8 N          -1.0543    3.6501   22.7994 N.ar    1  UNL1       -0.3354
      9 C          -1.1816    3.4678   24.2828 C.ar    1  UNL1        0.1613
     10 N          -0.1563    3.3564   25.3720 N.ar    1  UNL1       -0.2080
     11 H          -0.1632    3.7179   22.3864 H       1  UNL1        0.1675
     12 C          -0.1627    1.6813   28.6684 C.ar    1  UNL1        0.1428
     13 C           0.4743    1.5306   30.0181 C.ar    1  UNL1        0.0515
     14 C           1.0304    2.7319   30.7234 C.ar    1  UNL1        0.0509
     15 C           0.9497    4.0840   30.0790 C.ar    1  UNL1        0.0148
     16 C           0.3127    4.2347   28.7293 C.ar    1  UNL1        0.0074
     17 C          -0.2435    3.0334   28.0240 C.ar    1  UNL1        0.0698
     18 N           1.6674    2.5811   32.0730 N.pl3   1  UNL1       -0.3073
     19 C           1.3759    3.5778   33.1554 C.3     1  UNL1        0.0922
     20 C           2.0128    3.4271   34.5050 C.3     1  UNL1        0.0374
     21 C           2.9412    2.2797   34.7723 C.3     1  UNL1        0.0611
     22 C           3.2327    1.2829   33.6899 C.3     1  UNL1        0.0374
     23 C           2.5957    1.4337   32.3403 C.3     1  UNL1        0.0922
     24 N           3.5781    2.1289   36.1220 N.3     1  UNL1       -0.2696
     25 C           2.7218    2.0544   37.3513 C.3     1  UNL1        0.1046
     26 C           3.3588    1.9036   38.7010 C.3     1  UNL1        0.1595
     27 O           4.8520    1.8273   38.8213 O.3     1  UNL1       -0.3508
     28 C           5.7082    1.9018   37.5920 C.3     1  UNL1        0.1595
     29 C           5.0713    2.0526   36.2424 C.3     1  UNL1        0.1046
     30 C          -1.4066   -0.5984   28.7470 C.3     1  UNL1        0.2525
     31 O          -0.7188    0.4799   27.9632 O.3     1  UNL1       -0.4713
     32 N          -5.1276    3.3401   24.6869 N.pl3   1  UNL1       -0.3313
     33 H          -5.5950    2.4739   24.7097 H       1  UNL1        0.1469
     34 C          -5.7733    4.5565   25.2814 C.3     1  UNL1        0.0819
     35 C          -7.0004    5.2457   24.7627 C.3     1  UNL1        0.0983
     36 C          -7.2908    6.4124   25.6596 C.3     1  UNL1        0.0323
     37 C          -6.8228    7.1531   26.8771 C.2     1  UNL1       -0.0304
     38 C          -5.5957    6.4639   27.3958 C.2     1  UNL1       -0.0294
     39 C          -5.3053    5.2972   26.4989 C.3     1  UNL1        0.0404
     40 C          -6.3529    5.2653   25.4258 C.3     1  UNL1        0.0109
     41 C          -7.7973    4.8396   23.5584 C.2     1  UNL1        0.2208
     42 N          -8.6487    3.6055   23.6038 N.am    1  UNL1       -0.3288
     43 O          -7.7427    5.6676   22.3089 O.2     1  UNL1       -0.2753
     44 H          -8.6845    3.0621   24.4240 H       1  UNL1        0.1449
     45 H          -9.1717    3.3390   22.8135 H       1  UNL1        0.1449
@<TRIPOS>BOND
     1    30    31    1
     2    31    12    1
     3    12    13   ar
     4    13    14   ar
     5    14    18    1
     6    18    19    1
     7    19    20    1
     8    20    21    1
     9    21    24    1
    10    24    25    1
    11    25    26    1
    12    26    27    1
    13    27    28    1
    14    28    29    1
    15    21    22    1
    16    22    23    1
    17    14    15   ar
    18    15    16   ar
    19    16    17   ar
    20    17     1    1
    21     1     2   ar
    22     2     3   ar
    23     3     4   ar
    24     4    32    1
    25    34    32    1
    26    34    35    1
    27    35    41    1
    28    41    42   am
    29    41    43    2
    30    35    36    1
    31    36    37    1
    32    37    38    2
    33    39    38    1
    34    39    40    1
    35     4     5   ar
    36     5     6    1
    37     5     7   ar
    38     7     8   ar
    39     8     9   ar
    40     9    10   ar
    41    17    12   ar
    42    10     1   ar
    43    23    18    1
    44     9     3    1
    45    29    24    1
    46    39    34    1
    47    40    36    1
    48    32    33    1
    49    42    44    1
    50    42    45    1
    51     8    11    1
@<TRIPOS>MOLECULE
*****
 45 51 0 0 0
SMALL
GASTEIGER

@<TRIPOS>ATOM
      1 C          -0.9712    2.5812   20.2016 C.ar    1  UNL1        0.1669
      2 N          -2.3347    2.5723   20.8268 N.ar    1  UNL1       -0.2221
      3 C          -3.1208    3.7073   20.2406 C.ar    1  UNL1        0.1307
      4 C          -4.5224    4.1858   20.4784 C.ar    1  UNL1        0.0777
      5 C          -5.0464    5.3747   19.7288 C.ar    1  UNL1        0.0893
      6 CL         -6.4481    5.8532   19.9666 Cl      1  UNL1       -0.0794
      7 C          -4.1688    6.0852   18.7414 C.ar    1  UNL1        0.0863
      8 N          -2.7672    5.6067   18.5036 N.ar    1  UNL1       -0.3354
      9 C          -2.2432    4.4178   19.2532 C.ar    1  UNL1        0.1613
     10 N          -0.9147    3.7218   19.2290 N.ar    1  UNL1       -0.2080
     11 H          -2.1912    6.0731   17.8555 H       1  UNL1        0.1675
     12 C           0.7143    1.5371   21.8806 C.ar    1  UNL1        0.1428
     13 C           1.8261    0.5745   22.1760 C.ar    1  UNL1        0.0515
     14 C           2.3641   -0.3067   21.0879 C.ar    1  UNL1        0.0509
     15 C           1.7904   -0.2253   19.7043 C.ar    1  UNL1        0.0148
     16 C           0.6786    0.7374   19.4090 C.ar    1  UNL1        0.0074
     17 C           0.1406    1.6186   20.4970 C.ar    1  UNL1        0.0698
     18 N           3.4759   -1.2694   21.3833 N.pl3   1  UNL1       -0.3073
     19 C           4.3132   -1.8143   20.2645 C.3     1  UNL1        0.0922
     20 C           5.4250   -2.7769   20.5599 C.3     1  UNL1        0.0374
     21 C           5.6994   -3.1946   21.9741 C.3     1  UNL1        0.0611
     22 C           4.8621   -2.6497   23.0931 C.3     1  UNL1        0.0374
     23 C           3.7503   -1.6871   22.7976 C.3     1  UNL1        0.0922
     24 N           6.8112   -4.1573   22.2696 N.3     1  UNL1       -0.2696
     25 C           6.9423   -4.7540   23.6395 C.3     1  UNL1        0.1046
     26 C           8.0541   -5.7167   23.9349 C.3     1  UNL1        0.1595
     27 O           9.0348   -6.0825   22.8605 O.3     1  UNL1       -0.3508
     28 C           8.9037   -5.4858   21.4906 C.3     1  UNL1        0.1595
     29 C           7.7919   -4.5231   21.1951 C.3     1  UNL1        0.1046
     30 C           0.9089    3.6700   23.3513 C.3     1  UNL1        0.2525
     31 O           0.1763    2.4183   22.9687 O.3     1  UNL1       -0.4713
     32 N          -5.4001    3.4753   21.4659 N.pl3   1  UNL1       -0.3313
     33 H          -6.0768    2.8335   21.1505 H       1  UNL1        0.1469
     34 C          -5.2468    3.7427   22.9338 C.3     1  UNL1        0.0819
     35 C          -6.3153    4.2563   23.8527 C.3     1  UNL1        0.0983
     36 C          -5.7270    4.3745   25.2275 C.3     1  UNL1        0.0323
     37 C          -4.4783    4.1752   26.0343 C.2     1  UNL1       -0.0304
     38 C          -3.4097    3.6615   25.1154 C.2     1  UNL1       -0.0294
     39 C          -3.9981    3.5434   23.7407 C.3     1  UNL1        0.0404
     40 C          -5.4302    3.9840   23.8099 C.3     1  UNL1        0.0109
     41 C          -7.7248    4.5928   23.4650 C.2     1  UNL1        0.2208
     42 N          -8.8288    3.6112   23.7250 N.am    1  UNL1       -0.3288
     43 O          -8.0301    5.9108   22.8172 O.2     1  UNL1       -0.2753
     44 H          -8.6284    2.7462   24.1502 H       1  UNL1        0.1449
     45 H          -9.7539    3.8320   23.4705 H       1  UNL1        0.1449
@<TRIPOS>BOND
     1    30    31    1
     2    31    12    1
     3    12    13   ar
     4    13    14   ar
     5    14    18    1
     6    18    19    1
     7    19    20    1
     8    20    21    1
     9    21    24    1
    10    24    25    1
    11    25    26    1
    12    26    27    1
    13    27    28    1
    14    28    29    1
    15    21    22    1
    16    22    23    1
    17    14    15   ar
    18    15    16   ar
    19    16    17   ar
    20    17     1    1
    21     1     2   ar
    22     2     3   ar
    23     3     4   ar
    24     4    32    1
    25    34    32    1
    26    34    35    1
    27    35    41    1
    28    41    42   am
    29    41    43    2
    30    35    36    1
    31    36    37    1
    32    37    38    2
    33    39    38    1
    34    39    40    1
    35     4     5   ar
    36     5     6    1
    37     5     7   ar
    38     7     8   ar
    39     8     9   ar
    40     9    10   ar
    41    17    12   ar
    42    10     1   ar
    43    23    18    1
    44     9     3    1
    45    29    24    1
    46    39    34    1
    47    40    36    1
    48    32    33    1
    49    42    44    1
    50    42    45    1
    51     8    11    1
@<TRIPOS>MOLECULE
*****
 45 51 0 0 0
SMALL
GASTEIGER

@<TRIPOS>ATOM
      1 C           2.6178    2.4135   33.0928 C.ar    1  UNL1        0.1669
      2 N           2.7468    2.8322   34.5274 N.ar    1  UNL1       -0.2221
      3 C           1.8114    3.9813   34.7607 C.ar    1  UNL1        0.1307
      4 C           1.5122    4.7999   35.9815 C.ar    1  UNL1        0.0777
      5 C           0.5057    5.9101   35.9119 C.ar    1  UNL1        0.0893
      6 CL          0.2065    6.7288   37.1327 Cl      1  UNL1       -0.0794
      7 C          -0.2013    6.2015   34.6216 C.ar    1  UNL1        0.0863
      8 N           0.0979    5.3829   33.4008 N.ar    1  UNL1       -0.3354
      9 C           1.1043    4.2728   33.4704 C.ar    1  UNL1        0.1613
     10 N           1.6027    3.3038   32.4395 N.ar    1  UNL1       -0.2080
     11 H          -0.3662    5.5743   32.5539 H       1  UNL1        0.1675
     12 C           2.7057    0.4698   31.3711 C.ar    1  UNL1        0.1428
     13 C           3.4596   -0.6438   30.7065 C.ar    1  UNL1        0.0515
     14 C           4.8793   -0.9272   31.0988 C.ar    1  UNL1        0.0509
     15 C           5.5453   -0.0970   32.1559 C.ar    1  UNL1        0.0148
     16 C           4.7914    1.0165   32.8205 C.ar    1  UNL1        0.0074
     17 C           3.3716    1.2999   32.4281 C.ar    1  UNL1        0.0698
     18 N           5.6331   -2.0408   30.4342 N.pl3   1  UNL1       -0.3073
     19 C           5.8273   -2.0317   28.9469 C.3     1  UNL1        0.0922
     20 C           6.5811   -3.1453   28.2822 C.3     1  UNL1        0.0374
     21 C           7.1407   -4.2678   29.1048 C.3     1  UNL1        0.0611
     22 C           6.9465   -4.2768   30.5922 C.3     1  UNL1        0.0374
     23 C           6.1927   -3.1633   31.2568 C.3     1  UNL1        0.0922
     24 N           7.8945   -5.3813   28.4401 N.3     1  UNL1       -0.2696
     25 C           8.2284   -5.2943   26.9803 C.3     1  UNL1        0.1046
     26 C           8.9822   -6.4078   26.3157 C.3     1  UNL1        0.1595
     27 O           9.4021   -7.6085   27.1108 O.3     1  UNL1       -0.3508
     28 C           9.0681   -7.6956   28.5705 C.3     1  UNL1        0.1595
     29 C           8.3143   -6.5820   29.2352 C.3     1  UNL1        0.1046
     30 C           0.9253    0.9122   29.5314 C.3     1  UNL1        0.2525
     31 O           1.2859    0.7531   30.9787 O.3     1  UNL1       -0.4713
     32 N           2.2193    4.5085   37.2719 N.pl3   1  UNL1       -0.3313
     33 H           2.8325    5.1746   37.6586 H       1  UNL1        0.1469
     34 C           1.9922    3.2021   37.9731 C.3     1  UNL1        0.0819
     35 C           2.9303    2.0318   37.9825 C.3     1  UNL1        0.0983
     36 C           2.3050    0.9430   38.8033 C.3     1  UNL1        0.0323
     37 C           1.0999    0.5776   39.6183 C.2     1  UNL1       -0.0304
     38 C           0.1617    1.7480   39.6089 C.2     1  UNL1       -0.0294
     39 C           0.7870    2.8367   38.7881 C.3     1  UNL1        0.0404
     40 C           2.1117    2.3393   38.2902 C.3     1  UNL1        0.0109
     41 C           4.2603    1.9623   37.2923 C.2     1  UNL1        0.2208
     42 N           4.6087    0.7684   36.4538 N.am    1  UNL1       -0.3288
     43 O           5.2419    3.0868   37.4407 O.2     1  UNL1       -0.2753
     44 H           3.9644    0.0304   36.3564 H       1  UNL1        0.1449
     45 H           5.4816    0.7228   36.0008 H       1  UNL1        0.1449
@<TRIPOS>BOND
     1    30    31    1
     2    31    12    1
     3    12    13   ar
     4    13    14   ar
     5    14    18    1
     6    18    19    1
     7    19    20    1
     8    20    21    1
     9    21    24    1
    10    24    25    1
    11    25    26    1
    12    26    27    1
    13    27    28    1
    14    28    29    1
    15    21    22    1
    16    22    23    1
    17    14    15   ar
    18    15    16   ar
    19    16    17   ar
    20    17     1    1
    21     1     2   ar
    22     2     3   ar
    23     3     4   ar
    24     4    32    1
    25    34    32    1
    26    34    35    1
    27    35    41    1
    28    41    42   am
    29    41    43    2
    30    35    36    1
    31    36    37    1
    32    37    38    2
    33    39    38    1
    34    39    40    1
    35     4     5   ar
    36     5     6    1
    37     5     7   ar
    38     7     8   ar
    39     8     9   ar
    40     9    10   ar
    41    17    12   ar
    42    10     1   ar
    43    23    18    1
    44     9     3    1
    45    29    24    1
    46    39    34    1
    47    40    36    1
    48    32    33    1
    49    42    44    1
    50    42    45    1
    51     8    11    1
@<TRIPOS>MOLECULE
*****
 45 51 0 0 0
SMALL
GASTEIGER

@<TRIPOS>ATOM
      1 C           4.9849    0.5514   35.3874 C.ar    1  UNL1        0.1669
      2 N           4.6177    1.9797   35.1137 N.ar    1  UNL1       -0.2221
      3 C           4.3026    2.6368   36.4248 C.ar    1  UNL1        0.1307
      4 C           3.8810    4.0339   36.7716 C.ar    1  UNL1        0.0777
      5 C           3.6318    4.4086   38.2025 C.ar    1  UNL1        0.0893
      6 CL          3.2101    5.8058   38.5494 Cl      1  UNL1       -0.0794
      7 C           3.8043    3.3864   39.2865 C.ar    1  UNL1        0.0863
      8 N           4.2259    1.9893   38.9397 N.ar    1  UNL1       -0.3354
      9 C           4.4751    1.6145   37.5089 C.ar    1  UNL1        0.1613
     10 N           4.8968    0.3256   36.8677 N.ar    1  UNL1       -0.2080
     11 H           4.3391    1.3183   39.6513 H       1  UNL1        0.1675
     12 C           6.7681   -0.4925   33.8125 C.ar    1  UNL1        0.1428
     13 C           7.1553   -1.5156   32.7861 C.ar    1  UNL1        0.0515
     14 C           6.1467   -2.5178   32.3084 C.ar    1  UNL1        0.0509
     15 C           4.7508   -2.4970   32.8570 C.ar    1  UNL1        0.0148
     16 C           4.3636   -1.4739   33.8834 C.ar    1  UNL1        0.0074
     17 C           5.3722   -0.4717   34.3611 C.ar    1  UNL1        0.0698
     18 N           6.5340   -3.5409   31.2820 N.pl3   1  UNL1       -0.3073
     19 C           6.4885   -3.1943   29.8234 C.3     1  UNL1        0.0922
     20 C           6.8758   -4.2173   28.7970 C.3     1  UNL1        0.0374
     21 C           7.3086   -5.5868   29.2293 C.3     1  UNL1        0.0611
     22 C           7.3542   -5.9335   30.6880 C.3     1  UNL1        0.0374
     23 C           6.9669   -4.9104   31.7144 C.3     1  UNL1        0.0922
     24 N           7.6959   -6.6099   28.2029 N.3     1  UNL1       -0.2696
     25 C           7.0897   -6.5634   26.8317 C.3     1  UNL1        0.1046
     26 C           7.4770   -7.5864   25.8054 C.3     1  UNL1        0.1595
     27 O           8.4705   -8.6560   26.1502 O.3     1  UNL1       -0.3508
     28 C           9.0768   -8.7024   27.5215 C.3     1  UNL1        0.1595
     29 C           8.6895   -7.6794   28.5478 C.3     1  UNL1        0.1046
     30 C           8.6722    0.1795   35.4473 C.3     1  UNL1        0.2525
     31 O           7.7767    0.5097   34.2901 O.3     1  UNL1       -0.4713
     32 N           3.7085    5.0562   35.6876 N.pl3   1  UNL1       -0.3313
     33 H           4.4966    5.5039   35.3032 H       1  UNL1        0.1469
     34 C           2.3353    5.3965   35.1892 C.3     1  UNL1        0.0819
     35 C           1.5662    4.6463   34.1425 C.3     1  UNL1        0.0983
     36 C           0.2456    5.3329   33.9565 C.3     1  UNL1        0.0323
     37 C          -0.5997    6.4832   34.4173 C.2     1  UNL1       -0.0304
     38 C           0.1694    7.2334   35.4641 C.2     1  UNL1       -0.0294
     39 C           1.4900    6.5468   35.6501 C.3     1  UNL1        0.0404
     40 C           1.5371    5.3722   34.7184 C.3     1  UNL1        0.0109
     41 C           2.0353    3.4240   33.4103 C.2     1  UNL1        0.2208
     42 N           1.6646    2.0602   33.9129 N.am    1  UNL1       -0.3288
     43 O           2.8753    3.5656   32.1756 O.2     1  UNL1       -0.2753
     44 H           1.1133    1.9673   34.7232 H       1  UNL1        0.1449
     45 H           1.9725    1.2581   33.4323 H       1  UNL1        0.1449
@<TRIPOS>BOND
     1    30    31    1
     2    31    12    1
     3    12    13   ar
     4    13    14   ar
     5    14    18    1
     6    18    19    1
     7    19    20    1
     8    20    21    1
     9    21    24    1
    10    24    25    1
    11    25    26    1
    12    26    27    1
    13    27    28    1
    14    28    29    1
    15    21    22    1
    16    22    23    1
    17    14    15   ar
    18    15    16   ar
    19    16    17   ar
    20    17     1    1
    21     1     2   ar
    22     2     3   ar
    23     3     4   ar
    24     4    32    1
    25    34    32    1
    26    34    35    1
    27    35    41    1
    28    41    42   am
    29    41    43    2
    30    35    36    1
    31    36    37    1
    32    37    38    2
    33    39    38    1
    34    39    40    1
    35     4     5   ar
    36     5     6    1
    37     5     7   ar
    38     7     8   ar
    39     8     9   ar
    40     9    10   ar
    41    17    12   ar
    42    10     1   ar
    43    23    18    1
    44     9     3    1
    45    29    24    1
    46    39    34    1
    47    40    36    1
    48    32    33    1
    49    42    44    1
    50    42    45    1
    51     8    11    1
@<TRIPOS>MOLECULE
*****
 45 51 0 0 0
SMALL
GASTEIGER

@<TRIPOS>ATOM
      1 C          -0.6778    3.2085   26.5117 C.ar    1  UNL1        0.1669
      2 N           0.1358    3.1116   25.2553 N.ar    1  UNL1       -0.2221
      3 C          -0.7944    3.2622   24.0881 C.ar    1  UNL1        0.1307
      4 C          -0.5564    3.2509   22.6072 C.ar    1  UNL1        0.0777
      5 C          -1.7070    3.4295   21.6614 C.ar    1  UNL1        0.0893
      6 CL         -1.4691    3.4182   20.1803 Cl      1  UNL1       -0.0794
      7 C          -3.0953    3.6194   22.1965 C.ar    1  UNL1        0.0863
      8 N          -3.3332    3.6307   23.6775 N.ar    1  UNL1       -0.3354
      9 C          -2.1827    3.4521   24.6233 C.ar    1  UNL1        0.1613
     10 N          -2.1107    3.4189   26.1212 N.ar    1  UNL1       -0.2080
     11 H          -4.2444    3.7554   24.0287 H       1  UNL1        0.1675
     12 C          -0.1303    1.7874   28.6167 C.ar    1  UNL1        0.1428
     13 C           0.3966    1.6909   30.0178 C.ar    1  UNL1        0.0515
     14 C           0.9028    2.9187   30.7151 C.ar    1  UNL1        0.0509
     15 C           0.8821    4.2432   30.0113 C.ar    1  UNL1        0.0148
     16 C           0.3553    4.3397   28.6101 C.ar    1  UNL1        0.0074
     17 C          -0.1509    3.1118   27.9129 C.ar    1  UNL1        0.0698
     18 N           1.4297    2.8221   32.1162 N.pl3   1  UNL1       -0.3073
     19 C           2.3082    1.6717   32.5094 C.3     1  UNL1        0.0922
     20 C           2.8350    1.5751   33.9105 C.3     1  UNL1        0.0374
     21 C           2.4834    2.6288   34.9184 C.3     1  UNL1        0.0611
     22 C           1.6048    3.7793   34.5252 C.3     1  UNL1        0.0374
     23 C           1.0780    3.8759   33.1241 C.3     1  UNL1        0.0922
     24 N           3.0102    2.5322   36.3195 N.3     1  UNL1       -0.2696
     25 C           4.2397    1.7215   36.6042 C.3     1  UNL1        0.1046
     26 C           4.7666    1.6249   38.0053 C.3     1  UNL1        0.1595
     27 O           4.0639    2.3390   39.1217 O.3     1  UNL1       -0.3508
     28 C           2.8344    3.1497   38.8370 C.3     1  UNL1        0.1595
     29 C           2.3076    3.2463   37.4359 C.3     1  UNL1        0.1046
     30 C          -1.2478   -0.5560   28.7144 C.3     1  UNL1        0.2525
     31 O          -0.6364    0.5595   27.9195 O.3     1  UNL1       -0.4713
     32 N           0.8319    3.0609   22.0719 N.pl3   1  UNL1       -0.3313
     33 H           1.4478    3.8271   22.0181 H       1  UNL1        0.1469
     34 C           1.2819    1.7037   21.6188 C.3     1  UNL1        0.0819
     35 C           2.0100    0.6921   22.4533 C.3     1  UNL1        0.0983
     36 C           2.2609   -0.5171   21.6019 C.3     1  UNL1        0.0323
     37 C           2.0617   -1.1011   20.2347 C.2     1  UNL1       -0.0304
     38 C           1.3335   -0.0895   19.4002 C.2     1  UNL1       -0.0294
     39 C           1.0827    1.1197   20.2516 C.3     1  UNL1        0.0404
     40 C           1.6558    0.8555   21.6124 C.3     1  UNL1        0.0109
     41 C           2.4161    0.8602   23.8876 C.2     1  UNL1        0.2208
     42 N           1.5211    0.3628   24.9837 N.am    1  UNL1       -0.3288
     43 O           3.7171    1.5257   24.2256 O.2     1  UNL1       -0.2753
     44 H           0.6671   -0.0741   24.7618 H       1  UNL1        0.1449
     45 H           1.7876    0.4731   25.9250 H       1  UNL1        0.1449
@<TRIPOS>BOND
     1    30    31    1
     2    31    12    1
     3    12    13   ar
     4    13    14   ar
     5    14    18    1
     6    18    19    1
     7    19    20    1
     8    20    21    1
     9    21    24    1
    10    24    25    1
    11    25    26    1
    12    26    27    1
    13    27    28    1
    14    28    29    1
    15    21    22    1
    16    22    23    1
    17    14    15   ar
    18    15    16   ar
    19    16    17   ar
    20    17     1    1
    21     1     2   ar
    22     2     3   ar
    23     3     4   ar
    24     4    32    1
    25    34    32    1
    26    34    35    1
    27    35    41    1
    28    41    42   am
    29    41    43    2
    30    35    36    1
    31    36    37    1
    32    37    38    2
    33    39    38    1
    34    39    40    1
    35     4     5   ar
    36     5     6    1
    37     5     7   ar
    38     7     8   ar
    39     8     9   ar
    40     9    10   ar
    41    17    12   ar
    42    10     1   ar
    43    23    18    1
    44     9     3    1
    45    29    24    1
    46    39    34    1
    47    40    36    1
    48    32    33    1
    49    42    44    1
    50    42    45    1
    51     8    11    1
@<TRIPOS>MOLECULE
*****
 45 51 0 0 0
SMALL
GASTEIGER

@<TRIPOS>ATOM
      1 C           1.0431    1.9807   26.1527 C.ar    1  UNL1        0.1669
      2 N           0.1506    2.9238   25.4017 N.ar    1  UNL1       -0.2221
      3 C           0.1523    2.5136   23.9589 C.ar    1  UNL1        0.1307
      4 C          -0.5444    3.0751   22.7550 C.ar    1  UNL1        0.0777
      5 C          -0.3474    2.4400   21.4104 C.ar    1  UNL1        0.0893
      6 CL         -1.0442    3.0015   20.2064 Cl      1  UNL1       -0.0794
      7 C           0.5462    1.2436   21.2697 C.ar    1  UNL1        0.0863
      8 N           1.2429    0.6821   22.4735 N.ar    1  UNL1       -0.3354
      9 C           1.0460    1.3171   23.8181 C.ar    1  UNL1        0.1613
     10 N           1.5965    0.9878   25.1740 N.ar    1  UNL1       -0.2080
     11 H           1.8294   -0.1032   22.3811 H       1  UNL1        0.1675
     12 C           0.3688    1.4071   28.5953 C.ar    1  UNL1        0.1428
     13 C           0.6575    1.4496   30.0666 C.ar    1  UNL1        0.0515
     14 C           1.9089    2.1081   30.5668 C.ar    1  UNL1        0.0509
     15 C           2.8718    2.7242   29.5956 C.ar    1  UNL1        0.0148
     16 C           2.5832    2.6817   28.1242 C.ar    1  UNL1        0.0074
     17 C           1.3317    2.0232   27.6240 C.ar    1  UNL1        0.0698
     18 N           2.1975    2.1506   32.0382 N.pl3   1  UNL1       -0.3073
     19 C           1.5859    3.2217   32.8917 C.3     1  UNL1        0.0922
     20 C           1.8744    3.2641   34.3631 C.3     1  UNL1        0.0374
     21 C           2.7745    2.2356   34.9809 C.3     1  UNL1        0.0611
     22 C           3.3862    1.1644   34.1273 C.3     1  UNL1        0.0374
     23 C           3.0976    1.1219   32.6559 C.3     1  UNL1        0.0922
     24 N           3.0631    2.2780   36.4523 N.3     1  UNL1       -0.2696
     25 C           2.3941    3.3037   37.3185 C.3     1  UNL1        0.1046
     26 C           2.6827    3.3461   38.7898 C.3     1  UNL1        0.1595
     27 O           3.6402    2.3629   39.3950 O.3     1  UNL1       -0.3508
     28 C           4.3093    1.3372   38.5288 C.3     1  UNL1        0.1595
     29 C           4.0207    1.2948   37.0574 C.3     1  UNL1        0.1046
     30 C          -1.3936   -0.4946   28.7611 C.3     1  UNL1        0.2525
     31 O          -0.8827    0.7486   28.0952 O.3     1  UNL1       -0.4713
     32 N          -1.4381    4.2716   22.8957 N.pl3   1  UNL1       -0.3313
     33 H          -1.1487    5.1458   22.5474 H       1  UNL1        0.1469
     34 C          -2.7726    4.1362   23.5669 C.3     1  UNL1        0.0819
     35 C          -4.0898    3.9359   22.8778 C.3     1  UNL1        0.0983
     36 C          -5.1556    3.8532   23.9301 C.3     1  UNL1        0.0323
     37 C          -5.4073    3.8942   25.4082 C.2     1  UNL1       -0.0304
     38 C          -4.0901    4.0945   26.0973 C.2     1  UNL1       -0.0294
     39 C          -3.0243    4.1772   25.0451 C.3     1  UNL1        0.0404
     40 C          -3.6828    4.0281   23.7056 C.3     1  UNL1        0.0109
     41 C          -4.3037    3.8359   21.3964 C.2     1  UNL1        0.2208
     42 N          -4.4954    2.4935   20.7553 N.am    1  UNL1       -0.3288
     43 O          -4.3259    5.0784   20.5563 O.2     1  UNL1       -0.2753
     44 H          -4.4809    1.6781   21.3067 H       1  UNL1        0.1449
     45 H          -4.6358    2.4279   19.7830 H       1  UNL1        0.1449
@<TRIPOS>BOND
     1    30    31    1
     2    31    12    1
     3    12    13   ar
     4    13    14   ar
     5    14    18    1
     6    18    19    1
     7    19    20    1
     8    20    21    1
     9    21    24    1
    10    24    25    1
    11    25    26    1
    12    26    27    1
    13    27    28    1
    14    28    29    1
    15    21    22    1
    16    22    23    1
    17    14    15   ar
    18    15    16   ar
    19    16    17   ar
    20    17     1    1
    21     1     2   ar
    22     2     3   ar
    23     3     4   ar
    24     4    32    1
    25    34    32    1
    26    34    35    1
    27    35    41    1
    28    41    42   am
    29    41    43    2
    30    35    36    1
    31    36    37    1
    32    37    38    2
    33    39    38    1
    34    39    40    1
    35     4     5   ar
    36     5     6    1
    37     5     7   ar
    38     7     8   ar
    39     8     9   ar
    40     9    10   ar
    41    17    12   ar
    42    10     1   ar
    43    23    18    1
    44     9     3    1
    45    29    24    1
    46    39    34    1
    47    40    36    1
    48    32    33    1
    49    42    44    1
    50    42    45    1
    51     8    11    1
@<TRIPOS>MOLECULE
*****
 45 51 0 0 0
SMALL
GASTEIGER

@<TRIPOS>ATOM
      1 C           1.7730    0.9942   24.5483 C.ar    1  UNL1        0.1669
      2 N           2.6824    0.4632   23.4801 N.ar    1  UNL1       -0.2221
      3 C           2.0016    0.6506   22.1567 C.ar    1  UNL1        0.1307
      4 C           2.4211    0.3158   20.7560 C.ar    1  UNL1        0.0777
      5 C           1.5104    0.6278   19.6055 C.ar    1  UNL1        0.0893
      6 CL          1.9299    0.2930   18.2048 Cl      1  UNL1       -0.0794
      7 C           0.1804    1.2745   19.8558 C.ar    1  UNL1        0.0863
      8 N          -0.2390    1.6093   21.2565 N.ar    1  UNL1       -0.3354
      9 C           0.6716    1.2973   22.4069 C.ar    1  UNL1        0.1613
     10 N           0.5303    1.5097   23.8851 N.ar    1  UNL1       -0.2080
     11 H          -1.1120    2.0337   21.4208 H       1  UNL1        0.1675
     12 C           3.4320    0.6814   26.5231 C.ar    1  UNL1        0.1428
     13 C           3.7154    0.6946   27.9961 C.ar    1  UNL1        0.0515
     14 C           2.6236    1.0338   28.9671 C.ar    1  UNL1        0.0509
     15 C           1.2482    1.3598   28.4651 C.ar    1  UNL1        0.0148
     16 C           0.9647    1.3466   26.9922 C.ar    1  UNL1        0.0074
     17 C           2.0566    1.0074   26.0212 C.ar    1  UNL1        0.0698
     18 N           2.9072    1.0470   30.4400 N.pl3   1  UNL1       -0.3073
     19 C           3.2783   -0.2247   31.1436 C.3     1  UNL1        0.0922
     20 C           3.5618   -0.2115   32.6165 C.3     1  UNL1        0.0374
     21 C           3.4743    1.0732   33.3857 C.3     1  UNL1        0.0611
     22 C           3.1031    2.3449   32.6820 C.3     1  UNL1        0.0374
     23 C           2.8196    2.3318   31.2091 C.3     1  UNL1        0.0922
     24 N           3.7578    1.0864   34.8586 N.3     1  UNL1       -0.2696
     25 C           4.7523    0.1254   35.4396 C.3     1  UNL1        0.1046
     26 C           5.0358    0.1386   36.9125 C.3     1  UNL1        0.1595
     27 O           4.3250    1.1128   37.8044 O.3     1  UNL1       -0.3508
     28 C           3.3306    2.0738   37.2234 C.3     1  UNL1        0.1595
     29 C           3.0470    2.0606   35.7505 C.3     1  UNL1        0.1046
     30 C           5.9344    0.7701   25.8302 C.3     1  UNL1        0.2525
     31 O           4.5239    0.3421   25.5523 O.3     1  UNL1       -0.4713
     32 N           3.7512   -0.3310   20.5056 N.pl3   1  UNL1       -0.3313
     33 H           4.5442    0.2257   20.3308 H       1  UNL1        0.1469
     34 C           3.8731   -1.8259   20.5215 C.3     1  UNL1        0.0819
     35 C           4.4651   -2.6505   21.6259 C.3     1  UNL1        0.0983
     36 C           4.3823   -4.0929   21.2228 C.3     1  UNL1        0.0323
     37 C           3.9337   -5.0258   20.1372 C.2     1  UNL1       -0.0304
     38 C           3.3417   -4.2012   19.0329 C.2     1  UNL1       -0.0294
     39 C           3.4244   -2.7587   19.4359 C.3     1  UNL1        0.0404
     40 C           4.0676   -2.6918   20.7894 C.3     1  UNL1        0.0109
     41 C           5.0392   -2.1248   22.9082 C.2     1  UNL1        0.2208
     42 N           4.2379   -2.1979   24.1742 N.am    1  UNL1       -0.3288
     43 O           6.4144   -1.5262   22.9245 O.2     1  UNL1       -0.2753
     44 H           3.3353   -2.5908   24.1634 H       1  UNL1        0.1449
     45 H           4.6147   -1.8529   25.0158 H       1  UNL1        0.1449
@<TRIPOS>BOND
     1    30    31    1
     2    31    12    1
     3    12    13   ar
     4    13    14   ar
     5    14    18    1
     6    18    19    1
     7    19    20    1
     8    20    21    1
     9    21    24    1
    10    24    25    1
    11    25    26    1
    12    26    27    1
    13    27    28    1
    14    28    29    1
    15    21    22    1
    16    22    23    1
    17    14    15   ar
    18    15    16   ar
    19    16    17   ar
    20    17     1    1
    21     1     2   ar
    22     2     3   ar
    23     3     4   ar
    24     4    32    1
    25    34    32    1
    26    34    35    1
    27    35    41    1
    28    41    42   am
    29    41    43    2
    30    35    36    1
    31    36    37    1
    32    37    38    2
    33    39    38    1
    34    39    40    1
    35     4     5   ar
    36     5     6    1
    37     5     7   ar
    38     7     8   ar
    39     8     9   ar
    40     9    10   ar
    41    17    12   ar
    42    10     1   ar
    43    23    18    1
    44     9     3    1
    45    29    24    1
    46    39    34    1
    47    40    36    1
    48    32    33    1
    49    42    44    1
    50    42    45    1
    51     8    11    1
@<TRIPOS>MOLECULE
*****
 45 51 0 0 0
SMALL
GASTEIGER

@<TRIPOS>ATOM
      1 C           4.3477   -1.1953   24.0779 C.ar    1  UNL1        0.1669
      2 N           3.5701   -1.4781   22.8268 N.ar    1  UNL1       -0.2221
      3 C           4.4454   -2.2775   21.9077 C.ar    1  UNL1        0.1307
      4 C           4.2121   -2.8403   20.5370 C.ar    1  UNL1        0.0777
      5 C           5.2975   -3.6144   19.8494 C.ar    1  UNL1        0.0893
      6 CL          5.0642   -4.1773   18.4787 Cl      1  UNL1       -0.0794
      7 C           6.6161   -3.8257   20.5325 C.ar    1  UNL1        0.0863
      8 N           6.8494   -3.2629   21.9032 N.ar    1  UNL1       -0.3354
      9 C           5.7640   -2.4888   22.5908 C.ar    1  UNL1        0.1613
     10 N           5.7036   -1.8200   23.9321 N.ar    1  UNL1       -0.2080
     11 H           7.7148   -3.4016   22.3515 H       1  UNL1        0.1675
     12 C           3.6398    1.0573   25.1618 C.ar    1  UNL1        0.1428
     13 C           3.1479    1.8291   26.3502 C.ar    1  UNL1        0.0515
     14 C           2.8719    1.1203   27.6431 C.ar    1  UNL1        0.0509
     15 C           3.0879   -0.3604   27.7475 C.ar    1  UNL1        0.0148
     16 C           3.5799   -1.1322   26.5591 C.ar    1  UNL1        0.0074
     17 C           3.8558   -0.4234   25.2663 C.ar    1  UNL1        0.0698
     18 N           2.3800    1.8922   28.8314 N.pl3   1  UNL1       -0.3073
     19 C           1.9790    3.3295   28.6785 C.3     1  UNL1        0.0922
     20 C           1.4871    4.1013   29.8668 C.3     1  UNL1        0.0374
     21 C           1.3962    3.4361   31.2080 C.3     1  UNL1        0.0611
     22 C           1.7972    1.9987   31.3611 C.3     1  UNL1        0.0374
     23 C           2.2891    1.2268   30.1727 C.3     1  UNL1        0.0922
     24 N           0.9043    4.2079   32.3964 N.3     1  UNL1       -0.2696
     25 C           1.6531    4.1442   33.6945 C.3     1  UNL1        0.1046
     26 C           1.1612    4.9161   34.8829 C.3     1  UNL1        0.1595
     27 O          -0.0796    5.7517   34.7731 O.3     1  UNL1       -0.3508
     28 C          -0.8284    5.8155   33.4750 C.3     1  UNL1        0.1595
     29 C          -0.3365    5.0436   32.2867 C.3     1  UNL1        0.1046
     30 C           2.7881    2.0833   22.9320 C.3     1  UNL1        0.2525
     31 O           3.9157    1.7661   23.8690 O.3     1  UNL1       -0.4713
     32 N           2.8935   -2.6290   19.8538 N.pl3   1  UNL1       -0.3313
     33 H           2.3443   -3.4035   19.5935 H       1  UNL1        0.1469
     34 C           2.4117   -1.2377   19.5674 C.3     1  UNL1        0.0819
     35 C           2.9881   -0.2968   18.5513 C.3     1  UNL1        0.0983
     36 C           2.2015    0.9794   18.6026 C.3     1  UNL1        0.0323
     37 C           1.0587    1.6740   19.2818 C.2     1  UNL1       -0.0304
     38 C           0.4823    0.7331   20.2979 C.2     1  UNL1       -0.0294
     39 C           1.2689   -0.5431   20.2466 C.3     1  UNL1        0.0404
     40 C           2.3314   -0.3909   19.1988 C.3     1  UNL1        0.0109
     41 C           4.1475   -0.5821   17.6433 C.2     1  UNL1        0.2208
     42 N           5.5512   -0.3993   18.1393 N.am    1  UNL1       -0.3288
     43 O           3.9031   -1.0500   16.2392 O.2     1  UNL1       -0.2753
     44 H           5.7116   -0.0922   19.0608 H       1  UNL1        0.1449
     45 H           6.3122   -0.5865   17.5433 H       1  UNL1        0.1449
@<TRIPOS>BOND
     1    30    31    1
     2    31    12    1
     3    12    13   ar
     4    13    14   ar
     5    14    18    1
     6    18    19    1
     7    19    20    1
     8    20    21    1
     9    21    24    1
    10    24    25    1
    11    25    26    1
    12    26    27    1
    13    27    28    1
    14    28    29    1
    15    21    22    1
    16    22    23    1
    17    14    15   ar
    18    15    16   ar
    19    16    17   ar
    20    17     1    1
    21     1     2   ar
    22     2     3   ar
    23     3     4   ar
    24     4    32    1
    25    34    32    1
    26    34    35    1
    27    35    41    1
    28    41    42   am
    29    41    43    2
    30    35    36    1
    31    36    37    1
    32    37    38    2
    33    39    38    1
    34    39    40    1
    35     4     5   ar
    36     5     6    1
    37     5     7   ar
    38     7     8   ar
    39     8     9   ar
    40     9    10   ar
    41    17    12   ar
    42    10     1   ar
    43    23    18    1
    44     9     3    1
    45    29    24    1
    46    39    34    1
    47    40    36    1
    48    32    33    1
    49    42    44    1
    50    42    45    1
    51     8    11    1
@<TRIPOS>MOLECULE
*****
 45 51 0 0 0
SMALL
GASTEIGER

@<TRIPOS>ATOM
      1 C           1.5214    1.5984   25.9608 C.ar    1  UNL1        0.1669
      2 N           2.5210    1.1072   24.9560 N.ar    1  UNL1       -0.2221
      3 C           1.8931    1.1953   23.5966 C.ar    1  UNL1        0.1307
      4 C           2.4056    0.8492   22.2300 C.ar    1  UNL1        0.0777
      5 C           1.5306    1.0487   21.0281 C.ar    1  UNL1        0.0893
      6 CL          2.0431    0.7025   19.6615 Cl      1  UNL1       -0.0794
      7 C           0.1431    1.5943   21.1928 C.ar    1  UNL1        0.0863
      8 N          -0.3694    1.9404   22.5593 N.ar    1  UNL1       -0.3354
      9 C           0.5056    1.7409   23.7612 C.ar    1  UNL1        0.1613
     10 N           0.2759    1.9900   25.2224 N.ar    1  UNL1       -0.2080
     11 H          -1.2801    2.2985   22.6674 H       1  UNL1        0.1675
     12 C           0.7432    1.0490   28.3780 C.ar    1  UNL1        0.1428
     13 C           0.9525    1.1337   29.8609 C.ar    1  UNL1        0.0515
     14 C           2.1493    1.8525   30.4096 C.ar    1  UNL1        0.0509
     15 C           3.1368    2.4866   29.4754 C.ar    1  UNL1        0.0148
     16 C           2.9275    2.4018   27.9925 C.ar    1  UNL1        0.0074
     17 C           1.7307    1.6831   27.4438 C.ar    1  UNL1        0.0698
     18 N           2.3586    1.9372   31.8925 N.pl3   1  UNL1       -0.3073
     19 C           3.2463    0.9443   32.5825 C.3     1  UNL1        0.0922
     20 C           3.4556    1.0290   34.0654 C.3     1  UNL1        0.0374
     21 C           2.7772    2.1064   34.8583 C.3     1  UNL1        0.0611
     22 C           1.8894    3.0993   34.1683 C.3     1  UNL1        0.0374
     23 C           1.6801    3.0147   32.6854 C.3     1  UNL1        0.0922
     24 N           2.9864    2.1911   36.3412 N.3     1  UNL1       -0.2696
     25 C           3.8144    1.1552   37.0422 C.3     1  UNL1        0.1046
     26 C           4.0236    1.2398   38.5251 C.3     1  UNL1        0.1595
     27 O           3.4050    2.3605   39.3071 O.3     1  UNL1       -0.3508
     28 C           2.5770    3.3964   38.6061 C.3     1  UNL1        0.1595
     29 C           2.3678    3.3117   37.1232 C.3     1  UNL1        0.1046
     30 C          -1.3224   -0.4844   28.7412 C.3     1  UNL1        0.2525
     31 O          -0.4536    0.3302   27.8293 O.3     1  UNL1       -0.4713
     32 N           3.7932    0.3036   22.0653 N.pl3   1  UNL1       -0.3313
     33 H           4.5620    0.9173   22.0255 H       1  UNL1        0.1469
     34 C           4.0094   -1.1771   21.9611 C.3     1  UNL1        0.0819
     35 C           4.4554   -2.0831   23.0702 C.3     1  UNL1        0.0983
     36 C           4.5392   -3.4777   22.5242 C.3     1  UNL1        0.0323
     37 C           4.3474   -4.3123   21.2927 C.2     1  UNL1       -0.0304
     38 C           3.9014   -3.4063   20.1836 C.2     1  UNL1       -0.0294
     39 C           3.8176   -2.0117   20.7296 C.3     1  UNL1        0.0404
     40 C           4.2117   -2.0558   22.1762 C.3     1  UNL1        0.0109
     41 C           4.7635   -1.6676   24.4783 C.2     1  UNL1        0.2208
     42 N           3.6697   -1.6242   25.5038 N.am    1  UNL1       -0.3288
     43 O           6.1653   -1.2954   24.8607 O.2     1  UNL1       -0.2753
     44 H           2.7496   -1.8685   25.2528 H       1  UNL1        0.1449
     45 H           3.8719   -1.3515   26.4279 H       1  UNL1        0.1449
@<TRIPOS>BOND
     1    30    31    1
     2    31    12    1
     3    12    13   ar
     4    13    14   ar
     5    14    18    1
     6    18    19    1
     7    19    20    1
     8    20    21    1
     9    21    24    1
    10    24    25    1
    11    25    26    1
    12    26    27    1
    13    27    28    1
    14    28    29    1
    15    21    22    1
    16    22    23    1
    17    14    15   ar
    18    15    16   ar
    19    16    17   ar
    20    17     1    1
    21     1     2   ar
    22     2     3   ar
    23     3     4   ar
    24     4    32    1
    25    34    32    1
    26    34    35    1
    27    35    41    1
    28    41    42   am
    29    41    43    2
    30    35    36    1
    31    36    37    1
    32    37    38    2
    33    39    38    1
    34    39    40    1
    35     4     5   ar
    36     5     6    1
    37     5     7   ar
    38     7     8   ar
    39     8     9   ar
    40     9    10   ar
    41    17    12   ar
    42    10     1   ar
    43    23    18    1
    44     9     3    1
    45    29    24    1
    46    39    34    1
    47    40    36    1
    48    32    33    1
    49    42    44    1
    50    42    45    1
    51     8    11    1
