@<TRIPOS>MOLECULE
*****
 39 43 0 0 0
SMALL
GASTEIGER

@<TRIPOS>ATOM
      1 C           3.1677    2.7281   32.4244 C.2     1  UNL1        0.2685
      2 O           2.8007    1.9323   31.2070 O.2     1  UNL1       -0.2682
      3 N           4.2722    2.2571   33.3234 N.am    1  UNL1       -0.2723
      4 C           5.0098    0.9904   33.0050 C.3     1  UNL1        0.0761
      5 C           4.4948   -0.4040   33.2062 C.3     1  UNL1        0.0213
      6 C           5.5586   -1.3605   32.7551 C.3     1  UNL1        0.0190
      7 C           5.8977   -2.8135   32.6006 C.3     1  UNL1        0.0722
      8 N           7.2798   -2.9083   32.0252 N.3     1  UNL1       -0.2704
      9 C           7.7947   -1.5138   31.8241 C.3     1  UNL1        0.0722
     10 C           6.7310   -0.5573   32.2752 C.3     1  UNL1        0.0190
     11 C           6.3918    0.8956   32.4297 C.3     1  UNL1        0.0213
     12 C           8.0173   -4.1750   31.7069 C.3     1  UNL1        0.1063
     13 C           7.2656   -5.3789   31.2218 C.3     1  UNL1        0.1486
     14 O           6.4491   -6.1909   32.1831 O.3     1  UNL1       -0.3786
     15 H           6.0313   -6.9277   31.7104 H       1  UNL1        0.2108
     16 C           7.3302   -5.7710   29.7753 C.ar    1  UNL1        0.0056
     17 C           6.3652   -5.1761   28.7931 C.ar    1  UNL1       -0.0019
     18 C           6.4298   -5.5681   27.3468 C.ar    1  UNL1       -0.0002
     19 C           7.4595   -6.5552   26.8825 C.ar    1  UNL1       -0.0000
     20 C           8.4245   -7.1501   27.8648 C.ar    1  UNL1       -0.0002
     21 C           8.3599   -6.7580   29.3112 C.ar    1  UNL1       -0.0019
     22 C          -0.4328    6.1090   34.2917 C.3     1  UNL1        0.1321
     23 N           0.7753    5.5489   33.6010 N.ar    1  UNL1       -0.3057
     24 C           1.8155    6.3397   32.8644 C.ar    1  UNL1        0.1787
     25 N           2.8383    5.3791   32.3339 N.ar    1  UNL1       -0.2192
     26 C           2.4302    3.9949   32.7428 C.ar    1  UNL1        0.1535
     27 C           1.1552    4.0998   33.5259 C.ar    1  UNL1        0.1012
     28 C           4.6392    3.0529   34.5407 C.3     1  UNL1        0.1205
     29 C           4.3726    2.4974   35.9083 C.ar    1  UNL1        0.0007
     30 C           5.5100    2.2650   36.8583 C.ar    1  UNL1       -0.0024
     31 C           5.2434    1.7095   38.2259 C.ar    1  UNL1        0.0028
     32 C           3.8395    1.3863   38.6436 C.ar    1  UNL1        0.0372
     33 C           2.7021    1.6187   37.6937 C.ar    1  UNL1        0.1465
     34 C           2.9686    2.1742   36.3261 C.ar    1  UNL1        0.0346
     35 O           1.2981    1.2955   38.1114 O.3     1  UNL1       -0.4045
     36 C           0.9726    1.1049   39.5632 C.3     1  UNL1        0.5753
     37 F           0.6471    0.9142   41.0150 F       1  UNL1       -0.1328
     38 F           0.8188    2.5884   39.7235 F       1  UNL1       -0.1328
     39 F           1.1264   -0.3785   39.4029 F       1  UNL1       -0.1328
@<TRIPOS>BOND
     1    22    23    1
     2    23    24   ar
     3    24    25   ar
     4    25    26   ar
     5    26     1    1
     6     1     2    2
     7     1     3   am
     8     3    28    1
     9    28    29    1
    10    29    30   ar
    11    30    31   ar
    12    31    32   ar
    13    32    33   ar
    14    33    35    1
    15    35    36    1
    16    36    37    1
    17    36    38    1
    18    36    39    1
    19    33    34   ar
    20     4     3    1
    21     4     5    1
    22     6     5    1
    23     6     7    1
    24     7     8    1
    25     8    12    1
    26    12    13    1
    27    13    14    1
    28    13    16    1
    29    16    17   ar
    30    17    18   ar
    31    18    19   ar
    32    19    20   ar
    33    20    21   ar
    34     8     9    1
    35    10     9    1
    36    10    11    1
    37    26    27   ar
    38    27    23   ar
    39    34    29   ar
    40    11     4    1
    41    10     6    1
    42    21    16   ar
    43    14    15    1
@<TRIPOS>MOLECULE
*****
 39 43 0 0 0
SMALL
GASTEIGER

@<TRIPOS>ATOM
      1 C           0.0857    3.2311   21.0665 C.2     1  UNL1        0.2685
      2 O           0.2888    4.3413   22.0545 O.2     1  UNL1       -0.2682
      3 N           0.3577    1.8115   21.4671 N.am    1  UNL1       -0.2723
      4 C           0.8328    1.5019   22.8558 C.3     1  UNL1        0.0761
      5 C           2.1460    0.8747   23.2190 C.3     1  UNL1        0.0213
      6 C           2.2029    0.7504   24.7128 C.3     1  UNL1        0.0190
      7 C           3.0496    0.2859   25.8605 C.3     1  UNL1        0.0722
      8 N           2.2949    0.5493   27.1298 N.3     1  UNL1       -0.2704
      9 C           0.9816    1.1765   26.7665 C.3     1  UNL1        0.0722
     10 C           0.9248    1.3008   25.2727 C.3     1  UNL1        0.0190
     11 C           0.0780    1.7653   24.1250 C.3     1  UNL1        0.0213
     12 C           2.7699    0.2397   28.5184 C.3     1  UNL1        0.1063
     13 C           1.7803    0.1096   29.6381 C.3     1  UNL1        0.1486
     14 O           0.4653   -0.5720   29.4012 O.3     1  UNL1       -0.3786
     15 H          -0.0520   -0.5706   30.2218 H       1  UNL1        0.2108
     16 C           2.1057    0.6609   30.9946 C.ar    1  UNL1        0.0056
     17 C           1.3494    1.8427   31.5251 C.ar    1  UNL1       -0.0019
     18 C           1.6747    2.3939   32.8816 C.ar    1  UNL1       -0.0002
     19 C           2.7565    1.7635   33.7077 C.ar    1  UNL1       -0.0000
     20 C           3.5128    0.5817   33.1773 C.ar    1  UNL1       -0.0002
     21 C           3.1873    0.0304   31.8207 C.ar    1  UNL1       -0.0019
     22 C          -3.0523    4.1646   16.9237 C.3     1  UNL1        0.1321
     23 N          -1.8317    3.9697   17.7735 N.ar    1  UNL1       -0.3057
     24 C          -0.4090    4.0640   17.3078 C.ar    1  UNL1        0.1787
     25 N           0.4825    3.7988   18.4847 N.ar    1  UNL1       -0.2192
     26 C          -0.3894    3.5406   19.6777 C.ar    1  UNL1        0.1535
     27 C          -1.8196    3.6462   19.2382 C.ar    1  UNL1        0.1012
     28 C           0.1546    0.7013   20.4790 C.3     1  UNL1        0.1205
     29 C           1.3354    0.0895   19.7852 C.ar    1  UNL1        0.0007
     30 C           1.9127    0.7467   18.5667 C.ar    1  UNL1       -0.0024
     31 C           3.0935    0.1348   17.8729 C.ar    1  UNL1        0.0028
     32 C           3.6970   -1.1342   18.3975 C.ar    1  UNL1        0.0372
     33 C           3.1197   -1.7915   19.6160 C.ar    1  UNL1        0.1465
     34 C           1.9389   -1.1797   20.3098 C.ar    1  UNL1        0.0346
     35 O           3.7231   -3.0606   20.1407 O.3     1  UNL1       -0.4045
     36 C           4.1805   -4.1239   19.1867 C.3     1  UNL1        0.5753
     37 F           4.6381   -5.1873   18.2327 F       1  UNL1       -0.1328
     38 F           2.7571   -4.5476   18.9764 F       1  UNL1       -0.1328
     39 F           5.6040   -3.7002   19.3970 F       1  UNL1       -0.1328
@<TRIPOS>BOND
     1    22    23    1
     2    23    24   ar
     3    24    25   ar
     4    25    26   ar
     5    26     1    1
     6     1     2    2
     7     1     3   am
     8     3    28    1
     9    28    29    1
    10    29    30   ar
    11    30    31   ar
    12    31    32   ar
    13    32    33   ar
    14    33    35    1
    15    35    36    1
    16    36    37    1
    17    36    38    1
    18    36    39    1
    19    33    34   ar
    20     4     3    1
    21     4     5    1
    22     6     5    1
    23     6     7    1
    24     7     8    1
    25     8    12    1
    26    12    13    1
    27    13    14    1
    28    13    16    1
    29    16    17   ar
    30    17    18   ar
    31    18    19   ar
    32    19    20   ar
    33    20    21   ar
    34     8     9    1
    35    10     9    1
    36    10    11    1
    37    26    27   ar
    38    27    23   ar
    39    34    29   ar
    40    11     4    1
    41    10     6    1
    42    21    16   ar
    43    14    15    1
@<TRIPOS>MOLECULE
*****
 39 43 0 0 0
SMALL
GASTEIGER

@<TRIPOS>ATOM
      1 C           8.1180   -2.6972   24.1135 C.2     1  UNL1        0.2685
      2 O           9.1877   -2.0793   24.9642 O.2     1  UNL1       -0.2682
      3 N           6.9162   -3.3232   24.7568 N.am    1  UNL1       -0.2723
      4 C           6.7842   -3.3313   26.2510 C.3     1  UNL1        0.0761
      5 C           7.0365   -4.5037   27.1520 C.3     1  UNL1        0.0213
      6 C           6.7849   -4.0655   28.5643 C.3     1  UNL1        0.0190
      7 C           6.7854   -4.5192   29.9940 C.3     1  UNL1        0.0722
      8 N           6.3780   -3.3563   30.8496 N.3     1  UNL1       -0.2704
      9 C           6.1257   -2.1839   29.9485 C.3     1  UNL1        0.0722
     10 C           6.3773   -2.6222   28.5362 C.3     1  UNL1        0.0190
     11 C           6.3768   -2.1685   27.1064 C.3     1  UNL1        0.0213
     12 C           6.2460   -3.3645   32.3436 C.3     1  UNL1        0.1063
     13 C           5.1980   -2.5221   33.0086 C.3     1  UNL1        0.1486
     14 O           3.7466   -2.8645   32.8468 O.3     1  UNL1       -0.3786
     15 H           3.2069   -2.2248   33.3370 H       1  UNL1        0.2108
     16 C           5.6014   -1.3373   33.8354 C.ar    1  UNL1        0.0056
     17 C           6.9373   -0.6907   33.6180 C.ar    1  UNL1       -0.0019
     18 C           7.3406    0.4940   34.4447 C.ar    1  UNL1       -0.0002
     19 C           6.4079    1.0324   35.4890 C.ar    1  UNL1       -0.0000
     20 C           5.0720    0.3859   35.7063 C.ar    1  UNL1       -0.0002
     21 C           4.6687   -0.7990   34.8795 C.ar    1  UNL1       -0.0019
     22 C           8.0964   -1.1060   19.0787 C.3     1  UNL1        0.1321
     23 N           8.2400   -1.9578   20.3051 N.ar    1  UNL1       -0.3057
     24 C           8.6658   -3.3957   20.3348 C.ar    1  UNL1        0.1787
     25 N           8.6720   -3.8477   21.7652 N.ar    1  UNL1       -0.2192
     26 C           8.2499   -2.6891   22.6193 C.ar    1  UNL1        0.1535
     27 C           7.9829   -1.5211   21.7169 C.ar    1  UNL1        0.1012
     28 C           5.8465   -3.9410   23.9060 C.3     1  UNL1        0.1205
     29 C           4.9512   -3.0692   23.0763 C.ar    1  UNL1        0.0007
     30 C           4.2778   -1.8807   23.6960 C.ar    1  UNL1       -0.0024
     31 C           3.3825   -1.0089   22.8663 C.ar    1  UNL1        0.0028
     32 C           3.1605   -1.3255   21.4170 C.ar    1  UNL1        0.0372
     33 C           3.8340   -2.5140   20.7973 C.ar    1  UNL1        0.1465
     34 C           4.7293   -3.3858   21.6270 C.ar    1  UNL1        0.0346
     35 O           3.6121   -2.8307   19.3480 O.3     1  UNL1       -0.4045
     36 C           4.1470   -4.1067   18.7688 C.3     1  UNL1        0.5753
     37 F           4.6820   -5.3828   18.1895 F       1  UNL1       -0.1328
     38 F           2.8831   -4.8138   19.1593 F       1  UNL1       -0.1328
     39 F           5.4109   -3.3997   18.3782 F       1  UNL1       -0.1328
@<TRIPOS>BOND
     1    22    23    1
     2    23    24   ar
     3    24    25   ar
     4    25    26   ar
     5    26     1    1
     6     1     2    2
     7     1     3   am
     8     3    28    1
     9    28    29    1
    10    29    30   ar
    11    30    31   ar
    12    31    32   ar
    13    32    33   ar
    14    33    35    1
    15    35    36    1
    16    36    37    1
    17    36    38    1
    18    36    39    1
    19    33    34   ar
    20     4     3    1
    21     4     5    1
    22     6     5    1
    23     6     7    1
    24     7     8    1
    25     8    12    1
    26    12    13    1
    27    13    14    1
    28    13    16    1
    29    16    17   ar
    30    17    18   ar
    31    18    19   ar
    32    19    20   ar
    33    20    21   ar
    34     8     9    1
    35    10     9    1
    36    10    11    1
    37    26    27   ar
    38    27    23   ar
    39    34    29   ar
    40    11     4    1
    41    10     6    1
    42    21    16   ar
    43    14    15    1
@<TRIPOS>MOLECULE
*****
 39 43 0 0 0
SMALL
GASTEIGER

@<TRIPOS>ATOM
      1 C           1.1056    2.1873   22.0350 C.2     1  UNL1        0.2685
      2 O           1.5555    3.0402   23.1839 O.2     1  UNL1       -0.2682
      3 N           1.6251    0.7875   21.8916 N.am    1  UNL1       -0.2723
      4 C           2.5944    0.2405   22.8971 C.3     1  UNL1        0.0761
      5 C           2.2730   -0.1514   24.3089 C.3     1  UNL1        0.0213
      6 C           3.5353   -0.6448   24.9517 C.3     1  UNL1        0.0190
      7 C           4.1168   -1.1919   26.2216 C.3     1  UNL1        0.0722
      8 N           5.5778   -1.4430   25.9920 N.3     1  UNL1       -0.2704
      9 C           5.8991   -1.0511   24.5801 C.3     1  UNL1        0.0722
     10 C           4.6368   -0.5578   23.9373 C.3     1  UNL1        0.0190
     11 C           4.0553   -0.0107   22.6674 C.3     1  UNL1        0.0213
     12 C           6.5471   -1.9900   26.9975 C.3     1  UNL1        0.1063
     13 C           6.4902   -3.4384   27.3831 C.3     1  UNL1        0.1486
     14 O           6.3072   -4.4888   26.3281 O.3     1  UNL1       -0.3786
     15 H           6.2922   -5.3652   26.7435 H       1  UNL1        0.2108
     16 C           6.6165   -3.8366   28.8238 C.ar    1  UNL1        0.0056
     17 C           6.4943   -2.8007   29.9018 C.ar    1  UNL1       -0.0019
     18 C           6.6205   -3.1989   31.3424 C.ar    1  UNL1       -0.0002
     19 C           6.8691   -4.6331   31.7051 C.ar    1  UNL1       -0.0000
     20 C           6.9913   -5.6689   30.6272 C.ar    1  UNL1       -0.0002
     21 C           6.8651   -5.2707   29.1865 C.ar    1  UNL1       -0.0019
     22 C          -0.8949    4.4842   17.7218 C.3     1  UNL1        0.1321
     23 N          -0.7833    3.7900   19.0469 N.ar    1  UNL1       -0.3057
     24 C          -1.9276    3.3617   19.9169 C.ar    1  UNL1        0.1787
     25 N          -1.3592    2.7092   21.1422 N.ar    1  UNL1       -0.2192
     26 C           0.1363    2.7343   21.0293 C.ar    1  UNL1        0.1535
     27 C           0.4922    3.4022   19.7344 C.ar    1  UNL1        0.1012
     28 C           1.1752   -0.0654   20.7426 C.3     1  UNL1        0.1205
     29 C           2.1583   -0.4858   19.6906 C.ar    1  UNL1        0.0007
     30 C           2.4950    0.4453   18.5637 C.ar    1  UNL1       -0.0024
     31 C           3.4781    0.0250   17.5117 C.ar    1  UNL1        0.0028
     32 C           4.1246   -1.3265   17.5865 C.ar    1  UNL1        0.0372
     33 C           3.7879   -2.2577   18.7133 C.ar    1  UNL1        0.1465
     34 C           2.8048   -1.8373   19.7653 C.ar    1  UNL1        0.0346
     35 O           4.4344   -3.6091   18.7881 O.3     1  UNL1       -0.4045
     36 C           3.8096   -4.6947   19.6134 C.3     1  UNL1        0.5753
     37 F           3.1849   -5.7803   20.4389 F       1  UNL1       -0.1328
     38 F           2.6909   -4.8058   18.6204 F       1  UNL1       -0.1328
     39 F           4.9283   -4.5835   20.6064 F       1  UNL1       -0.1328
@<TRIPOS>BOND
     1    22    23    1
     2    23    24   ar
     3    24    25   ar
     4    25    26   ar
     5    26     1    1
     6     1     2    2
     7     1     3   am
     8     3    28    1
     9    28    29    1
    10    29    30   ar
    11    30    31   ar
    12    31    32   ar
    13    32    33   ar
    14    33    35    1
    15    35    36    1
    16    36    37    1
    17    36    38    1
    18    36    39    1
    19    33    34   ar
    20     4     3    1
    21     4     5    1
    22     6     5    1
    23     6     7    1
    24     7     8    1
    25     8    12    1
    26    12    13    1
    27    13    14    1
    28    13    16    1
    29    16    17   ar
    30    17    18   ar
    31    18    19   ar
    32    19    20   ar
    33    20    21   ar
    34     8     9    1
    35    10     9    1
    36    10    11    1
    37    26    27   ar
    38    27    23   ar
    39    34    29   ar
    40    11     4    1
    41    10     6    1
    42    21    16   ar
    43    14    15    1
@<TRIPOS>MOLECULE
*****
 39 43 0 0 0
SMALL
GASTEIGER

@<TRIPOS>ATOM
      1 C          -0.2208    2.7519   21.9016 C.2     1  UNL1        0.2685
      2 O           0.0447    3.5776   23.1254 O.2     1  UNL1       -0.2682
      3 N           0.6098    1.5342   21.6236 N.am    1  UNL1       -0.2723
      4 C           1.7060    1.1422   22.5694 C.3     1  UNL1        0.0761
      5 C           1.5479    0.3051   23.8040 C.3     1  UNL1        0.0213
      6 C           2.8971    0.1640   24.4442 C.3     1  UNL1        0.0190
      7 C           3.6332   -0.4406   25.6029 C.3     1  UNL1        0.0722
      8 N           5.0801   -0.0643   25.4801 N.3     1  UNL1       -0.2704
      9 C           5.2382    0.7728   24.2455 C.3     1  UNL1        0.0722
     10 C           3.8890    0.9139   23.6053 C.3     1  UNL1        0.0190
     11 C           3.1529    1.5184   22.4465 C.3     1  UNL1        0.0213
     12 C           6.1764   -0.4563   26.4259 C.3     1  UNL1        0.1063
     13 C           5.9264   -1.5022   27.4716 C.3     1  UNL1        0.1486
     14 O           5.3658   -1.1094   28.8063 O.3     1  UNL1       -0.3786
     15 H           5.2664   -1.8993   29.3604 H       1  UNL1        0.2108
     16 C           6.2371   -2.9411   27.1827 C.ar    1  UNL1        0.0056
     17 C           6.2471   -3.9447   28.2974 C.ar    1  UNL1       -0.0019
     18 C           6.5577   -5.3834   28.0085 C.ar    1  UNL1       -0.0002
     19 C           6.8583   -5.8186   26.6048 C.ar    1  UNL1       -0.0000
     20 C           6.8483   -4.8150   25.4901 C.ar    1  UNL1       -0.0002
     21 C           6.5376   -3.3762   25.7791 C.ar    1  UNL1       -0.0019
     22 C          -2.7878    4.7217   17.7289 C.3     1  UNL1        0.1321
     23 N          -2.4971    4.0492   19.0379 N.ar    1  UNL1       -0.3057
     24 C          -3.5113    3.4447   19.9629 C.ar    1  UNL1        0.1787
     25 N          -2.7820    2.8851   21.1483 N.ar    1  UNL1       -0.2192
     26 C          -1.3171    3.1439   20.9558 C.ar    1  UNL1        0.1535
     27 C          -1.1410    3.8633   19.6515 C.ar    1  UNL1        0.1012
     28 C           0.3441    0.7086   20.3998 C.3     1  UNL1        0.1205
     29 C           1.4785    0.0252   19.6954 C.ar    1  UNL1        0.0007
     30 C           2.0349    0.6071   18.4298 C.ar    1  UNL1       -0.0024
     31 C           3.1693   -0.0763   17.7254 C.ar    1  UNL1        0.0028
     32 C           3.7472   -1.3416   18.2865 C.ar    1  UNL1        0.0372
     33 C           3.1908   -1.9236   19.5521 C.ar    1  UNL1        0.1465
     34 C           2.0564   -1.2402   20.2565 C.ar    1  UNL1        0.0346
     35 O           3.7687   -3.1890   20.1132 O.3     1  UNL1       -0.4045
     36 C           4.2293   -4.2773   19.1895 C.3     1  UNL1        0.5753
     37 F           4.6900   -5.3657   18.2657 F       1  UNL1       -0.1328
     38 F           5.6565   -3.9462   19.5111 F       1  UNL1       -0.1328
     39 F           2.8021   -4.6085   18.8679 F       1  UNL1       -0.1328
@<TRIPOS>BOND
     1    22    23    1
     2    23    24   ar
     3    24    25   ar
     4    25    26   ar
     5    26     1    1
     6     1     2    2
     7     1     3   am
     8     3    28    1
     9    28    29    1
    10    29    30   ar
    11    30    31   ar
    12    31    32   ar
    13    32    33   ar
    14    33    35    1
    15    35    36    1
    16    36    37    1
    17    36    38    1
    18    36    39    1
    19    33    34   ar
    20     4     3    1
    21     4     5    1
    22     6     5    1
    23     6     7    1
    24     7     8    1
    25     8    12    1
    26    12    13    1
    27    13    14    1
    28    13    16    1
    29    16    17   ar
    30    17    18   ar
    31    18    19   ar
    32    19    20   ar
    33    20    21   ar
    34     8     9    1
    35    10     9    1
    36    10    11    1
    37    26    27   ar
    38    27    23   ar
    39    34    29   ar
    40    11     4    1
    41    10     6    1
    42    21    16   ar
    43    14    15    1
@<TRIPOS>MOLECULE
*****
 39 43 0 0 0
SMALL
GASTEIGER

@<TRIPOS>ATOM
      1 C           1.0479    2.3596   21.6324 C.2     1  UNL1        0.2685
      2 O           1.3920    3.0055   22.9416 O.2     1  UNL1       -0.2682
      3 N           1.7104    1.0745   21.2329 N.am    1  UNL1       -0.2723
      4 C           2.7171    0.4352   22.1427 C.3     1  UNL1        0.0761
      5 C           4.2009    0.6524   22.1070 C.3     1  UNL1        0.0213
      6 C           4.8176   -0.1820   23.1903 C.3     1  UNL1        0.0190
      7 C           6.1158   -0.5635   23.8377 C.3     1  UNL1        0.0722
      8 N           5.8156   -1.5322   24.9430 N.3     1  UNL1       -0.2704
      9 C           4.3317   -1.7493   24.9786 C.3     1  UNL1        0.0722
     10 C           3.7150   -0.9149   23.8954 C.3     1  UNL1        0.0190
     11 C           2.4168   -0.5334   23.2480 C.3     1  UNL1        0.0213
     12 C           6.8223   -2.1714   25.8528 C.3     1  UNL1        0.1063
     13 C           6.5244   -3.4976   26.4871 C.3     1  UNL1        0.1486
     14 O           5.7244   -3.5600   27.7544 O.3     1  UNL1       -0.3786
     15 H           5.6238   -4.4852   28.0280 H       1  UNL1        0.2108
     16 C           7.0265   -4.7615   25.8542 C.ar    1  UNL1        0.0056
     17 C           7.5500   -4.7399   24.4487 C.ar    1  UNL1       -0.0019
     18 C           8.0521   -6.0037   23.8159 C.ar    1  UNL1       -0.0002
     19 C           8.0308   -7.2893   24.5886 C.ar    1  UNL1       -0.0000
     20 C           7.5073   -7.3108   25.9941 C.ar    1  UNL1       -0.0002
     21 C           7.0052   -6.0469   26.6269 C.ar    1  UNL1       -0.0019
     22 C          -3.5320    3.8526   19.4698 C.3     1  UNL1        0.1321
     23 N          -2.0640    3.6850   19.7284 N.ar    1  UNL1       -0.3057
     24 C          -0.9522    4.2797   18.9159 C.ar    1  UNL1        0.1787
     25 N           0.3489    3.8555   19.5303 N.ar    1  UNL1       -0.2192
     26 C           0.0411    2.9988   20.7224 C.ar    1  UNL1        0.1535
     27 C          -1.4501    2.8934   20.8448 C.ar    1  UNL1        0.1012
     28 C           1.3661    0.4286   19.9236 C.3     1  UNL1        0.1205
     29 C           2.4136   -0.3288   19.1626 C.ar    1  UNL1        0.0007
     30 C           2.9339    0.2110   17.8634 C.ar    1  UNL1       -0.0024
     31 C           3.9814   -0.5464   17.1023 C.ar    1  UNL1        0.0028
     32 C           4.5086   -1.8435   17.6405 C.ar    1  UNL1        0.0372
     33 C           3.9883   -2.3833   18.9397 C.ar    1  UNL1        0.1465
     34 C           2.9408   -1.6259   19.7007 C.ar    1  UNL1        0.0346
     35 O           4.5154   -3.6804   19.4779 O.3     1  UNL1       -0.4045
     36 C           4.5331   -3.9266   20.9574 C.3     1  UNL1        0.5753
     37 F           4.5508   -4.1728   22.4371 F       1  UNL1       -0.1328
     38 F           3.5412   -5.0385   20.7842 F       1  UNL1       -0.1328
     39 F           5.5249   -2.8147   21.1306 F       1  UNL1       -0.1328
@<TRIPOS>BOND
     1    22    23    1
     2    23    24   ar
     3    24    25   ar
     4    25    26   ar
     5    26     1    1
     6     1     2    2
     7     1     3   am
     8     3    28    1
     9    28    29    1
    10    29    30   ar
    11    30    31   ar
    12    31    32   ar
    13    32    33   ar
    14    33    35    1
    15    35    36    1
    16    36    37    1
    17    36    38    1
    18    36    39    1
    19    33    34   ar
    20     4     3    1
    21     4     5    1
    22     6     5    1
    23     6     7    1
    24     7     8    1
    25     8    12    1
    26    12    13    1
    27    13    14    1
    28    13    16    1
    29    16    17   ar
    30    17    18   ar
    31    18    19   ar
    32    19    20   ar
    33    20    21   ar
    34     8     9    1
    35    10     9    1
    36    10    11    1
    37    26    27   ar
    38    27    23   ar
    39    34    29   ar
    40    11     4    1
    41    10     6    1
    42    21    16   ar
    43    14    15    1
@<TRIPOS>MOLECULE
*****
 39 43 0 0 0
SMALL
GASTEIGER

@<TRIPOS>ATOM
      1 C          -2.0983    3.3720   21.7869 C.2     1  UNL1        0.2685
      2 O          -2.6605    2.8295   20.5065 O.2     1  UNL1       -0.2682
      3 N          -0.6481    3.1716   22.1136 N.am    1  UNL1       -0.2723
      4 C           0.2399    2.4287   21.1599 C.3     1  UNL1        0.0761
      5 C           1.2944    3.0354   20.2825 C.3     1  UNL1        0.0213
      6 C           1.9355    1.9302   19.4965 C.3     1  UNL1        0.0190
      7 C           2.9834    1.6222   18.4684 C.3     1  UNL1        0.0722
      8 N           2.9728    0.1421   18.2247 N.3     1  UNL1       -0.2704
      9 C           1.9182   -0.4646   19.1022 C.3     1  UNL1        0.0722
     10 C           1.2772    0.6406   19.8882 C.3     1  UNL1        0.0190
     11 C           0.2292    0.9486   20.9162 C.3     1  UNL1        0.0213
     12 C           3.8607   -0.6008   17.2711 C.3     1  UNL1        0.1063
     13 C           5.0095   -1.4119   17.7929 C.3     1  UNL1        0.1486
     14 O           6.3585   -1.3044   17.1459 O.3     1  UNL1       -0.3786
     15 H           6.9833   -1.8900   17.6015 H       1  UNL1        0.2108
     16 C           4.8095   -2.3305   18.9617 C.ar    1  UNL1        0.0056
     17 C           4.2189   -3.6933   18.7522 C.ar    1  UNL1       -0.0019
     18 C           4.0189   -4.6118   19.9210 C.ar    1  UNL1       -0.0002
     19 C           4.4094   -4.1675   21.2995 C.ar    1  UNL1       -0.0000
     20 C           5.0000   -2.8047   21.5091 C.ar    1  UNL1       -0.0002
     21 C           5.2000   -1.8862   20.3402 C.ar    1  UNL1       -0.0019
     22 C          -5.4579    4.4546   25.7140 C.3     1  UNL1        0.1321
     23 N          -4.5304    4.6126   24.5457 N.ar    1  UNL1       -0.3057
     24 C          -4.1746    5.9041   23.8709 C.ar    1  UNL1        0.1787
     25 N          -3.2202    5.5965   22.7553 N.ar    1  UNL1       -0.2192
     26 C          -2.9862    4.1150   22.7407 C.ar    1  UNL1        0.1535
     27 C          -3.7959    3.5069   23.8472 C.ar    1  UNL1        0.1012
     28 C          -0.0858    3.7142   23.3941 C.3     1  UNL1        0.1205
     29 C           0.6164    2.7984   24.3523 C.ar    1  UNL1        0.0007
     30 C           1.8745    2.0969   23.9339 C.ar    1  UNL1       -0.0024
     31 C           2.5768    1.1811   24.8921 C.ar    1  UNL1        0.0028
     32 C           2.0211    0.9669   26.2687 C.ar    1  UNL1        0.0372
     33 C           0.7630    1.6683   26.6872 C.ar    1  UNL1        0.1465
     34 C           0.0607    2.5841   25.7290 C.ar    1  UNL1        0.0346
     35 O           0.2071    1.4541   28.0639 O.3     1  UNL1       -0.4045
     36 C          -0.7279    0.3108   28.3256 C.3     1  UNL1        0.5753
     37 F          -1.6631   -0.8325   28.5873 F       1  UNL1       -0.1328
     38 F           0.4410   -0.5704   28.6527 F       1  UNL1       -0.1328
     39 F          -1.8969    1.1920   27.9984 F       1  UNL1       -0.1328
@<TRIPOS>BOND
     1    22    23    1
     2    23    24   ar
     3    24    25   ar
     4    25    26   ar
     5    26     1    1
     6     1     2    2
     7     1     3   am
     8     3    28    1
     9    28    29    1
    10    29    30   ar
    11    30    31   ar
    12    31    32   ar
    13    32    33   ar
    14    33    35    1
    15    35    36    1
    16    36    37    1
    17    36    38    1
    18    36    39    1
    19    33    34   ar
    20     4     3    1
    21     4     5    1
    22     6     5    1
    23     6     7    1
    24     7     8    1
    25     8    12    1
    26    12    13    1
    27    13    14    1
    28    13    16    1
    29    16    17   ar
    30    17    18   ar
    31    18    19   ar
    32    19    20   ar
    33    20    21   ar
    34     8     9    1
    35    10     9    1
    36    10    11    1
    37    26    27   ar
    38    27    23   ar
    39    34    29   ar
    40    11     4    1
    41    10     6    1
    42    21    16   ar
    43    14    15    1
@<TRIPOS>MOLECULE
*****
 39 43 0 0 0
SMALL
GASTEIGER

@<TRIPOS>ATOM
      1 C          -0.5810    3.0303   21.4929 C.2     1  UNL1        0.2685
      2 O          -0.4295    3.9447   22.6723 O.2     1  UNL1       -0.2682
      3 N           0.2441    1.7810   21.4015 N.am    1  UNL1       -0.2723
      4 C           1.2209    1.4461   22.4896 C.3     1  UNL1        0.0761
      5 C           2.7034    1.6694   22.4429 C.3     1  UNL1        0.0213
      6 C           3.2853    1.1903   23.7398 C.3     1  UNL1        0.0190
      7 C           4.5612    1.0322   24.5125 C.3     1  UNL1        0.0722
      8 N           4.2269    0.4151   25.8382 N.3     1  UNL1       -0.2704
      9 C           2.7443    0.1918   25.8848 C.3     1  UNL1        0.0722
     10 C           2.1624    0.6709   24.5879 C.3     1  UNL1        0.0190
     11 C           0.8865    0.8290   23.8152 C.3     1  UNL1        0.0213
     12 C           5.2035    0.0801   26.9262 C.3     1  UNL1        0.1063
     13 C           5.0020   -1.1484   27.7629 C.3     1  UNL1        0.1486
     14 O           5.2166   -2.5069   27.1644 O.3     1  UNL1       -0.3786
     15 H           5.0454   -3.1865   27.8351 H       1  UNL1        0.2108
     16 C           4.5858   -1.0184   29.1982 C.ar    1  UNL1        0.0056
     17 C           3.1955   -0.5700   29.5384 C.ar    1  UNL1       -0.0019
     18 C           2.7794   -0.4401   30.9736 C.ar    1  UNL1       -0.0002
     19 C           3.7537   -0.7586   32.0688 C.ar    1  UNL1       -0.0000
     20 C           5.1441   -1.2070   31.7286 C.ar    1  UNL1       -0.0002
     21 C           5.5602   -1.3369   30.2933 C.ar    1  UNL1       -0.0019
     22 C          -5.0844    3.7027   18.8192 C.3     1  UNL1        0.1321
     23 N          -3.6276    3.6743   19.1758 N.ar    1  UNL1       -0.3057
     24 C          -2.4937    4.0869   18.2849 C.ar    1  UNL1        0.1787
     25 N          -1.2143    3.8959   19.0445 N.ar    1  UNL1       -0.2192
     26 C          -1.5578    3.3652   20.4048 C.ar    1  UNL1        0.1535
     27 C          -3.0492    3.2283   20.4860 C.ar    1  UNL1        0.1012
     28 C           0.0926    0.8667   20.2221 C.3     1  UNL1        0.1205
     29 C           1.3021    0.2218   19.6128 C.ar    1  UNL1        0.0007
     30 C           2.0007    0.8779   18.4589 C.ar    1  UNL1       -0.0024
     31 C           3.2102    0.2331   17.8496 C.ar    1  UNL1        0.0028
     32 C           3.7211   -1.0679   18.3941 C.ar    1  UNL1        0.0372
     33 C           3.0225   -1.7240   19.5480 C.ar    1  UNL1        0.1465
     34 C           1.8130   -1.0792   20.1573 C.ar    1  UNL1        0.0346
     35 O           3.5333   -3.0250   20.0926 O.3     1  UNL1       -0.4045
     36 C           4.0683   -4.0703   19.1593 C.3     1  UNL1        0.5753
     37 F           4.6034   -5.1157   18.2259 F       1  UNL1       -0.1328
     38 F           2.6749   -4.5734   18.9241 F       1  UNL1       -0.1328
     39 F           5.4617   -3.5672   19.3945 F       1  UNL1       -0.1328
@<TRIPOS>BOND
     1    22    23    1
     2    23    24   ar
     3    24    25   ar
     4    25    26   ar
     5    26     1    1
     6     1     2    2
     7     1     3   am
     8     3    28    1
     9    28    29    1
    10    29    30   ar
    11    30    31   ar
    12    31    32   ar
    13    32    33   ar
    14    33    35    1
    15    35    36    1
    16    36    37    1
    17    36    38    1
    18    36    39    1
    19    33    34   ar
    20     4     3    1
    21     4     5    1
    22     6     5    1
    23     6     7    1
    24     7     8    1
    25     8    12    1
    26    12    13    1
    27    13    14    1
    28    13    16    1
    29    16    17   ar
    30    17    18   ar
    31    18    19   ar
    32    19    20   ar
    33    20    21   ar
    34     8     9    1
    35    10     9    1
    36    10    11    1
    37    26    27   ar
    38    27    23   ar
    39    34    29   ar
    40    11     4    1
    41    10     6    1
    42    21    16   ar
    43    14    15    1
@<TRIPOS>MOLECULE
*****
 39 43 0 0 0
SMALL
GASTEIGER

@<TRIPOS>ATOM
      1 C           7.4397   -1.8624   24.5382 C.2     1  UNL1        0.2685
      2 O           8.2954   -0.9752   25.3929 O.2     1  UNL1       -0.2682
      3 N           5.9906   -2.0561   24.8739 N.am    1  UNL1       -0.2723
      4 C           5.3973   -1.3627   26.0643 C.3     1  UNL1        0.0761
      5 C           5.0744    0.0989   26.1629 C.3     1  UNL1        0.0213
      6 C           4.5002    0.3558   27.5246 C.3     1  UNL1        0.0190
      7 C           3.9458    1.4179   28.4272 C.3     1  UNL1        0.0722
      8 N           3.5711    0.7716   29.7280 N.3     1  UNL1       -0.2704
      9 C           3.8941   -0.6900   29.6293 C.3     1  UNL1        0.0722
     10 C           4.4682   -0.9469   28.2676 C.3     1  UNL1        0.0190
     11 C           5.0227   -2.0090   27.3650 C.3     1  UNL1        0.0213
     12 C           2.9778    1.4650   30.9183 C.3     1  UNL1        0.1063
     13 C           1.4921    1.6464   31.0172 C.3     1  UNL1        0.1486
     14 O           0.8276    1.6725   32.3617 O.3     1  UNL1       -0.3786
     15 H          -0.1277    1.7966   32.2479 H       1  UNL1        0.2108
     16 C           0.6708    1.8017   29.7716 C.ar    1  UNL1        0.0056
     17 C           0.5909    3.1340   29.0871 C.ar    1  UNL1       -0.0019
     18 C          -0.2303    3.2893   27.8417 C.ar    1  UNL1       -0.0002
     19 C          -0.9717    2.1122   27.2805 C.ar    1  UNL1       -0.0000
     20 C          -0.8918    0.7799   27.9650 C.ar    1  UNL1       -0.0002
     21 C          -0.0705    0.6246   29.2105 C.ar    1  UNL1       -0.0019
     22 C           9.0931   -2.8819   19.6282 C.3     1  UNL1        0.1321
     23 N           8.7929   -3.0246   21.0910 N.ar    1  UNL1       -0.3057
     24 C           9.0989   -4.2219   21.9410 C.ar    1  UNL1        0.1787
     25 N           8.6292   -3.9323   23.3359 N.ar    1  UNL1       -0.2192
     26 C           8.0330   -2.5559   23.3478 C.ar    1  UNL1        0.1535
     27 C           8.1342   -1.9949   21.9604 C.ar    1  UNL1        0.1012
     28 C           5.1349   -2.9434   24.0192 C.3     1  UNL1        0.1205
     29 C           4.3400   -2.3572   22.8903 C.ar    1  UNL1        0.0007
     30 C           3.5933   -1.0712   23.0873 C.ar    1  UNL1       -0.0024
     31 C           2.7984   -0.4850   21.9584 C.ar    1  UNL1        0.0028
     32 C           2.7501   -1.1846   20.6325 C.ar    1  UNL1        0.0372
     33 C           3.4968   -2.4706   20.4354 C.ar    1  UNL1        0.1465
     34 C           4.2917   -3.0568   21.5643 C.ar    1  UNL1        0.0346
     35 O           3.4486   -3.1703   19.1095 O.3     1  UNL1       -0.4045
     36 C           4.2217   -4.4390   18.9024 C.3     1  UNL1        0.5753
     37 F           4.9949   -5.7076   18.6953 F       1  UNL1       -0.1328
     38 F           3.0612   -5.2317   19.4266 F       1  UNL1       -0.1328
     39 F           5.3822   -3.6462   18.3782 F       1  UNL1       -0.1328
@<TRIPOS>BOND
     1    22    23    1
     2    23    24   ar
     3    24    25   ar
     4    25    26   ar
     5    26     1    1
     6     1     2    2
     7     1     3   am
     8     3    28    1
     9    28    29    1
    10    29    30   ar
    11    30    31   ar
    12    31    32   ar
    13    32    33   ar
    14    33    35    1
    15    35    36    1
    16    36    37    1
    17    36    38    1
    18    36    39    1
    19    33    34   ar
    20     4     3    1
    21     4     5    1
    22     6     5    1
    23     6     7    1
    24     7     8    1
    25     8    12    1
    26    12    13    1
    27    13    14    1
    28    13    16    1
    29    16    17   ar
    30    17    18   ar
    31    18    19   ar
    32    19    20   ar
    33    20    21   ar
    34     8     9    1
    35    10     9    1
    36    10    11    1
    37    26    27   ar
    38    27    23   ar
    39    34    29   ar
    40    11     4    1
    41    10     6    1
    42    21    16   ar
    43    14    15    1
