@<TRIPOS>MOLECULE
*****
 21 23 0 0 0
SMALL
GASTEIGER

@<TRIPOS>ATOM
      1 C         -10.0774  -19.5188   21.0932 C.ar    1  UNL1        0.1386
      2 C          -9.3834  -19.6769   22.4136 C.ar    1  UNL1        0.0384
      3 C          -7.8856  -19.7313   22.4719 C.ar    1  UNL1        0.0207
      4 C          -7.0816  -19.6277   21.2099 C.ar    1  UNL1        0.0657
      5 C          -7.7755  -19.4696   19.8894 C.ar    1  UNL1        0.0207
      6 C          -9.2734  -19.4152   19.8311 C.ar    1  UNL1        0.0384
      7 N          -5.5838  -19.6821   21.2682 N.ar    1  UNL1       -0.2864
      8 C          -4.7227  -19.1158   22.3581 C.ar    1  UNL1        0.1022
      9 C          -3.2906  -19.3961   22.0103 C.ar    1  UNL1        0.1196
     10 N          -3.2667  -20.1357   20.7054 N.ar    1  UNL1       -0.2220
     11 C          -4.6839  -20.3124   20.2468 C.ar    1  UNL1        0.1828
     12 O         -11.5752  -19.4644   21.0349 O.3     1  UNL1       -0.4755
     13 C         -12.2818  -18.1445   21.1268 C.3     1  UNL1        0.2057
     14 C         -12.4269  -17.4624   22.4549 C.3     1  UNL1        0.0521
     15 C         -11.6908  -16.1838   22.7258 C.3     1  UNL1        0.0318
     16 C          -8.1219  -16.3531   24.4533 C.ar    1  UNL1        0.0204
     17 C          -7.2228  -16.2295   23.2590 C.ar    1  UNL1        0.0989
     18 N          -7.8130  -16.0907   21.8870 N.ar    1  UNL1       -0.2426
     19 C          -9.3023  -16.0755   21.7093 C.ar    1  UNL1        0.0946
     20 C         -10.2014  -16.1990   22.9035 C.ar    1  UNL1       -0.0029
     21 C          -9.6112  -16.3378   24.2755 C.ar    1  UNL1       -0.0011
@<TRIPOS>BOND
     1    16    17   ar
     2    17    18   ar
     3    18    19   ar
     4    19    20   ar
     5    20    15    1
     6    15    14    1
     7    14    13    1
     8    13    12    1
     9    12     1    1
    10     1     2   ar
    11     2     3   ar
    12     3     4   ar
    13     4     7    1
    14     7     8   ar
    15     8     9   ar
    16     9    10   ar
    17    10    11   ar
    18     4     5   ar
    19     5     6   ar
    20    20    21   ar
    21    21    16   ar
    22     6     1   ar
    23    11     7   ar
@<TRIPOS>MOLECULE
*****
 21 23 0 0 0
SMALL
GASTEIGER

@<TRIPOS>ATOM
      1 C          -8.7365  -19.3804   20.6346 C.ar    1  UNL1        0.1386
      2 C          -8.2093  -19.2142   22.0291 C.ar    1  UNL1        0.0384
      3 C          -6.7300  -19.1491   22.2688 C.ar    1  UNL1        0.0207
      4 C          -5.7779  -19.2501   21.1141 C.ar    1  UNL1        0.0657
      5 C          -6.3051  -19.4163   19.7197 C.ar    1  UNL1        0.0207
      6 C          -7.7844  -19.4815   19.4799 C.ar    1  UNL1        0.0384
      7 N          -4.2987  -19.1850   21.3539 N.ar    1  UNL1       -0.2864
      8 C          -3.6038  -18.2945   22.3408 C.ar    1  UNL1        0.1022
      9 C          -2.1301  -18.5581   22.2457 C.ar    1  UNL1        0.1196
     10 N          -1.9143  -19.6116   21.1998 N.ar    1  UNL1       -0.2220
     11 C          -3.2545  -19.9990   20.6487 C.ar    1  UNL1        0.1828
     12 O         -10.2158  -19.4455   20.3949 O.3     1  UNL1       -0.4755
     13 C         -10.8949  -18.3694   19.6008 C.3     1  UNL1        0.2057
     14 C         -11.4827  -17.1793   20.2996 C.3     1  UNL1        0.0521
     15 C         -12.1708  -17.3500   21.6214 C.3     1  UNL1        0.0318
     16 C         -10.7789  -19.2530   24.8138 C.ar    1  UNL1        0.0204
     17 C          -9.7621  -18.2681   25.3099 C.ar    1  UNL1        0.0989
     18 N          -9.5481  -16.9772   24.5765 N.ar    1  UNL1       -0.2426
     19 C         -10.3510  -16.6712   23.3471 C.ar    1  UNL1        0.0946
     20 C         -11.3678  -17.6560   22.8510 C.ar    1  UNL1       -0.0029
     21 C         -11.5818  -18.9469   23.5843 C.ar    1  UNL1       -0.0011
@<TRIPOS>BOND
     1    16    17   ar
     2    17    18   ar
     3    18    19   ar
     4    19    20   ar
     5    20    15    1
     6    15    14    1
     7    14    13    1
     8    13    12    1
     9    12     1    1
    10     1     2   ar
    11     2     3   ar
    12     3     4   ar
    13     4     7    1
    14     7     8   ar
    15     8     9   ar
    16     9    10   ar
    17    10    11   ar
    18     4     5   ar
    19     5     6   ar
    20    20    21   ar
    21    21    16   ar
    22     6     1   ar
    23    11     7   ar
@<TRIPOS>MOLECULE
*****
 21 23 0 0 0
SMALL
GASTEIGER

@<TRIPOS>ATOM
      1 C         -10.5213  -16.8315   21.8088 C.ar    1  UNL1        0.1386
      2 C         -10.7116  -17.3299   23.2108 C.ar    1  UNL1        0.0384
      3 C          -9.6983  -17.0025   24.2672 C.ar    1  UNL1        0.0207
      4 C          -8.4946  -16.1767   23.9216 C.ar    1  UNL1        0.0657
      5 C          -8.3043  -15.6784   22.5197 C.ar    1  UNL1        0.0207
      6 C          -9.3177  -16.0058   21.4633 C.ar    1  UNL1        0.0384
      7 N          -7.4813  -15.8493   24.9780 N.ar    1  UNL1       -0.2864
      8 C          -6.0106  -15.6523   24.7582 C.ar    1  UNL1        0.1022
      9 C          -5.3811  -15.3426   26.0841 C.ar    1  UNL1        0.1196
     10 N          -6.4628  -15.3482   27.1233 N.ar    1  UNL1       -0.2220
     11 C          -7.7608  -15.6613   26.4398 C.ar    1  UNL1        0.1828
     12 O         -11.5346  -17.1590   20.7525 O.3     1  UNL1       -0.4755
     13 C         -11.2326  -18.2070   19.7227 C.3     1  UNL1        0.2057
     14 C         -10.3782  -19.3866   20.0813 C.3     1  UNL1        0.0521
     15 C          -9.0155  -19.5382   19.4732 C.3     1  UNL1        0.0318
     16 C          -6.6748  -19.1784   22.6579 C.ar    1  UNL1        0.0204
     17 C          -5.3432  -18.9494   22.0065 C.ar    1  UNL1        0.0989
     18 N          -5.2356  -18.9167   20.5107 N.ar    1  UNL1       -0.2426
     19 C          -6.4597  -19.1130   19.6663 C.ar    1  UNL1        0.0946
     20 C          -7.7913  -19.3419   20.3177 C.ar    1  UNL1       -0.0029
     21 C          -7.8989  -19.3746   21.8134 C.ar    1  UNL1       -0.0011
@<TRIPOS>BOND
     1    16    17   ar
     2    17    18   ar
     3    18    19   ar
     4    19    20   ar
     5    20    15    1
     6    15    14    1
     7    14    13    1
     8    13    12    1
     9    12     1    1
    10     1     2   ar
    11     2     3   ar
    12     3     4   ar
    13     4     7    1
    14     7     8   ar
    15     8     9   ar
    16     9    10   ar
    17    10    11   ar
    18     4     5   ar
    19     5     6   ar
    20    20    21   ar
    21    21    16   ar
    22     6     1   ar
    23    11     7   ar
@<TRIPOS>MOLECULE
*****
 21 23 0 0 0
SMALL
GASTEIGER

@<TRIPOS>ATOM
      1 C          -7.8929  -19.2482   20.7906 C.ar    1  UNL1        0.1386
      2 C          -7.8029  -18.8751   22.2407 C.ar    1  UNL1        0.0384
      3 C          -9.0543  -18.6445   23.0348 C.ar    1  UNL1        0.0207
      4 C         -10.3958  -18.7871   22.3790 C.ar    1  UNL1        0.0657
      5 C         -10.4858  -19.1602   20.9289 C.ar    1  UNL1        0.0207
      6 C          -9.2343  -19.3908   20.1347 C.ar    1  UNL1        0.0384
      7 N         -11.6472  -18.5565   23.1731 N.ar    1  UNL1       -0.2864
      8 C         -12.8980  -17.8950   22.6753 C.ar    1  UNL1        0.1022
      9 C         -13.8915  -17.8766   23.7992 C.ar    1  UNL1        0.1196
     10 N         -13.2545  -18.5268   24.9915 N.ar    1  UNL1       -0.2220
     11 C         -11.8675  -18.9470   24.6046 C.ar    1  UNL1        0.1828
     12 O          -6.6415  -19.4788   19.9964 O.3     1  UNL1       -0.4755
     13 C          -5.9308  -20.7969   20.0824 C.3     1  UNL1        0.2057
     14 C          -4.4385  -20.8363   20.2289 C.3     1  UNL1        0.0521
     15 C          -3.5923  -19.7875   19.5703 C.3     1  UNL1        0.0318
     16 C          -1.4510  -16.6261   20.6522 C.ar    1  UNL1        0.0204
     17 C          -2.1072  -16.2711   21.9535 C.ar    1  UNL1        0.0989
     18 N          -3.2585  -17.0882   22.4603 N.ar    1  UNL1       -0.2426
     19 C          -3.7535  -18.2603   21.6660 C.ar    1  UNL1        0.0946
     20 C          -3.0973  -18.6153   20.3647 C.ar    1  UNL1       -0.0029
     21 C          -1.9460  -17.7982   19.8578 C.ar    1  UNL1       -0.0011
@<TRIPOS>BOND
     1    16    17   ar
     2    17    18   ar
     3    18    19   ar
     4    19    20   ar
     5    20    15    1
     6    15    14    1
     7    14    13    1
     8    13    12    1
     9    12     1    1
    10     1     2   ar
    11     2     3   ar
    12     3     4   ar
    13     4     7    1
    14     7     8   ar
    15     8     9   ar
    16     9    10   ar
    17    10    11   ar
    18     4     5   ar
    19     5     6   ar
    20    20    21   ar
    21    21    16   ar
    22     6     1   ar
    23    11     7   ar
@<TRIPOS>MOLECULE
*****
 21 23 0 0 0
SMALL
GASTEIGER

@<TRIPOS>ATOM
      1 C          -7.2628  -15.3693   24.3330 C.ar    1  UNL1        0.1386
      2 C          -8.3761  -16.0240   25.0959 C.ar    1  UNL1        0.0384
      3 C          -9.6079  -16.4867   24.3758 C.ar    1  UNL1        0.0207
      4 C          -9.7265  -16.2946   22.8929 C.ar    1  UNL1        0.0657
      5 C          -8.6133  -15.6399   22.1300 C.ar    1  UNL1        0.0207
      6 C          -7.3814  -15.1772   22.8501 C.ar    1  UNL1        0.0384
      7 N         -10.9583  -16.7572   22.1728 N.ar    1  UNL1       -0.2864
      8 C         -11.9513  -17.7607   22.6797 C.ar    1  UNL1        0.1022
      9 C         -13.0202  -17.9213   21.6395 C.ar    1  UNL1        0.1196
     10 N         -12.6877  -17.0170   20.4898 N.ar    1  UNL1       -0.2220
     11 C         -11.4135  -16.2976   20.8194 C.ar    1  UNL1        0.1828
     12 O          -6.0309  -14.9066   25.0531 O.3     1  UNL1       -0.4755
     13 C          -4.7926  -15.7529   25.0405 C.3     1  UNL1        0.2057
     14 C          -4.3657  -16.4388   23.7766 C.3     1  UNL1        0.0521
     15 C          -3.8850  -17.8590   23.8196 C.3     1  UNL1        0.0318
     16 C          -2.8475  -19.9350   20.6003 C.ar    1  UNL1        0.0204
     17 C          -4.1836  -20.4477   20.1509 C.ar    1  UNL1        0.0989
     18 N          -5.4202  -20.0975   20.9244 N.ar    1  UNL1       -0.2426
     19 C          -5.3206  -19.2346   22.1473 C.ar    1  UNL1        0.0946
     20 C          -3.9845  -18.7219   22.5967 C.ar    1  UNL1       -0.0029
     21 C          -2.7480  -19.0721   21.8232 C.ar    1  UNL1       -0.0011
@<TRIPOS>BOND
     1    16    17   ar
     2    17    18   ar
     3    18    19   ar
     4    19    20   ar
     5    20    15    1
     6    15    14    1
     7    14    13    1
     8    13    12    1
     9    12     1    1
    10     1     2   ar
    11     2     3   ar
    12     3     4   ar
    13     4     7    1
    14     7     8   ar
    15     8     9   ar
    16     9    10   ar
    17    10    11   ar
    18     4     5   ar
    19     5     6   ar
    20    20    21   ar
    21    21    16   ar
    22     6     1   ar
    23    11     7   ar
@<TRIPOS>MOLECULE
*****
 21 23 0 0 0
SMALL
GASTEIGER

@<TRIPOS>ATOM
      1 C         -13.1353   -3.5779   18.3659 C.ar    1  UNL1        0.1386
      2 C         -12.8557   -4.3962   19.5916 C.ar    1  UNL1        0.0384
      3 C         -13.4875   -5.7471   19.7517 C.ar    1  UNL1        0.0207
      4 C         -14.3989   -6.2799   18.6861 C.ar    1  UNL1        0.0657
      5 C         -14.6785   -5.4618   17.4604 C.ar    1  UNL1        0.0207
      6 C         -14.0467   -4.1107   17.3003 C.ar    1  UNL1        0.0384
      7 N         -15.0306   -7.6309   18.8462 N.ar    1  UNL1       -0.2864
      8 C         -16.2811   -7.9337   19.6174 C.ar    1  UNL1        0.1022
      9 C         -16.5461   -9.4064   19.5110 C.ar    1  UNL1        0.1196
     10 N         -15.4595  -10.0137   18.6741 N.ar    1  UNL1       -0.2220
     11 C         -14.5229   -8.9164   18.2632 C.ar    1  UNL1        0.1828
     12 O         -12.5036   -2.2269   18.2058 O.3     1  UNL1       -0.4755
     13 C         -11.0112   -2.1022   18.1210 C.3     1  UNL1        0.2057
     14 C         -10.3115   -2.3404   16.8157 C.3     1  UNL1        0.0521
     15 C          -9.4483   -3.5541   16.6380 C.3     1  UNL1        0.0318
     16 C         -10.1375   -6.9826   18.5144 C.ar    1  UNL1        0.0204
     17 C         -11.0926   -7.6396   17.5626 C.ar    1  UNL1        0.0989
     18 N         -11.4996   -6.9349   16.3025 N.ar    1  UNL1       -0.2426
     19 C         -10.9515   -5.5731   15.9943 C.ar    1  UNL1        0.0946
     20 C          -9.9964   -4.9160   16.9462 C.ar    1  UNL1       -0.0029
     21 C          -9.5894   -5.6207   18.2062 C.ar    1  UNL1       -0.0011
@<TRIPOS>BOND
     1    16    17   ar
     2    17    18   ar
     3    18    19   ar
     4    19    20   ar
     5    20    15    1
     6    15    14    1
     7    14    13    1
     8    13    12    1
     9    12     1    1
    10     1     2   ar
    11     2     3   ar
    12     3     4   ar
    13     4     7    1
    14     7     8   ar
    15     8     9   ar
    16     9    10   ar
    17    10    11   ar
    18     4     5   ar
    19     5     6   ar
    20    20    21   ar
    21    21    16   ar
    22     6     1   ar
    23    11     7   ar
@<TRIPOS>MOLECULE
*****
 21 23 0 0 0
SMALL
GASTEIGER

@<TRIPOS>ATOM
      1 C          -6.6023  -19.9300   21.1291 C.ar    1  UNL1        0.1386
      2 C          -7.2705  -20.0772   22.4641 C.ar    1  UNL1        0.0384
      3 C          -8.6846  -19.6129   22.6502 C.ar    1  UNL1        0.0207
      4 C          -9.4306  -19.0013   21.5016 C.ar    1  UNL1        0.0657
      5 C          -8.7625  -18.8541   20.1667 C.ar    1  UNL1        0.0207
      6 C          -7.3483  -19.3184   19.9804 C.ar    1  UNL1        0.0384
      7 N         -10.8446  -18.5370   21.6877 N.ar    1  UNL1       -0.2864
      8 C         -11.6504  -18.6480   22.9481 C.ar    1  UNL1        0.1022
      9 C         -13.0051  -18.0597   22.6855 C.ar    1  UNL1        0.1196
     10 N         -13.0365  -17.5851   21.2629 N.ar    1  UNL1       -0.2220
     11 C         -11.7014  -17.8801   20.6462 C.ar    1  UNL1        0.1828
     12 O          -5.1882  -20.3943   20.9430 O.3     1  UNL1       -0.4755
     13 C          -4.0499  -19.5405   21.4174 C.3     1  UNL1        0.2057
     14 C          -4.0734  -18.9600   22.8004 C.3     1  UNL1        0.0521
     15 C          -3.9799  -17.4753   22.9922 C.3     1  UNL1        0.0318
     16 C          -5.8548  -15.3066   25.7366 C.ar    1  UNL1        0.0204
     17 C          -7.2451  -15.2784   25.1743 C.ar    1  UNL1        0.0989
     18 N          -7.5471  -15.9825   23.8848 N.ar    1  UNL1       -0.2426
     19 C          -6.4587  -16.7148   23.1574 C.ar    1  UNL1        0.0946
     20 C          -5.0684  -16.7430   23.7196 C.ar    1  UNL1       -0.0029
     21 C          -4.7664  -16.0389   25.0092 C.ar    1  UNL1       -0.0011
@<TRIPOS>BOND
     1    16    17   ar
     2    17    18   ar
     3    18    19   ar
     4    19    20   ar
     5    20    15    1
     6    15    14    1
     7    14    13    1
     8    13    12    1
     9    12     1    1
    10     1     2   ar
    11     2     3   ar
    12     3     4   ar
    13     4     7    1
    14     7     8   ar
    15     8     9   ar
    16     9    10   ar
    17    10    11   ar
    18     4     5   ar
    19     5     6   ar
    20    20    21   ar
    21    21    16   ar
    22     6     1   ar
    23    11     7   ar
@<TRIPOS>MOLECULE
*****
 21 23 0 0 0
SMALL
GASTEIGER

@<TRIPOS>ATOM
      1 C          -7.2237  -20.1038   20.9392 C.ar    1  UNL1        0.1386
      2 C          -7.6057  -20.1117   22.3898 C.ar    1  UNL1        0.0384
      3 C          -8.9474  -19.5929   22.8149 C.ar    1  UNL1        0.0207
      4 C          -9.9071  -19.0662   21.7894 C.ar    1  UNL1        0.0657
      5 C          -9.5252  -19.0582   20.3389 C.ar    1  UNL1        0.0207
      6 C          -8.1835  -19.5771   19.9138 C.ar    1  UNL1        0.0384
      7 N         -11.2488  -18.5473   22.2145 N.ar    1  UNL1       -0.2864
      8 C         -11.7796  -18.5202   23.6172 C.ar    1  UNL1        0.1022
      9 C         -13.1542  -17.9206   23.5812 C.ar    1  UNL1        0.1196
     10 N         -13.4728  -17.5772   22.1562 N.ar    1  UNL1       -0.2220
     11 C         -12.2953  -17.9645   21.3116 C.ar    1  UNL1        0.1828
     12 O          -5.8821  -20.6226   20.5141 O.3     1  UNL1       -0.4755
     13 C          -4.6371  -19.8689   20.8772 C.3     1  UNL1        0.2057
     14 C          -4.3831  -19.4835   22.3045 C.3     1  UNL1        0.0521
     15 C          -3.4496  -18.3529   22.6213 C.3     1  UNL1        0.0318
     16 C          -0.7605  -16.3093   20.5376 C.ar    1  UNL1        0.0204
     17 C          -0.0214  -17.4239   19.8584 C.ar    1  UNL1        0.0989
     18 N          -0.4250  -18.8482   20.1002 N.ar    1  UNL1       -0.2426
     19 C          -1.5677  -19.1579   21.0211 C.ar    1  UNL1        0.0946
     20 C          -2.3068  -18.0433   21.7003 C.ar    1  UNL1       -0.0029
     21 C          -1.9032  -16.6190   21.4586 C.ar    1  UNL1       -0.0011
@<TRIPOS>BOND
     1    16    17   ar
     2    17    18   ar
     3    18    19   ar
     4    19    20   ar
     5    20    15    1
     6    15    14    1
     7    14    13    1
     8    13    12    1
     9    12     1    1
    10     1     2   ar
    11     2     3   ar
    12     3     4   ar
    13     4     7    1
    14     7     8   ar
    15     8     9   ar
    16     9    10   ar
    17    10    11   ar
    18     4     5   ar
    19     5     6   ar
    20    20    21   ar
    21    21    16   ar
    22     6     1   ar
    23    11     7   ar
@<TRIPOS>MOLECULE
*****
 21 23 0 0 0
SMALL
GASTEIGER

@<TRIPOS>ATOM
      1 C         -10.8617   -5.7227   17.2579 C.ar    1  UNL1        0.1386
      2 C         -11.7881   -6.2820   16.2191 C.ar    1  UNL1        0.0384
      3 C         -12.9964   -7.0668   16.6362 C.ar    1  UNL1        0.0207
      4 C         -13.2784   -7.2924   18.0921 C.ar    1  UNL1        0.0657
      5 C         -12.3520   -6.7331   19.1309 C.ar    1  UNL1        0.0207
      6 C         -11.1436   -5.9483   18.7138 C.ar    1  UNL1        0.0384
      7 N         -14.4866   -8.0772   18.5093 N.ar    1  UNL1       -0.2864
      8 C         -15.6032   -7.5809   19.3794 C.ar    1  UNL1        0.1022
      9 C         -16.5972   -8.6931   19.5375 C.ar    1  UNL1        0.1196
     10 N         -16.0950   -9.8768   18.7650 N.ar    1  UNL1       -0.2220
     11 C         -14.7907   -9.4962   18.1295 C.ar    1  UNL1        0.1828
     12 O          -9.6534   -4.9379   16.8407 O.3     1  UNL1       -0.4755
     13 C          -9.7851   -3.4832   16.4994 C.3     1  UNL1        0.2057
     14 C         -10.5513   -2.5664   17.4063 C.3     1  UNL1        0.0521
     15 C         -12.0215   -2.3581   17.1940 C.3     1  UNL1        0.0318
     16 C         -13.7232   -3.2278   20.6722 C.ar    1  UNL1        0.0204
     17 C         -14.9737   -3.9164   20.2117 C.ar    1  UNL1        0.0989
     18 N         -15.2401   -4.0856   18.7453 N.ar    1  UNL1       -0.2426
     19 C         -14.2561   -3.5662   17.7394 C.ar    1  UNL1        0.0946
     20 C         -13.0056   -2.8776   18.1999 C.ar    1  UNL1       -0.0029
     21 C         -12.7392   -2.7084   19.6664 C.ar    1  UNL1       -0.0011
@<TRIPOS>BOND
     1    16    17   ar
     2    17    18   ar
     3    18    19   ar
     4    19    20   ar
     5    20    15    1
     6    15    14    1
     7    14    13    1
     8    13    12    1
     9    12     1    1
    10     1     2   ar
    11     2     3   ar
    12     3     4   ar
    13     4     7    1
    14     7     8   ar
    15     8     9   ar
    16     9    10   ar
    17    10    11   ar
    18     4     5   ar
    19     5     6   ar
    20    20    21   ar
    21    21    16   ar
    22     6     1   ar
    23    11     7   ar
