@<TRIPOS>MOLECULE
*****
 35 39 0 0 0
SMALL
GASTEIGER

@<TRIPOS>ATOM
      1 C           0.4119    2.1569   28.5671 C.3     1  UNL1        0.0744
      2 C           1.3653    3.3030   28.4021 C.3     1  UNL1        0.0121
      3 C          -0.1281    2.4080   27.1903 C.ar    1  UNL1       -0.0159
      4 C           0.5391    1.7882   25.9984 C.ar    1  UNL1       -0.0039
      5 C          -0.0009    2.0393   24.6217 C.ar    1  UNL1       -0.0002
      6 C          -1.2080    2.9103   24.4369 C.ar    1  UNL1        0.0030
      7 C          -1.8752    3.5302   25.6288 C.ar    1  UNL1       -0.0002
      8 C          -1.3352    3.2790   27.0055 C.ar    1  UNL1       -0.0039
      9 C          -1.7480    3.1615   23.0602 C.ar    1  UNL1        0.0384
     10 C          -3.1474    3.6722   22.8850 C.ar    1  UNL1        0.1033
     11 N          -3.6874    3.9234   21.5083 N.ar    1  UNL1       -0.2125
     12 C          -2.8279    3.6637   20.3067 C.ar    1  UNL1        0.2137
     13 N          -3.3678    3.9148   18.9299 N.pl3   1  UNL1       -0.3274
     14 N          -1.4284    3.1529   20.4818 N.ar    1  UNL1       -0.2125
     15 C          -0.8885    2.9018   21.8586 C.ar    1  UNL1        0.1033
     16 H          -4.2863    4.2501   18.8150 H       1  UNL1        0.1452
     17 H          -2.8037    3.7444   18.1413 H       1  UNL1        0.1452
     18 C           1.5734    2.2089   32.2702 C.ar    1  UNL1        0.2628
     19 N           0.9303    2.8738   31.0894 N.ar    1  UNL1       -0.1907
     20 C           0.9519    1.9058   29.9438 C.ar    1  UNL1        0.1837
     21 N           1.6082    0.6426   30.4166 N.ar    1  UNL1       -0.0599
     22 O           1.9923    0.8299   31.8544 O.2     1  UNL1       -0.3326
     23 N           2.3762    3.1159   35.9578 N.ar    1  UNL1       -0.2478
     24 C           2.3920    2.1456   34.8140 C.ar    1  UNL1        0.1014
     25 C           1.7640    2.8164   33.6284 C.ar    1  UNL1        0.0956
     26 C           1.3599    4.2011   34.0395 C.ar    1  UNL1        0.1264
     27 N           1.7383    4.3863   35.4791 N.ar    1  UNL1       -0.1675
     28 C           2.9054    2.8606   37.3380 C.3     1  UNL1        0.1448
     29 C           2.6564    1.5399   38.0043 C.3     1  UNL1        0.0988
     30 C           0.4787    2.4837   39.0612 C.3     1  UNL1        0.0897
     31 N           1.4399    1.3496   38.8609 N.3     1  UNL1       -0.2686
     32 C           1.1845    0.0252   39.5172 C.3     1  UNL1        0.0897
     33 C          -0.5415    1.0107   28.7320 C.3     1  UNL1        0.0106
     34 C          -0.9567   -0.3918   28.3995 C.3     1  UNL1        0.0008
     35 C          -1.7778    0.4280   29.3502 C.3     1  UNL1        0.0008
@<TRIPOS>BOND
     1    30    31    1
     2    31    32    1
     3    31    29    1
     4    29    28    1
     5    28    23    1
     6    23    24   ar
     7    24    25   ar
     8    25    18    1
     9    18    19   ar
    10    19    20   ar
    11    20     1    1
    12     1     2    1
    13     1     3    1
    14     3     4   ar
    15     4     5   ar
    16     5     6   ar
    17     6     9    1
    18     9    10   ar
    19    10    11   ar
    20    11    12   ar
    21    12    13    1
    22    12    14   ar
    23    14    15   ar
    24     6     7   ar
    25     7     8   ar
    26     1    33    1
    27    33    34    1
    28    34    35    1
    29    20    21   ar
    30    21    22   ar
    31    25    26   ar
    32    26    27   ar
    33    27    23   ar
    34    22    18   ar
    35     8     3   ar
    36    35    33    1
    37    15     9   ar
    38    13    16    1
    39    13    17    1
@<TRIPOS>MOLECULE
*****
 35 39 0 0 0
SMALL
GASTEIGER

@<TRIPOS>ATOM
      1 C           0.7748    1.4445   28.5262 C.3     1  UNL1        0.0744
      2 C           1.9857    2.2743   28.2177 C.3     1  UNL1        0.0121
      3 C           0.1053    1.9610   27.2871 C.ar    1  UNL1       -0.0159
      4 C           0.4642    1.3902   25.9473 C.ar    1  UNL1       -0.0039
      5 C          -0.2053    1.9067   24.7083 C.ar    1  UNL1       -0.0002
      6 C          -1.2336    2.9941   24.8093 C.ar    1  UNL1        0.0030
      7 C          -1.5925    3.5649   26.1492 C.ar    1  UNL1       -0.0002
      8 C          -0.9230    3.0483   27.3881 C.ar    1  UNL1       -0.0039
      9 C          -1.9031    3.5106   23.5703 C.ar    1  UNL1        0.0384
     10 C          -1.1374    3.5938   22.2832 C.ar    1  UNL1        0.1033
     11 N          -1.8068    4.1103   21.0442 N.ar    1  UNL1       -0.2125
     12 C          -3.2421    4.5436   21.0924 C.ar    1  UNL1        0.2137
     13 N          -3.9116    5.0601   19.8535 N.pl3   1  UNL1       -0.3274
     14 N          -4.0078    4.4604   22.3796 N.ar    1  UNL1       -0.2125
     15 C          -3.3383    3.9439   23.6185 C.ar    1  UNL1        0.1033
     16 H          -3.4090    5.1147   19.0087 H       1  UNL1        0.1452
     17 H          -4.8536    5.3445   19.8851 H       1  UNL1        0.1452
     18 C           2.4676    0.8242   31.9634 C.ar    1  UNL1        0.2628
     19 N           1.8266    1.7423   30.9654 N.ar    1  UNL1       -0.1907
     20 C           1.4443    0.9280   29.7651 C.ar    1  UNL1        0.1837
     21 N           1.8491   -0.4935   30.0213 N.ar    1  UNL1       -0.0599
     22 O           2.4815   -0.5577   31.3799 O.2     1  UNL1       -0.3326
     23 N           3.2774    2.3368   35.4450 N.ar    1  UNL1       -0.2478
     24 C           2.4334    2.2778   34.2064 C.ar    1  UNL1        0.1014
     25 C           3.0011    1.2185   33.3087 C.ar    1  UNL1        0.0956
     26 C           4.1959    0.6230   33.9926 C.ar    1  UNL1        0.1264
     27 N           4.3667    1.3140   35.3129 N.ar    1  UNL1       -0.1675
     28 C           3.0687    3.2570   36.6111 C.3     1  UNL1        0.1448
     29 C           1.7643    3.2456   37.3515 C.3     1  UNL1        0.0988
     30 C           0.3583    2.3826   39.3587 C.3     1  UNL1        0.0897
     31 N           1.5175    2.2224   38.4202 N.3     1  UNL1       -0.2686
     32 C           2.4299    1.0389   38.5505 C.3     1  UNL1        0.0897
     33 C          -0.4361    0.6147   28.8346 C.3     1  UNL1        0.0106
     34 C          -1.2739   -0.6040   28.5840 C.3     1  UNL1        0.0008
     35 C          -1.6956    0.3962   29.6194 C.3     1  UNL1        0.0008
@<TRIPOS>BOND
     1    30    31    1
     2    31    32    1
     3    31    29    1
     4    29    28    1
     5    28    23    1
     6    23    24   ar
     7    24    25   ar
     8    25    18    1
     9    18    19   ar
    10    19    20   ar
    11    20     1    1
    12     1     2    1
    13     1     3    1
    14     3     4   ar
    15     4     5   ar
    16     5     6   ar
    17     6     9    1
    18     9    10   ar
    19    10    11   ar
    20    11    12   ar
    21    12    13    1
    22    12    14   ar
    23    14    15   ar
    24     6     7   ar
    25     7     8   ar
    26     1    33    1
    27    33    34    1
    28    34    35    1
    29    20    21   ar
    30    21    22   ar
    31    25    26   ar
    32    26    27   ar
    33    27    23   ar
    34    22    18   ar
    35     8     3   ar
    36    35    33    1
    37    15     9   ar
    38    13    16    1
    39    13    17    1
@<TRIPOS>MOLECULE
*****
 35 39 0 0 0
SMALL
GASTEIGER

@<TRIPOS>ATOM
      1 C           5.3526   -2.8142   21.2184 C.3     1  UNL1        0.0744
      2 C           5.9995   -1.8262   22.1433 C.3     1  UNL1        0.0121
      3 C           4.3185   -1.7920   20.8498 C.ar    1  UNL1       -0.0159
      4 C           3.2163   -1.4597   21.8114 C.ar    1  UNL1       -0.0039
      5 C           2.1823   -0.4375   21.4427 C.ar    1  UNL1       -0.0002
      6 C           2.2504    0.2522   20.1125 C.ar    1  UNL1        0.0030
      7 C           3.3526   -0.0801   19.1509 C.ar    1  UNL1       -0.0002
      8 C           4.3866   -1.1023   19.5196 C.ar    1  UNL1       -0.0039
      9 C           1.2163    1.2744   19.7438 C.ar    1  UNL1        0.0384
     10 C           0.1809    1.6892   20.7467 C.ar    1  UNL1        0.1033
     11 N          -0.8532    2.7114   20.3781 N.ar    1  UNL1       -0.2125
     12 C          -0.8518    3.3188   19.0065 C.ar    1  UNL1        0.2137
     13 N          -1.8858    4.3409   18.6379 N.pl3   1  UNL1       -0.3274
     14 N           0.1837    2.9039   18.0036 N.ar    1  UNL1       -0.2125
     15 C           1.2177    1.8818   18.3723 C.ar    1  UNL1        0.1033
     16 H          -2.5654    4.6132   19.2961 H       1  UNL1        0.1452
     17 H          -1.8849    4.7395   17.7377 H       1  UNL1        0.1452
     18 C           7.6939   -5.4466   22.8476 C.ar    1  UNL1        0.2628
     19 N           6.5349   -4.4975   22.9253 N.ar    1  UNL1       -0.1907
     20 C           6.3867   -3.8363   21.5871 C.ar    1  UNL1        0.1837
     21 N           7.4541   -4.3767   20.6823 N.ar    1  UNL1       -0.0599
     22 O           8.2620   -5.3719   21.4613 O.2     1  UNL1       -0.3326
     23 N           8.4816   -7.3378   26.1443 N.ar    1  UNL1       -0.2478
     24 C           7.7015   -6.3121   25.3766 C.ar    1  UNL1        0.1014
     25 C           8.1966   -6.3174   23.9607 C.ar    1  UNL1        0.0956
     26 C           9.2827   -7.3463   23.8533 C.ar    1  UNL1        0.1264
     27 N           9.4589   -7.9770   25.2028 N.ar    1  UNL1       -0.1675
     28 C           8.3138   -7.6666   27.5982 C.3     1  UNL1        0.1448
     29 C           8.5539   -6.6126   28.6381 C.3     1  UNL1        0.0988
     30 C           7.3096   -5.8467   30.7864 C.3     1  UNL1        0.0897
     31 N           7.3918   -5.9244   29.2906 N.3     1  UNL1       -0.2686
     32 C           6.3119   -5.3138   28.4474 C.3     1  UNL1        0.0897
     33 C           4.7057   -3.8023   20.2936 C.3     1  UNL1        0.0106
     34 C           4.6691   -4.5161   18.9749 C.3     1  UNL1        0.0008
     35 C           3.6218   -4.7998   20.0106 C.3     1  UNL1        0.0008
@<TRIPOS>BOND
     1    30    31    1
     2    31    32    1
     3    31    29    1
     4    29    28    1
     5    28    23    1
     6    23    24   ar
     7    24    25   ar
     8    25    18    1
     9    18    19   ar
    10    19    20   ar
    11    20     1    1
    12     1     2    1
    13     1     3    1
    14     3     4   ar
    15     4     5   ar
    16     5     6   ar
    17     6     9    1
    18     9    10   ar
    19    10    11   ar
    20    11    12   ar
    21    12    13    1
    22    12    14   ar
    23    14    15   ar
    24     6     7   ar
    25     7     8   ar
    26     1    33    1
    27    33    34    1
    28    34    35    1
    29    20    21   ar
    30    21    22   ar
    31    25    26   ar
    32    26    27   ar
    33    27    23   ar
    34    22    18   ar
    35     8     3   ar
    36    35    33    1
    37    15     9   ar
    38    13    16    1
    39    13    17    1
@<TRIPOS>MOLECULE
*****
 35 39 0 0 0
SMALL
GASTEIGER

@<TRIPOS>ATOM
      1 C           0.4756    1.9472   28.5866 C.3     1  UNL1        0.0744
      2 C           1.4944    3.0351   28.4176 C.3     1  UNL1        0.0121
      3 C          -0.1285    2.3072   27.2616 C.ar    1  UNL1       -0.0159
      4 C           0.4258    1.7163   25.9992 C.ar    1  UNL1       -0.0039
      5 C          -0.1783    2.0763   24.6743 C.ar    1  UNL1       -0.0002
      6 C          -1.3367    3.0272   24.6118 C.ar    1  UNL1        0.0030
      7 C          -1.8911    3.6180   25.8741 C.ar    1  UNL1       -0.0002
      8 C          -1.2869    3.2581   27.1990 C.ar    1  UNL1       -0.0039
      9 C          -1.9409    3.3871   23.2868 C.ar    1  UNL1        0.0384
     10 C          -1.1130    3.3071   22.0385 C.ar    1  UNL1        0.1033
     11 N          -1.7171    3.6671   20.7135 N.ar    1  UNL1       -0.2125
     12 C          -3.1491    4.1071   20.6369 C.ar    1  UNL1        0.2137
     13 N          -3.7532    4.4670   19.3120 N.pl3   1  UNL1       -0.3274
     14 N          -3.9770    4.1870   21.8852 N.ar    1  UNL1       -0.2125
     15 C          -3.3728    3.8271   23.2101 C.ar    1  UNL1        0.1033
     16 H          -3.2099    4.4145   18.4926 H       1  UNL1        0.1452
     17 H          -4.6931    4.7558   19.2617 H       1  UNL1        0.1452
     18 C           2.4754    0.5557   31.6081 C.ar    1  UNL1        0.2628
     19 N           2.1888    0.6028   30.1365 N.ar    1  UNL1       -0.1907
     20 C           1.0797    1.5873   29.9115 C.ar    1  UNL1        0.1837
     21 N           0.6808    2.1487   31.2441 N.ar    1  UNL1       -0.0599
     22 O           1.5434    1.5112   32.2926 O.2     1  UNL1       -0.3326
     23 N           5.2177   -1.9795   32.6651 N.ar    1  UNL1       -0.2478
     24 C           4.3002   -1.3973   31.6311 C.ar    1  UNL1        0.1014
     25 C           3.5120   -0.2970   32.2776 C.ar    1  UNL1        0.0956
     26 C           3.9423   -0.1992   33.7112 C.ar    1  UNL1        0.1264
     27 N           4.9965   -1.2390   33.9508 N.ar    1  UNL1       -0.1675
     28 C           6.1864   -3.1047   32.4512 C.3     1  UNL1        0.1448
     29 C           6.7826   -3.3332   31.0939 C.3     1  UNL1        0.0988
     30 C           6.5705   -4.9560   29.0760 C.3     1  UNL1        0.0897
     31 N           6.8541   -4.7214   30.5302 N.3     1  UNL1       -0.2686
     32 C           7.2093   -5.8751   31.4207 C.3     1  UNL1        0.0897
     33 C          -0.5432    0.8594   28.7556 C.3     1  UNL1        0.0106
     34 C          -1.8227    0.3601   29.3585 C.3     1  UNL1        0.0008
     35 C          -1.0282   -0.5257   28.4453 C.3     1  UNL1        0.0008
@<TRIPOS>BOND
     1    30    31    1
     2    31    32    1
     3    31    29    1
     4    29    28    1
     5    28    23    1
     6    23    24   ar
     7    24    25   ar
     8    25    18    1
     9    18    19   ar
    10    19    20   ar
    11    20     1    1
    12     1     2    1
    13     1     3    1
    14     3     4   ar
    15     4     5   ar
    16     5     6   ar
    17     6     9    1
    18     9    10   ar
    19    10    11   ar
    20    11    12   ar
    21    12    13    1
    22    12    14   ar
    23    14    15   ar
    24     6     7   ar
    25     7     8   ar
    26     1    33    1
    27    33    34    1
    28    34    35    1
    29    20    21   ar
    30    21    22   ar
    31    25    26   ar
    32    26    27   ar
    33    27    23   ar
    34    22    18   ar
    35     8     3   ar
    36    35    33    1
    37    15     9   ar
    38    13    16    1
    39    13    17    1
@<TRIPOS>MOLECULE
*****
 35 39 0 0 0
SMALL
GASTEIGER

@<TRIPOS>ATOM
      1 C           0.1972    2.0418   28.3587 C.3     1  UNL1        0.0744
      2 C           1.1023    3.2044   28.0777 C.3     1  UNL1        0.0121
      3 C           0.9987    1.7138   29.5835 C.ar    1  UNL1       -0.0159
      4 C           0.7060    2.4093   30.8798 C.ar    1  UNL1       -0.0039
      5 C           1.5075    2.0813   32.1045 C.ar    1  UNL1       -0.0002
      6 C           2.6018    1.0578   32.0329 C.ar    1  UNL1        0.0030
      7 C           2.8945    0.3623   30.7365 C.ar    1  UNL1       -0.0002
      8 C           2.0930    0.6903   29.5118 C.ar    1  UNL1       -0.0039
      9 C           3.4033    0.7298   33.2576 C.ar    1  UNL1        0.0384
     10 C           4.0829   -0.6022   33.3748 C.ar    1  UNL1        0.1033
     11 N           4.8844   -0.9302   34.5995 N.ar    1  UNL1       -0.2125
     12 C           5.0064    0.0739   35.7072 C.ar    1  UNL1        0.2137
     13 N           5.8079   -0.2540   36.9319 N.pl3   1  UNL1       -0.3274
     14 N           4.3268    1.4061   35.5900 N.ar    1  UNL1       -0.2125
     15 C           3.5253    1.7340   34.3653 C.ar    1  UNL1        0.1033
     16 H           6.2539   -1.1283   37.0088 H       1  UNL1        0.1452
     17 H           5.8879    0.4051   37.6588 H       1  UNL1        0.1452
     18 C          -2.4093    3.0945   25.6823 C.ar    1  UNL1        0.2628
     19 N          -2.0002    2.9185   27.1146 N.ar    1  UNL1       -0.1907
     20 C          -0.6043    2.3698   27.1340 C.ar    1  UNL1        0.1837
     21 N          -0.1507    2.2067   25.7135 N.ar    1  UNL1       -0.0599
     22 O          -1.2662    2.6546   24.8163 O.2     1  UNL1       -0.3326
     23 N          -5.5916    4.2103   23.7606 N.ar    1  UNL1       -0.2478
     24 C          -4.2310    3.5795   23.7872 C.ar    1  UNL1        0.1014
     25 C          -3.7296    3.6185   25.2004 C.ar    1  UNL1        0.0956
     26 C          -4.7804    4.2735   26.0471 C.ar    1  UNL1        0.1264
     27 N          -5.9311    4.6393   25.1573 N.ar    1  UNL1       -0.1675
     28 C          -6.4603    4.3821   22.5497 C.3     1  UNL1        0.1448
     29 C          -5.9210    4.0590   21.1879 C.3     1  UNL1        0.0988
     30 C          -7.5251    5.6722   19.9330 C.3     1  UNL1        0.0897
     31 N          -6.7143    4.4105   19.9643 N.3     1  UNL1       -0.2686
     32 C          -6.6969    3.5004   18.7721 C.3     1  UNL1        0.0897
     33 C          -0.7080    0.8792   28.6397 C.3     1  UNL1        0.0106
     34 C          -1.8434    0.2734   29.4103 C.3     1  UNL1        0.0008
     35 C          -1.1404   -0.5288   28.3557 C.3     1  UNL1        0.0008
@<TRIPOS>BOND
     1    30    31    1
     2    31    32    1
     3    31    29    1
     4    29    28    1
     5    28    23    1
     6    23    24   ar
     7    24    25   ar
     8    25    18    1
     9    18    19   ar
    10    19    20   ar
    11    20     1    1
    12     1     2    1
    13     1     3    1
    14     3     4   ar
    15     4     5   ar
    16     5     6   ar
    17     6     9    1
    18     9    10   ar
    19    10    11   ar
    20    11    12   ar
    21    12    13    1
    22    12    14   ar
    23    14    15   ar
    24     6     7   ar
    25     7     8   ar
    26     1    33    1
    27    33    34    1
    28    34    35    1
    29    20    21   ar
    30    21    22   ar
    31    25    26   ar
    32    26    27   ar
    33    27    23   ar
    34    22    18   ar
    35     8     3   ar
    36    35    33    1
    37    15     9   ar
    38    13    16    1
    39    13    17    1
@<TRIPOS>MOLECULE
*****
 35 39 0 0 0
SMALL
GASTEIGER

@<TRIPOS>ATOM
      1 C           0.4573    1.9806   28.6949 C.3     1  UNL1        0.0744
      2 C           1.4228    3.1213   28.5668 C.3     1  UNL1        0.0121
      3 C          -0.0879    2.2891   27.3319 C.ar    1  UNL1       -0.0159
      4 C          -1.2020    3.2814   27.1768 C.ar    1  UNL1       -0.0039
      5 C          -1.7472    3.5898   25.8139 C.ar    1  UNL1       -0.0002
      6 C          -1.1783    2.9060   24.6061 C.ar    1  UNL1        0.0030
      7 C          -0.0642    1.9136   24.7612 C.ar    1  UNL1       -0.0002
      8 C           0.4810    1.6052   26.1241 C.ar    1  UNL1       -0.0039
      9 C          -1.7235    3.2145   23.2431 C.ar    1  UNL1        0.0384
     10 C          -0.8860    2.9600   22.0250 C.ar    1  UNL1        0.1033
     11 N          -1.4312    3.2685   20.6621 N.ar    1  UNL1       -0.2125
     12 C          -2.8140    3.8315   20.5173 C.ar    1  UNL1        0.2137
     13 N          -3.3593    4.1400   19.1544 N.pl3   1  UNL1       -0.3274
     14 N          -3.6516    4.0859   21.7354 N.ar    1  UNL1       -0.2125
     15 C          -3.1063    3.7774   23.0983 C.ar    1  UNL1        0.1033
     16 H          -2.8096    3.9730   18.3549 H       1  UNL1        0.1452
     17 H          -4.2669    4.5094   19.0594 H       1  UNL1        0.1452
     18 C           2.4144    0.8278   31.8423 C.ar    1  UNL1        0.2628
     19 N           2.2498    0.8928   30.3528 N.ar    1  UNL1       -0.1907
     20 C           1.0026    1.6721   30.0578 C.ar    1  UNL1        0.1837
     21 N           0.3963    2.0888   31.3650 N.ar    1  UNL1       -0.0599
     22 O           1.2689    1.5671   32.4679 O.2     1  UNL1       -0.3326
     23 N           5.3288   -0.3035   34.1426 N.ar    1  UNL1       -0.2478
     24 C           4.3214    0.7211   33.7123 C.ar    1  UNL1        0.1014
     25 C           3.5289    0.1438   32.5772 C.ar    1  UNL1        0.0956
     26 C           4.0465   -1.2377   32.3060 C.ar    1  UNL1        0.1264
     27 N           5.1589   -1.5142   33.2735 N.ar    1  UNL1       -0.1675
     28 C           6.3304   -0.1453   35.2481 C.3     1  UNL1        0.1448
     29 C           5.8810   -0.1855   36.6786 C.3     1  UNL1        0.0988
     30 C           3.7421    0.9233   37.6511 C.3     1  UNL1        0.0897
     31 N           5.1940    1.0033   37.2825 N.3     1  UNL1       -0.2686
     32 C           5.9587    2.2721   37.5178 C.3     1  UNL1        0.0897
     33 C          -0.5082    0.8398   28.8230 C.3     1  UNL1        0.0106
     34 C          -1.8557    0.3173   29.2243 C.3     1  UNL1        0.0008
     35 C          -0.8330   -0.6136   28.6435 C.3     1  UNL1        0.0008
@<TRIPOS>BOND
     1    30    31    1
     2    31    32    1
     3    31    29    1
     4    29    28    1
     5    28    23    1
     6    23    24   ar
     7    24    25   ar
     8    25    18    1
     9    18    19   ar
    10    19    20   ar
    11    20     1    1
    12     1     2    1
    13     1     3    1
    14     3     4   ar
    15     4     5   ar
    16     5     6   ar
    17     6     9    1
    18     9    10   ar
    19    10    11   ar
    20    11    12   ar
    21    12    13    1
    22    12    14   ar
    23    14    15   ar
    24     6     7   ar
    25     7     8   ar
    26     1    33    1
    27    33    34    1
    28    34    35    1
    29    20    21   ar
    30    21    22   ar
    31    25    26   ar
    32    26    27   ar
    33    27    23   ar
    34    22    18   ar
    35     8     3   ar
    36    35    33    1
    37    15     9   ar
    38    13    16    1
    39    13    17    1
@<TRIPOS>MOLECULE
*****
 35 39 0 0 0
SMALL
GASTEIGER

@<TRIPOS>ATOM
      1 C           1.8592    1.8230   28.2061 C.3     1  UNL1        0.0744
      2 C           3.1020    2.6531   28.0790 C.3     1  UNL1        0.0121
      3 C           2.2103    1.1032   26.9377 C.ar    1  UNL1       -0.0159
      4 C           1.6013    1.5355   25.6369 C.ar    1  UNL1       -0.0039
      5 C           1.9524    0.8157   24.3686 C.ar    1  UNL1       -0.0002
      6 C           2.9125   -0.3363   24.4011 C.ar    1  UNL1        0.0030
      7 C           3.5215   -0.7686   25.7020 C.ar    1  UNL1       -0.0002
      8 C           3.1704   -0.0488   26.9703 C.ar    1  UNL1       -0.0039
      9 C           3.2636   -1.0561   23.1328 C.ar    1  UNL1        0.0384
     10 C           4.2428   -2.1920   23.1614 C.ar    1  UNL1        0.1033
     11 N           4.5939   -2.9118   21.8930 N.ar    1  UNL1       -0.2125
     12 C           3.9657   -2.4956   20.5960 C.ar    1  UNL1        0.2137
     13 N           4.3168   -3.2153   19.3277 N.pl3   1  UNL1       -0.3274
     14 N           2.9865   -1.3597   20.5674 N.ar    1  UNL1       -0.2125
     15 C           2.6354   -0.6400   21.8358 C.ar    1  UNL1        0.1033
     16 H           4.9595   -3.9609   19.3465 H       1  UNL1        0.1452
     17 H           3.9045   -2.9422   18.4764 H       1  UNL1        0.1452
     18 C           1.4101    3.1842   31.8131 C.ar    1  UNL1        0.2628
     19 N           2.0172    2.2116   30.8459 N.ar    1  UNL1       -0.1907
     20 C           1.5081    2.5428   29.4744 C.ar    1  UNL1        0.1837
     21 N           0.5864    3.7202   29.5939 N.ar    1  UNL1       -0.0599
     22 O           0.5258    4.1166   31.0392 O.2     1  UNL1       -0.3326
     23 N           2.3657    2.6130   35.5314 N.ar    1  UNL1       -0.2478
     24 C           2.3621    2.1736   34.0972 C.ar    1  UNL1        0.1014
     25 C           1.6459    3.2185   33.2940 C.ar    1  UNL1        0.0956
     26 C           1.2068    4.3037   34.2318 C.ar    1  UNL1        0.1264
     27 N           1.6516    3.9296   35.6146 N.ar    1  UNL1       -0.1675
     28 C           2.9761    1.8670   36.6807 C.3     1  UNL1        0.1448
     29 C           2.6575    2.2694   38.0901 C.3     1  UNL1        0.0988
     30 C           1.3844    0.2664   39.1472 C.3     1  UNL1        0.0897
     31 N           1.4401    1.7173   38.7706 N.3     1  UNL1       -0.2686
     32 C           0.2783    2.6162   39.0746 C.3     1  UNL1        0.0897
     33 C           0.6163    0.9929   28.3332 C.3     1  UNL1        0.0106
     34 C          -0.8423    0.7863   28.0510 C.3     1  UNL1        0.0008
     35 C          -0.0777   -0.2383   28.8356 C.3     1  UNL1        0.0008
@<TRIPOS>BOND
     1    30    31    1
     2    31    32    1
     3    31    29    1
     4    29    28    1
     5    28    23    1
     6    23    24   ar
     7    24    25   ar
     8    25    18    1
     9    18    19   ar
    10    19    20   ar
    11    20     1    1
    12     1     2    1
    13     1     3    1
    14     3     4   ar
    15     4     5   ar
    16     5     6   ar
    17     6     9    1
    18     9    10   ar
    19    10    11   ar
    20    11    12   ar
    21    12    13    1
    22    12    14   ar
    23    14    15   ar
    24     6     7   ar
    25     7     8   ar
    26     1    33    1
    27    33    34    1
    28    34    35    1
    29    20    21   ar
    30    21    22   ar
    31    25    26   ar
    32    26    27   ar
    33    27    23   ar
    34    22    18   ar
    35     8     3   ar
    36    35    33    1
    37    15     9   ar
    38    13    16    1
    39    13    17    1
@<TRIPOS>MOLECULE
*****
 35 39 0 0 0
SMALL
GASTEIGER

@<TRIPOS>ATOM
      1 C           0.7956    1.7258   20.1375 C.3     1  UNL1        0.0744
      2 C           0.7933    1.5297   18.6504 C.3     1  UNL1        0.0121
      3 C           1.9196    0.7406   20.2656 C.ar    1  UNL1       -0.0159
      4 C           3.3224    1.2268   20.4788 C.ar    1  UNL1       -0.0039
      5 C           4.4462    0.2417   20.6069 C.ar    1  UNL1       -0.0002
      6 C           4.1672   -1.2297   20.5217 C.ar    1  UNL1        0.0030
      7 C           2.7643   -1.7159   20.3084 C.ar    1  UNL1       -0.0002
      8 C           1.6405   -0.7307   20.1804 C.ar    1  UNL1       -0.0039
      9 C           5.2911   -2.2149   20.6498 C.ar    1  UNL1        0.0384
     10 C           5.1611   -3.3842   21.5801 C.ar    1  UNL1        0.1033
     11 N           6.2850   -4.3694   21.7082 N.ar    1  UNL1       -0.2125
     12 C           7.5389   -4.1851   20.9059 C.ar    1  UNL1        0.2137
     13 N           8.6628   -5.1702   21.0339 N.pl3   1  UNL1       -0.3274
     14 N           7.6689   -3.0157   19.9754 N.ar    1  UNL1       -0.2125
     15 C           6.5450   -2.0306   19.8474 C.ar    1  UNL1        0.1033
     16 H           8.5775   -5.9377   21.6445 H       1  UNL1        0.1452
     17 H           9.4858   -5.0493   20.5073 H       1  UNL1        0.1452
     18 C          -2.5381    3.7124   20.0712 C.ar    1  UNL1        0.2628
     19 N          -1.7661    2.4576   20.3531 N.ar    1  UNL1       -0.1907
     20 C          -0.3282    2.7109   20.0094 C.ar    1  UNL1        0.1837
     21 N          -0.2115    4.1223   19.5150 N.ar    1  UNL1       -0.0599
     22 O          -1.5773    4.7413   19.5532 O.2     1  UNL1       -0.3326
     23 N          -6.1503    4.4869   21.2619 N.ar    1  UNL1       -0.2478
     24 C          -4.6680    4.4810   21.4917 C.ar    1  UNL1        0.1014
     25 C          -4.0121    3.9047   20.2720 C.ar    1  UNL1        0.0956
     26 C          -5.0891    3.5544   19.2884 C.ar    1  UNL1        0.1264
     27 N          -6.4105    3.9141   19.9002 N.ar    1  UNL1       -0.1675
     28 C          -7.1899    4.9790   22.2248 C.3     1  UNL1        0.1448
     29 C          -7.3229    4.3409   23.5757 C.3     1  UNL1        0.0988
     30 C          -5.3110    3.8925   25.1572 C.3     1  UNL1        0.0897
     31 N          -6.4336    4.7772   24.7021 N.3     1  UNL1       -0.2686
     32 C          -6.6668    6.0982   25.3733 C.3     1  UNL1        0.0897
     33 C           0.7980    1.9219   21.6246 C.3     1  UNL1        0.0106
     34 C           1.0359    2.7974   22.8190 C.3     1  UNL1        0.0008
     35 C           0.5642    1.3859   23.0059 C.3     1  UNL1        0.0008
@<TRIPOS>BOND
     1    30    31    1
     2    31    32    1
     3    31    29    1
     4    29    28    1
     5    28    23    1
     6    23    24   ar
     7    24    25   ar
     8    25    18    1
     9    18    19   ar
    10    19    20   ar
    11    20     1    1
    12     1     2    1
    13     1     3    1
    14     3     4   ar
    15     4     5   ar
    16     5     6   ar
    17     6     9    1
    18     9    10   ar
    19    10    11   ar
    20    11    12   ar
    21    12    13    1
    22    12    14   ar
    23    14    15   ar
    24     6     7   ar
    25     7     8   ar
    26     1    33    1
    27    33    34    1
    28    34    35    1
    29    20    21   ar
    30    21    22   ar
    31    25    26   ar
    32    26    27   ar
    33    27    23   ar
    34    22    18   ar
    35     8     3   ar
    36    35    33    1
    37    15     9   ar
    38    13    16    1
    39    13    17    1
@<TRIPOS>MOLECULE
*****
 35 39 0 0 0
SMALL
GASTEIGER

@<TRIPOS>ATOM
      1 C           0.7540    1.4390   28.5218 C.3     1  UNL1        0.0744
      2 C           1.9566    2.2866   28.2299 C.3     1  UNL1        0.0121
      3 C           0.0924    1.9487   27.2757 C.ar    1  UNL1       -0.0159
      4 C           0.4496    1.3608   25.9427 C.ar    1  UNL1       -0.0039
      5 C          -0.2120    1.8705   24.6968 C.ar    1  UNL1       -0.0002
      6 C          -1.2308    2.9680   24.7838 C.ar    1  UNL1        0.0030
      7 C          -1.5880    3.5558   26.1167 C.ar    1  UNL1       -0.0002
      8 C          -0.9264    3.0461   27.3627 C.ar    1  UNL1       -0.0039
      9 C          -1.8924    3.4777   23.5377 C.ar    1  UNL1        0.0384
     10 C          -3.2203    4.1701   23.6231 C.ar    1  UNL1        0.1033
     11 N          -3.8819    4.6798   22.3770 N.ar    1  UNL1       -0.2125
     12 C          -3.2156    4.4969   21.0456 C.ar    1  UNL1        0.2137
     13 N          -3.8771    5.0066   19.7996 N.pl3   1  UNL1       -0.3274
     14 N          -1.8877    3.8045   20.9603 N.ar    1  UNL1       -0.2125
     15 C          -1.2261    3.2948   22.2063 C.ar    1  UNL1        0.1033
     16 H          -4.7487    5.4610   19.8557 H       1  UNL1        0.1452
     17 H          -3.4398    4.8866   18.9258 H       1  UNL1        0.1452
     18 C           2.4057    0.8336   31.9816 C.ar    1  UNL1        0.2628
     19 N           1.7591    1.7436   30.9797 N.ar    1  UNL1       -0.1907
     20 C           1.4156    0.9294   29.7677 C.ar    1  UNL1        0.1837
     21 N           1.8499   -0.4840   30.0205 N.ar    1  UNL1       -0.0599
     22 O           2.4618   -0.5432   31.3887 O.2     1  UNL1       -0.3326
     23 N           3.1552    2.3748   35.4642 N.ar    1  UNL1       -0.2478
     24 C           2.3525    2.3269   34.1979 C.ar    1  UNL1        0.1014
     25 C           2.9080    1.2305   33.3381 C.ar    1  UNL1        0.0956
     26 C           4.0540    0.6007   34.0730 C.ar    1  UNL1        0.1264
     27 N           4.2068    1.3079   35.3870 N.ar    1  UNL1       -0.1675
     28 C           2.9434    3.3230   36.6070 C.3     1  UNL1        0.1448
     29 C           1.6806    4.1283   36.6893 C.3     1  UNL1        0.0988
     30 C           0.3151    6.1796   35.8661 C.3     1  UNL1        0.0897
     31 N           1.6358    5.5136   36.1159 N.3     1  UNL1       -0.2686
     32 C           2.9116    6.2330   35.7923 C.3     1  UNL1        0.0897
     33 C          -0.4486    0.5914   28.8137 C.3     1  UNL1        0.0106
     34 C          -1.7195    0.3581   29.5753 C.3     1  UNL1        0.0008
     35 C          -1.2606   -0.6436   28.5575 C.3     1  UNL1        0.0008
@<TRIPOS>BOND
     1    30    31    1
     2    31    32    1
     3    31    29    1
     4    29    28    1
     5    28    23    1
     6    23    24   ar
     7    24    25   ar
     8    25    18    1
     9    18    19   ar
    10    19    20   ar
    11    20     1    1
    12     1     2    1
    13     1     3    1
    14     3     4   ar
    15     4     5   ar
    16     5     6   ar
    17     6     9    1
    18     9    10   ar
    19    10    11   ar
    20    11    12   ar
    21    12    13    1
    22    12    14   ar
    23    14    15   ar
    24     6     7   ar
    25     7     8   ar
    26     1    33    1
    27    33    34    1
    28    34    35    1
    29    20    21   ar
    30    21    22   ar
    31    25    26   ar
    32    26    27   ar
    33    27    23   ar
    34    22    18   ar
    35     8     3   ar
    36    35    33    1
    37    15     9   ar
    38    13    16    1
    39    13    17    1
