@<TRIPOS>MOLECULE
*****
 19 21 0 0 0
SMALL
GASTEIGER

@<TRIPOS>ATOM
      1 C          -7.4759  -18.8566   20.9517 C.2     1  UNL1        0.0420
      2 C          -6.3995  -19.9012   20.9367 C.2     1  UNL1        0.0034
      3 C          -4.9570  -19.4925   20.9884 C.ar    1  UNL1        0.0033
      4 C          -4.2535  -19.3900   22.3091 C.ar    1  UNL1        0.0033
      5 C          -2.8111  -18.9814   22.3609 C.ar    1  UNL1        0.0402
      6 C          -2.0724  -18.6754   21.0918 C.ar    1  UNL1        0.1764
      7 C          -2.7759  -18.7779   19.7710 C.ar    1  UNL1        0.1764
      8 C          -4.2183  -19.1865   19.7193 C.ar    1  UNL1        0.0402
      9 O          -1.7958  -18.4172   18.6944 O.3     1  UNL1       -0.4346
     10 C          -0.4864  -18.0918   19.3498 C.3     1  UNL1        0.4294
     11 O          -0.6573  -18.2513   20.8315 O.3     1  UNL1       -0.4346
     12 O          -9.5258  -19.7094   19.6025 O.2     1  UNL1       -0.2866
     13 C          -8.9182  -19.2652   20.9000 C.2     1  UNL1        0.1957
     14 C          -9.7529  -19.2296   22.1459 C.ar    1  UNL1        0.0420
     15 C         -11.0497  -18.4759   22.1584 C.ar    1  UNL1        0.0239
     16 C         -11.8844  -18.4402   23.4042 C.ar    1  UNL1        0.0990
     17 N         -11.4223  -19.1582   24.6374 N.ar    1  UNL1       -0.2423
     18 C         -10.1254  -19.9120   24.6249 C.ar    1  UNL1        0.0990
     19 C          -9.2908  -19.9476   23.3790 C.ar    1  UNL1        0.0239
@<TRIPOS>BOND
     1    12    13    2
     2    13     1    1
     3     1     2    2
     4     2     3    1
     5     3     4   ar
     6     4     5   ar
     7     5     6   ar
     8     6     7   ar
     9     7     8   ar
    10     7     9    1
    11     9    10    1
    12    10    11    1
    13    13    14    1
    14    14    15   ar
    15    15    16   ar
    16    16    17   ar
    17    17    18   ar
    18    18    19   ar
    19     8     3   ar
    20    19    14   ar
    21    11     6    1
@<TRIPOS>MOLECULE
*****
 19 21 0 0 0
SMALL
GASTEIGER

@<TRIPOS>ATOM
      1 C          -7.9528  -19.3599   22.5505 C.2     1  UNL1        0.0420
      2 C          -6.8914  -20.3926   22.3125 C.2     1  UNL1        0.0034
      3 C          -5.6191  -20.0134   21.6140 C.ar    1  UNL1        0.0033
      4 C          -5.2251  -20.7075   20.3441 C.ar    1  UNL1        0.0033
      5 C          -3.9529  -20.3283   19.6457 C.ar    1  UNL1        0.0402
      6 C          -3.0748  -19.2549   20.2173 C.ar    1  UNL1        0.1764
      7 C          -3.4688  -18.5608   21.4873 C.ar    1  UNL1        0.1764
      8 C          -4.7410  -18.9400   22.1857 C.ar    1  UNL1        0.0402
      9 O          -2.4099  -17.5486   21.8102 O.3     1  UNL1       -0.4346
     10 C          -1.3614  -17.6173   20.7397 C.3     1  UNL1        0.4294
     11 O          -1.7723  -18.6718   19.7553 O.3     1  UNL1       -0.4346
     12 O          -9.2074  -20.7852   24.3238 O.2     1  UNL1       -0.2866
     13 C          -9.2250  -19.7392   23.2489 C.2     1  UNL1        0.1957
     14 C         -10.5148  -19.0723   22.8723 C.ar    1  UNL1        0.0420
     15 C         -10.7916  -18.7307   21.4382 C.ar    1  UNL1        0.0239
     16 C         -12.0813  -18.0638   21.0615 C.ar    1  UNL1        0.0990
     17 N         -13.0943  -17.7386   22.1190 N.ar    1  UNL1       -0.2423
     18 C         -12.8175  -18.0802   23.5531 C.ar    1  UNL1        0.0990
     19 C         -11.5277  -18.7471   23.9297 C.ar    1  UNL1        0.0239
@<TRIPOS>BOND
     1    12    13    2
     2    13     1    1
     3     1     2    2
     4     2     3    1
     5     3     4   ar
     6     4     5   ar
     7     5     6   ar
     8     6     7   ar
     9     7     8   ar
    10     7     9    1
    11     9    10    1
    12    10    11    1
    13    13    14    1
    14    14    15   ar
    15    15    16   ar
    16    16    17   ar
    17    17    18   ar
    18    18    19   ar
    19     8     3   ar
    20    19    14   ar
    21    11     6    1
@<TRIPOS>MOLECULE
*****
 19 21 0 0 0
SMALL
GASTEIGER

@<TRIPOS>ATOM
      1 C          -7.6331  -18.8810   22.6075 C.2     1  UNL1        0.0420
      2 C          -6.6044  -19.7024   21.8884 C.2     1  UNL1        0.0034
      3 C          -5.2224  -19.1579   21.6789 C.ar    1  UNL1        0.0033
      4 C          -4.4837  -18.5269   22.8216 C.ar    1  UNL1        0.0033
      5 C          -3.1018  -17.9824   22.6121 C.ar    1  UNL1        0.0402
      6 C          -2.4587  -18.0689   21.2598 C.ar    1  UNL1        0.1764
      7 C          -3.1974  -18.6999   20.1169 C.ar    1  UNL1        0.1764
      8 C          -4.5793  -19.2444   20.3264 C.ar    1  UNL1        0.0402
      9 O          -2.3138  -18.6435   18.9061 O.3     1  UNL1       -0.4346
     10 C          -1.0290  -17.9776   19.3007 C.3     1  UNL1        0.4294
     11 O          -1.1185  -17.6224   20.7553 O.3     1  UNL1       -0.4346
     12 O          -9.2236  -20.6247   23.6937 O.2     1  UNL1       -0.2866
     13 C          -9.0150  -19.4256   22.8170 C.2     1  UNL1        0.1957
     14 C         -10.1881  -18.7709   22.1498 C.ar    1  UNL1        0.0420
     15 C         -11.4147  -18.4385   22.9466 C.ar    1  UNL1        0.0239
     16 C         -12.5879  -17.7839   22.2795 C.ar    1  UNL1        0.0990
     17 N         -12.5345  -17.4616   20.8155 N.ar    1  UNL1       -0.2423
     18 C         -11.3078  -17.7940   20.0186 C.ar    1  UNL1        0.0990
     19 C         -10.1347  -18.4487   20.6859 C.ar    1  UNL1        0.0239
@<TRIPOS>BOND
     1    12    13    2
     2    13     1    1
     3     1     2    2
     4     2     3    1
     5     3     4   ar
     6     4     5   ar
     7     5     6   ar
     8     6     7   ar
     9     7     8   ar
    10     7     9    1
    11     9    10    1
    12    10    11    1
    13    13    14    1
    14    14    15   ar
    15    15    16   ar
    16    16    17   ar
    17    17    18   ar
    18    18    19   ar
    19     8     3   ar
    20    19    14   ar
    21    11     6    1
@<TRIPOS>MOLECULE
*****
 19 21 0 0 0
SMALL
GASTEIGER

@<TRIPOS>ATOM
      1 C          -6.4584  -19.3779   21.0700 C.2     1  UNL1        0.0420
      2 C          -7.1233  -20.1149   22.1946 C.2     1  UNL1        0.0034
      3 C          -8.4924  -19.7072   22.6527 C.ar    1  UNL1        0.0033
      4 C          -9.1543  -20.4397   23.7819 C.ar    1  UNL1        0.0033
      5 C         -10.5233  -20.0321   24.2400 C.ar    1  UNL1        0.0402
      6 C         -11.2302  -18.8920   23.5689 C.ar    1  UNL1        0.1764
      7 C         -10.5682  -18.1595   22.4396 C.ar    1  UNL1        0.1764
      8 C          -9.1992  -18.5671   21.9815 C.ar    1  UNL1        0.0402
      9 O         -11.5034  -17.0833   21.9736 O.3     1  UNL1       -0.4346
     10 C         -12.7434  -17.1507   22.8149 C.3     1  UNL1        0.4294
     11 O         -12.5746  -18.2685   23.8008 O.3     1  UNL1       -0.4346
     12 O          -4.8687  -21.1505   20.0305 O.2     1  UNL1       -0.2866
     13 C          -5.0895  -19.7856   20.6119 C.2     1  UNL1        0.1957
     14 C          -3.9414  -18.8281   20.7353 C.ar    1  UNL1        0.0420
     15 C          -3.1775  -18.4117   19.5134 C.ar    1  UNL1        0.0239
     16 C          -2.0294  -17.4543   19.6367 C.ar    1  UNL1        0.0990
     17 N          -1.6451  -16.9133   20.9820 N.ar    1  UNL1       -0.2423
     18 C          -2.4091  -17.3298   22.2040 C.ar    1  UNL1        0.0990
     19 C          -3.5572  -18.2872   22.0805 C.ar    1  UNL1        0.0239
@<TRIPOS>BOND
     1    12    13    2
     2    13     1    1
     3     1     2    2
     4     2     3    1
     5     3     4   ar
     6     4     5   ar
     7     5     6   ar
     8     6     7   ar
     9     7     8   ar
    10     7     9    1
    11     9    10    1
    12    10    11    1
    13    13    14    1
    14    14    15   ar
    15    15    16   ar
    16    16    17   ar
    17    17    18   ar
    18    18    19   ar
    19     8     3   ar
    20    19    14   ar
    21    11     6    1
@<TRIPOS>MOLECULE
*****
 19 21 0 0 0
SMALL
GASTEIGER

@<TRIPOS>ATOM
      1 C          -6.4544  -19.1488   20.6523 C.2     1  UNL1        0.0420
      2 C          -7.3619  -19.3918   21.8217 C.2     1  UNL1        0.0034
      3 C          -8.5579  -18.5127   22.0383 C.ar    1  UNL1        0.0033
      4 C          -8.6710  -17.6954   23.2909 C.ar    1  UNL1        0.0033
      5 C          -9.8670  -16.8164   23.5075 C.ar    1  UNL1        0.0402
      6 C         -10.9499  -16.7546   22.4715 C.ar    1  UNL1        0.1764
      7 C         -10.8368  -17.5720   21.2188 C.ar    1  UNL1        0.1764
      8 C          -9.6409  -18.4510   21.0022 C.ar    1  UNL1        0.0402
      9 O         -12.0532  -17.3080   20.3817 O.3     1  UNL1       -0.4346
     10 C         -12.9180  -16.3275   21.1170 C.3     1  UNL1        0.4294
     11 O         -12.2361  -15.9855   22.4086 O.3     1  UNL1       -0.4346
     12 O          -5.4445  -21.4768   20.0953 O.2     1  UNL1       -0.2866
     13 C          -5.2585  -20.0278   20.4358 C.2     1  UNL1        0.1957
     14 C          -3.8765  -19.4578   20.5596 C.ar    1  UNL1        0.0420
     15 C          -3.2283  -19.3489   21.9079 C.ar    1  UNL1        0.0239
     16 C          -1.8463  -18.7789   22.0319 C.ar    1  UNL1        0.0990
     17 N          -1.1126  -18.3179   20.8075 N.ar    1  UNL1       -0.2423
     18 C          -1.7608  -18.4269   19.4591 C.ar    1  UNL1        0.0990
     19 C          -3.1428  -18.9969   19.3353 C.ar    1  UNL1        0.0239
@<TRIPOS>BOND
     1    12    13    2
     2    13     1    1
     3     1     2    2
     4     2     3    1
     5     3     4   ar
     6     4     5   ar
     7     5     6   ar
     8     6     7   ar
     9     7     8   ar
    10     7     9    1
    11     9    10    1
    12    10    11    1
    13    13    14    1
    14    14    15   ar
    15    15    16   ar
    16    16    17   ar
    17    17    18   ar
    18    18    19   ar
    19     8     3   ar
    20    19    14   ar
    21    11     6    1
@<TRIPOS>MOLECULE
*****
 19 21 0 0 0
SMALL
GASTEIGER

@<TRIPOS>ATOM
      1 C          -8.4622  -18.8847   21.0562 C.2     1  UNL1        0.0420
      2 C          -7.5209  -19.9901   20.6795 C.2     1  UNL1        0.0034
      3 C          -6.0456  -19.8251   20.8953 C.ar    1  UNL1        0.0033
      4 C          -5.0745  -20.6351   20.0886 C.ar    1  UNL1        0.0033
      5 C          -3.5993  -20.4701   20.3044 C.ar    1  UNL1        0.0402
      6 C          -3.0953  -19.4951   21.3268 C.ar    1  UNL1        0.1764
      7 C          -4.0664  -18.6851   22.1335 C.ar    1  UNL1        0.1764
      8 C          -5.5416  -18.8501   21.9178 C.ar    1  UNL1        0.0402
      9 O          -3.2798  -17.8089   23.0627 O.3     1  UNL1       -0.4346
     10 C          -1.8225  -18.0773   22.8302 C.3     1  UNL1        0.4294
     11 O          -1.7084  -19.1195   21.7574 O.3     1  UNL1       -0.4346
     12 O         -10.4564  -19.4731   19.4983 O.2     1  UNL1       -0.2866
     13 C          -9.9374  -19.0497   20.8404 C.2     1  UNL1        0.1957
     14 C         -10.8937  -18.7913   21.9670 C.ar    1  UNL1        0.0420
     15 C         -12.1659  -18.0384   21.7129 C.ar    1  UNL1        0.0239
     16 C         -13.1221  -17.7800   22.8393 C.ar    1  UNL1        0.0990
     17 N         -12.8061  -18.2744   24.2198 N.ar    1  UNL1       -0.2423
     18 C         -11.5338  -19.0274   24.4738 C.ar    1  UNL1        0.0990
     19 C         -10.5776  -19.2857   23.3473 C.ar    1  UNL1        0.0239
@<TRIPOS>BOND
     1    12    13    2
     2    13     1    1
     3     1     2    2
     4     2     3    1
     5     3     4   ar
     6     4     5   ar
     7     5     6   ar
     8     6     7   ar
     9     7     8   ar
    10     7     9    1
    11     9    10    1
    12    10    11    1
    13    13    14    1
    14    14    15   ar
    15    15    16   ar
    16    16    17   ar
    17    17    18   ar
    18    18    19   ar
    19     8     3   ar
    20    19    14   ar
    21    11     6    1
@<TRIPOS>MOLECULE
*****
 19 21 0 0 0
SMALL
GASTEIGER

@<TRIPOS>ATOM
      1 C          -5.7272  -18.6773   21.5846 C.2     1  UNL1        0.0420
      2 C          -6.8323  -19.6842   21.7056 C.2     1  UNL1        0.0034
      3 C          -8.2492  -19.2804   21.4236 C.ar    1  UNL1        0.0033
      4 C          -8.8029  -19.4069   20.0353 C.ar    1  UNL1        0.0033
      5 C         -10.2197  -19.0030   19.7533 C.ar    1  UNL1        0.0402
      6 C         -11.0828  -18.4727   20.8595 C.ar    1  UNL1        0.1764
      7 C         -10.5291  -18.3462   22.2478 C.ar    1  UNL1        0.1764
      8 C          -9.1123  -18.7500   22.5299 C.ar    1  UNL1        0.0402
      9 O         -11.6099  -17.7942   23.1294 O.3     1  UNL1       -0.4346
     10 C         -12.8315  -17.5795   22.2859 C.3     1  UNL1        0.4294
     11 O         -12.5058  -17.9989   20.8831 O.3     1  UNL1       -0.4346
     12 O          -3.9825  -19.8437   23.1160 O.2     1  UNL1       -0.2866
     13 C          -4.3104  -19.0811   21.8666 C.2     1  UNL1        0.1957
     14 C          -3.2216  -18.7224   20.8992 C.ar    1  UNL1        0.0420
     15 C          -3.5258  -18.6131   19.4345 C.ar    1  UNL1        0.0239
     16 C          -2.4371  -18.2543   18.4671 C.ar    1  UNL1        0.0990
     17 N          -1.0441  -18.0049   18.9644 N.ar    1  UNL1       -0.2423
     18 C          -0.7398  -18.1142   20.4292 C.ar    1  UNL1        0.0990
     19 C          -1.8286  -18.4730   21.3965 C.ar    1  UNL1        0.0239
@<TRIPOS>BOND
     1    12    13    2
     2    13     1    1
     3     1     2    2
     4     2     3    1
     5     3     4   ar
     6     4     5   ar
     7     5     6   ar
     8     6     7   ar
     9     7     8   ar
    10     7     9    1
    11     9    10    1
    12    10    11    1
    13    13    14    1
    14    14    15   ar
    15    15    16   ar
    16    16    17   ar
    17    17    18   ar
    18    18    19   ar
    19     8     3   ar
    20    19    14   ar
    21    11     6    1
@<TRIPOS>MOLECULE
*****
 19 21 0 0 0
SMALL
GASTEIGER

@<TRIPOS>ATOM
      1 C          -6.4608  -16.7726   23.1490 C.2     1  UNL1        0.0420
      2 C          -5.0628  -16.8564   23.6861 C.2     1  UNL1        0.0034
      3 C          -3.9726  -17.4576   22.8493 C.ar    1  UNL1        0.0033
      4 C          -3.8815  -18.9466   22.6933 C.ar    1  UNL1        0.0033
      5 C          -2.7914  -19.5478   21.8566 C.ar    1  UNL1        0.0402
      6 C          -1.7924  -18.6600   21.1757 C.ar    1  UNL1        0.1764
      7 C          -1.8834  -17.1709   21.3317 C.ar    1  UNL1        0.1764
      8 C          -2.9735  -16.5696   22.1684 C.ar    1  UNL1        0.0402
      9 O          -0.7644  -16.5533   20.5466 O.3     1  UNL1       -0.4346
     10 C           0.0182  -17.6607   19.9054 C.3     1  UNL1        0.4294
     11 O          -0.6171  -18.9627   20.2943 O.3     1  UNL1       -0.4346
     12 O          -7.2175  -15.1433   25.0259 O.2     1  UNL1       -0.2866
     13 C          -7.5509  -16.1714   23.9858 C.2     1  UNL1        0.1957
     14 C          -8.9745  -16.5983   23.7824 C.ar    1  UNL1        0.0420
     15 C          -9.8397  -15.8765   22.7923 C.ar    1  UNL1        0.0239
     16 C         -11.2632  -16.3034   22.5889 C.ar    1  UNL1        0.0990
     17 N         -11.8215  -17.4521   23.3755 N.ar    1  UNL1       -0.2423
     18 C         -10.9562  -18.1740   24.3656 C.ar    1  UNL1        0.0990
     19 C          -9.5327  -17.7470   24.5690 C.ar    1  UNL1        0.0239
@<TRIPOS>BOND
     1    12    13    2
     2    13     1    1
     3     1     2    2
     4     2     3    1
     5     3     4   ar
     6     4     5   ar
     7     5     6   ar
     8     6     7   ar
     9     7     8   ar
    10     7     9    1
    11     9    10    1
    12    10    11    1
    13    13    14    1
    14    14    15   ar
    15    15    16   ar
    16    16    17   ar
    17    17    18   ar
    18    18    19   ar
    19     8     3   ar
    20    19    14   ar
    21    11     6    1
@<TRIPOS>MOLECULE
*****
 19 21 0 0 0
SMALL
GASTEIGER

@<TRIPOS>ATOM
      1 C         -11.9499   -5.4969   19.3238 C.2     1  UNL1        0.0420
      2 C         -12.7204   -6.1175   18.1962 C.2     1  UNL1        0.0034
      3 C         -13.9245   -6.9636   18.4868 C.ar    1  UNL1        0.0033
      4 C         -15.1081   -6.3676   19.1893 C.ar    1  UNL1        0.0033
      5 C         -16.3121   -7.2137   19.4799 C.ar    1  UNL1        0.0402
      6 C         -16.3324   -8.6559   19.0680 C.ar    1  UNL1        0.1764
      7 C         -15.1487   -9.2520   18.3655 C.ar    1  UNL1        0.1764
      8 C         -13.9447   -8.4059   18.0749 C.ar    1  UNL1        0.0402
      9 O         -15.4551  -10.6926   18.0818 O.3     1  UNL1       -0.4346
     10 C         -16.8283  -10.9869   18.6090 C.3     1  UNL1        0.4294
     11 O         -17.3705   -9.7282   19.2185 O.3     1  UNL1       -0.4346
     12 O          -9.3784   -5.1370   19.4120 O.2     1  UNL1       -0.2866
     13 C         -10.7459   -4.6508   19.0331 C.2     1  UNL1        0.1957
     14 C         -10.9095   -3.3185   18.3636 C.ar    1  UNL1        0.0420
     15 C         -11.7739   -2.2651   18.9908 C.ar    1  UNL1        0.0239
     16 C         -11.9375   -0.9328   18.3214 C.ar    1  UNL1        0.0990
     17 N         -11.2368   -0.6538   17.0248 N.ar    1  UNL1       -0.2423
     18 C         -10.3724   -1.7073   16.3976 C.ar    1  UNL1        0.0990
     19 C         -10.2089   -3.0395   17.0671 C.ar    1  UNL1        0.0239
@<TRIPOS>BOND
     1    12    13    2
     2    13     1    1
     3     1     2    2
     4     2     3    1
     5     3     4   ar
     6     4     5   ar
     7     5     6   ar
     8     6     7   ar
     9     7     8   ar
    10     7     9    1
    11     9    10    1
    12    10    11    1
    13    13    14    1
    14    14    15   ar
    15    15    16   ar
    16    16    17   ar
    17    17    18   ar
    18    18    19   ar
    19     8     3   ar
    20    19    14   ar
    21    11     6    1
