@<TRIPOS>MOLECULE
*****
 33 36 0 0 0
SMALL
GASTEIGER

@<TRIPOS>ATOM
      1 C           8.4306   -6.0774   23.4530 C.ar    1  UNL1        0.1392
      2 C           9.0272   -7.4117   23.7900 C.ar    1  UNL1        0.0384
      3 C           9.2772   -7.7813   25.2221 C.ar    1  UNL1        0.0203
      4 C           8.9305   -6.8166   26.3171 C.ar    1  UNL1        0.0607
      5 C           8.3339   -5.4823   25.9802 C.ar    1  UNL1        0.0305
      6 C           8.0839   -5.1127   24.5481 C.ar    1  UNL1        0.0392
      7 C           8.0964   -4.7433   27.2637 C.ar    1  UNL1        0.0707
      8 CL          7.5117   -3.3681   27.3940 Cl      1  UNL1       -0.0810
      9 C           8.5463   -5.6209   28.3940 C.ar    1  UNL1        0.0476
     10 N           9.0618   -6.9023   27.8090 N.ar    1  UNL1       -0.3298
     11 C           9.5117   -7.7798   28.9392 C.3     1  UNL1        0.1061
     12 C           9.2742   -7.0408   30.2227 C.3     1  UNL1        0.0307
     13 C           8.6775   -5.7065   29.8857 C.3     1  UNL1        0.0466
     14 O           8.1806   -5.7077   22.0209 O.3     1  UNL1       -0.4706
     15 C           8.4449   -4.3081   21.5505 C.3     1  UNL1        0.2320
     16 C           5.9147   -2.5149   18.2897 C.ar    1  UNL1        0.1422
     17 C           7.3233   -2.0409   18.4925 C.ar    1  UNL1        0.0366
     18 C           8.1667   -2.6386   19.5794 C.ar    1  UNL1        0.0024
     19 C           7.6015   -3.7104   20.4635 C.ar    1  UNL1        0.0213
     20 C           6.1929   -4.1844   20.2607 C.ar    1  UNL1        0.0062
     21 C           5.3495   -3.5867   19.1738 C.ar    1  UNL1        0.1051
     22 C           3.9409   -4.0608   18.9711 C.3     1  UNL1        0.4214
     23 F           2.5323   -4.5349   18.7683 F       1  UNL1       -0.1657
     24 F           3.4301   -2.8574   19.7064 F       1  UNL1       -0.1657
     25 F           4.4518   -5.2643   18.2358 F       1  UNL1       -0.1657
     26 O           5.0713   -1.9172   17.2027 O.3     1  UNL1       -0.4792
     27 C           3.2903   -0.1029   17.7373 C.3     1  UNL1        0.0472
     28 C           4.6678   -0.4743   17.2743 C.3     1  UNL1        0.1661
     29 C           5.6419    0.5972   16.8830 C.3     1  UNL1        0.0472
     30 C           8.2817   -4.6442   30.8681 C.3     1  UNL1        0.0476
     31 C           7.1082   -4.8625   31.7765 C.2     1  UNL1        0.0507
     32 O           6.6002   -6.2519   32.0248 O.co2   1  UNL1       -0.5492
     33 O           6.4426   -3.6915   32.4366 O.co2   1  UNL1       -0.5492
@<TRIPOS>UNITY_ATOM_ATTR
32 1
charge -1
@<TRIPOS>BOND
     1    27    28    1
     2    28    29    1
     3    28    26    1
     4    26    16    1
     5    16    17   ar
     6    17    18   ar
     7    18    19   ar
     8    19    15    1
     9    15    14    1
    10    14     1    1
    11     1     2   ar
    12     2     3   ar
    13     3     4   ar
    14     4     5   ar
    15     5     6   ar
    16     5     7   ar
    17     7     8    1
    18     7     9   ar
    19     9    10   ar
    20    10    11    1
    21    11    12    1
    22    12    13    1
    23    13    30    1
    24    30    31    1
    25    31    32   ar
    26    31    33   ar
    27    19    20   ar
    28    20    21   ar
    29    21    22    1
    30    22    23    1
    31    22    24    1
    32    22    25    1
    33    21    16   ar
    34     6     1   ar
    35    13     9    1
    36    10     4   ar
@<TRIPOS>MOLECULE
*****
 33 36 0 0 0
SMALL
GASTEIGER

@<TRIPOS>ATOM
      1 C           7.2150   -5.2927   24.7683 C.ar    1  UNL1        0.1392
      2 C           7.5598   -6.5704   25.4743 C.ar    1  UNL1        0.0384
      3 C           7.5384   -6.6285   26.9730 C.ar    1  UNL1        0.0203
      4 C           7.1721   -5.4089   27.7657 C.ar    1  UNL1        0.0607
      5 C           6.8272   -4.1312   27.0597 C.ar    1  UNL1        0.0305
      6 C           6.8486   -4.0731   25.5610 C.ar    1  UNL1        0.0392
      7 C           6.5078   -3.0986   28.0998 C.ar    1  UNL1        0.0707
      8 CL          6.1106   -1.6762   27.8371 Cl      1  UNL1       -0.0810
      9 C           6.6552   -3.7382   29.4486 C.ar    1  UNL1        0.0476
     10 N           7.0658   -5.1660   29.2421 N.ar    1  UNL1       -0.3298
     11 C           7.2132   -5.8055   30.5909 C.3     1  UNL1        0.1061
     12 C           6.8938   -4.7730   31.6309 C.3     1  UNL1        0.0307
     13 C           6.5489   -3.4953   30.9249 C.3     1  UNL1        0.0466
     14 O           7.2364   -5.2345   23.2695 O.3     1  UNL1       -0.4706
     15 C           7.8185   -4.0401   22.5736 C.3     1  UNL1        0.2320
     16 C           6.0468   -2.6134   18.6909 C.ar    1  UNL1        0.1422
     17 C           7.4018   -2.1327   19.1184 C.ar    1  UNL1        0.0366
     18 C           7.9924   -2.6082   20.4127 C.ar    1  UNL1        0.0024
     19 C           7.2280   -3.5645   21.2793 C.ar    1  UNL1        0.0213
     20 C           5.8730   -4.0452   20.8517 C.ar    1  UNL1        0.0062
     21 C           5.2824   -3.5697   19.5575 C.ar    1  UNL1        0.1051
     22 C           3.9274   -4.0504   19.1299 C.3     1  UNL1        0.4214
     23 F           2.5724   -4.5312   18.7023 F       1  UNL1       -0.1657
     24 F           3.2880   -2.9334   19.9002 F       1  UNL1       -0.1657
     25 F           4.5668   -5.1675   18.3596 F       1  UNL1       -0.1657
     26 O           5.4563   -2.1378   17.3966 O.3     1  UNL1       -0.4792
     27 C           3.4602   -0.4835   17.5654 C.3     1  UNL1        0.0472
     28 C           4.9109   -0.7447   17.2881 C.3     1  UNL1        0.1661
     29 C           5.8164    0.3872   16.9022 C.3     1  UNL1        0.0472
     30 C           6.1651   -2.2017   31.5803 C.3     1  UNL1        0.0476
     31 C           4.7177   -1.8384   31.7322 C.2     1  UNL1        0.0507
     32 O           4.0767   -0.8902   30.7628 O.co2   1  UNL1       -0.5492
     33 O           3.9113   -2.4235   32.8536 O.co2   1  UNL1       -0.5492
@<TRIPOS>UNITY_ATOM_ATTR
32 1
charge -1
@<TRIPOS>BOND
     1    27    28    1
     2    28    29    1
     3    28    26    1
     4    26    16    1
     5    16    17   ar
     6    17    18   ar
     7    18    19   ar
     8    19    15    1
     9    15    14    1
    10    14     1    1
    11     1     2   ar
    12     2     3   ar
    13     3     4   ar
    14     4     5   ar
    15     5     6   ar
    16     5     7   ar
    17     7     8    1
    18     7     9   ar
    19     9    10   ar
    20    10    11    1
    21    11    12    1
    22    12    13    1
    23    13    30    1
    24    30    31    1
    25    31    32   ar
    26    31    33   ar
    27    19    20   ar
    28    20    21   ar
    29    21    22    1
    30    22    23    1
    31    22    24    1
    32    22    25    1
    33    21    16   ar
    34     6     1   ar
    35    13     9    1
    36    10     4   ar
@<TRIPOS>MOLECULE
*****
 33 36 0 0 0
SMALL
GASTEIGER

@<TRIPOS>ATOM
      1 C           7.2122   -4.2806   24.1652 C.ar    1  UNL1        0.1392
      2 C           6.8925   -2.8178   24.0763 C.ar    1  UNL1        0.0384
      3 C           6.5982   -2.0373   25.3230 C.ar    1  UNL1        0.0203
      4 C           6.6236   -2.7197   26.6586 C.ar    1  UNL1        0.0607
      5 C           6.9433   -4.1825   26.7475 C.ar    1  UNL1        0.0305
      6 C           7.2377   -4.9629   25.5008 C.ar    1  UNL1        0.0392
      7 C           6.8945   -4.5806   28.1928 C.ar    1  UNL1        0.0707
      8 CL          7.1506   -5.9543   28.7380 Cl      1  UNL1       -0.0810
      9 C           6.5446   -3.3639   28.9972 C.ar    1  UNL1        0.0476
     10 N           6.3771   -2.2137   28.0490 N.ar    1  UNL1       -0.3298
     11 C           6.0272   -0.9970   28.8534 C.3     1  UNL1        0.1061
     12 C           5.9784   -1.3952   30.2988 C.3     1  UNL1        0.0307
     13 C           6.2981   -2.8580   30.3877 C.3     1  UNL1        0.0466
     14 O           7.5066   -5.0611   22.9185 O.3     1  UNL1       -0.4706
     15 C           8.2418   -4.4122   21.7835 C.3     1  UNL1        0.2320
     16 C           5.9494   -2.5887   18.3674 C.ar    1  UNL1        0.1422
     17 C           7.3592   -2.1554   18.6406 C.ar    1  UNL1        0.0366
     18 C           8.1233   -2.7632   19.7793 C.ar    1  UNL1        0.0024
     19 C           7.4777   -3.8044   20.6447 C.ar    1  UNL1        0.0213
     20 C           6.0679   -4.2377   20.3715 C.ar    1  UNL1        0.0062
     21 C           5.3037   -3.6299   19.2329 C.ar    1  UNL1        0.1051
     22 C           3.8939   -4.0632   18.9597 C.3     1  UNL1        0.4214
     23 F           2.4841   -4.4966   18.6865 F       1  UNL1       -0.1657
     24 F           3.3818   -2.8529   19.6827 F       1  UNL1       -0.1657
     25 F           4.4060   -5.2736   18.2367 F       1  UNL1       -0.1657
     26 O           5.1852   -1.9809   17.2287 O.3     1  UNL1       -0.4792
     27 C           5.7773    0.5169   16.8286 C.3     1  UNL1        0.0472
     28 C           4.8008   -0.5317   17.2723 C.3     1  UNL1        0.1661
     29 C           3.4399   -0.1310   17.7596 C.3     1  UNL1        0.0472
     30 C           6.3605   -3.6720   31.6461 C.3     1  UNL1        0.0476
     31 C           7.3015   -4.8363   31.7403 C.2     1  UNL1        0.0507
     32 O           6.7714   -6.2064   32.0430 O.co2   1  UNL1       -0.5492
     33 O           8.7726   -4.6304   31.5320 O.co2   1  UNL1       -0.5492
@<TRIPOS>UNITY_ATOM_ATTR
32 1
charge -1
@<TRIPOS>BOND
     1    27    28    1
     2    28    29    1
     3    28    26    1
     4    26    16    1
     5    16    17   ar
     6    17    18   ar
     7    18    19   ar
     8    19    15    1
     9    15    14    1
    10    14     1    1
    11     1     2   ar
    12     2     3   ar
    13     3     4   ar
    14     4     5   ar
    15     5     6   ar
    16     5     7   ar
    17     7     8    1
    18     7     9   ar
    19     9    10   ar
    20    10    11    1
    21    11    12    1
    22    12    13    1
    23    13    30    1
    24    30    31    1
    25    31    32   ar
    26    31    33   ar
    27    19    20   ar
    28    20    21   ar
    29    21    22    1
    30    22    23    1
    31    22    24    1
    32    22    25    1
    33    21    16   ar
    34     6     1   ar
    35    13     9    1
    36    10     4   ar
@<TRIPOS>MOLECULE
*****
 33 36 0 0 0
SMALL
GASTEIGER

@<TRIPOS>ATOM
      1 C           7.3027   -5.4387   25.2840 C.ar    1  UNL1        0.1392
      2 C           7.7351   -6.6376   26.0749 C.ar    1  UNL1        0.0384
      3 C           7.6670   -6.6121   27.5732 C.ar    1  UNL1        0.0203
      4 C           7.1666   -5.3876   28.2804 C.ar    1  UNL1        0.0607
      5 C           6.7343   -4.1887   27.4895 C.ar    1  UNL1        0.0305
      6 C           6.8023   -4.2142   25.9913 C.ar    1  UNL1        0.0392
      7 C           6.2885   -3.1318   28.4561 C.ar    1  UNL1        0.0707
      8 CL          5.7759   -1.7686   28.0973 Cl      1  UNL1       -0.0810
      9 C           6.4454   -3.6776   29.8445 C.ar    1  UNL1        0.0476
     10 N           6.9881   -5.0717   29.7360 N.ar    1  UNL1       -0.3298
     11 C           7.1450   -5.6174   31.1242 C.3     1  UNL1        0.1061
     12 C           6.6993   -4.5606   32.0909 C.3     1  UNL1        0.0307
     13 C           6.2669   -3.3617   31.2999 C.3     1  UNL1        0.0466
     14 O           7.3707   -5.4643   23.7857 O.3     1  UNL1       -0.4706
     15 C           7.6055   -4.1937   23.0239 C.3     1  UNL1        0.2320
     16 C           4.3959   -2.5634   20.3237 C.ar    1  UNL1        0.1422
     17 C           4.0264   -3.1823   21.6392 C.ar    1  UNL1        0.0366
     18 C           5.0963   -3.7257   22.5392 C.ar    1  UNL1        0.0024
     19 C           6.5356   -3.6502   22.1238 C.ar    1  UNL1        0.0213
     20 C           6.9051   -3.0314   20.8083 C.ar    1  UNL1        0.0062
     21 C           5.8352   -2.4880   19.9083 C.ar    1  UNL1        0.1051
     22 C           6.2047   -1.8691   18.5928 C.3     1  UNL1        0.4214
     23 F           6.5742   -1.2502   17.2773 F       1  UNL1       -0.1657
     24 F           6.5893   -0.6017   19.2971 F       1  UNL1       -0.1657
     25 F           5.8202   -3.1364   17.8886 F       1  UNL1       -0.1657
     26 O           3.3260   -2.0200   19.4237 O.3     1  UNL1       -0.4792
     27 C           3.4425    0.5680   19.6203 C.3     1  UNL1        0.0472
     28 C           2.6686   -0.7108   19.7457 C.3     1  UNL1        0.1661
     29 C           1.2372   -0.6803   20.1931 C.3     1  UNL1        0.0472
     30 C           5.7473   -2.0731   31.8652 C.3     1  UNL1        0.0476
     31 C           4.3587   -2.0071   32.4287 C.2     1  UNL1        0.0507
     32 O           4.0500   -2.6641   33.7413 O.co2   1  UNL1       -0.5492
     33 O           3.2788   -1.2842   31.6795 O.co2   1  UNL1       -0.5492
@<TRIPOS>UNITY_ATOM_ATTR
32 1
charge -1
@<TRIPOS>BOND
     1    27    28    1
     2    28    29    1
     3    28    26    1
     4    26    16    1
     5    16    17   ar
     6    17    18   ar
     7    18    19   ar
     8    19    15    1
     9    15    14    1
    10    14     1    1
    11     1     2   ar
    12     2     3   ar
    13     3     4   ar
    14     4     5   ar
    15     5     6   ar
    16     5     7   ar
    17     7     8    1
    18     7     9   ar
    19     9    10   ar
    20    10    11    1
    21    11    12    1
    22    12    13    1
    23    13    30    1
    24    30    31    1
    25    31    32   ar
    26    31    33   ar
    27    19    20   ar
    28    20    21   ar
    29    21    22    1
    30    22    23    1
    31    22    24    1
    32    22    25    1
    33    21    16   ar
    34     6     1   ar
    35    13     9    1
    36    10     4   ar
@<TRIPOS>MOLECULE
*****
 33 36 0 0 0
SMALL
GASTEIGER

@<TRIPOS>ATOM
      1 C          -0.3755    2.5616   22.4033 C.ar    1  UNL1        0.1392
      2 C          -0.1598    2.3444   23.8717 C.ar    1  UNL1        0.0384
      3 C          -1.1754    2.8365   24.8597 C.ar    1  UNL1        0.0203
      4 C          -2.4068    3.5457   24.3794 C.ar    1  UNL1        0.0607
      5 C          -2.6225    3.7629   22.9110 C.ar    1  UNL1        0.0305
      6 C          -1.6069    3.2708   21.9229 C.ar    1  UNL1        0.0392
      7 C          -3.9230    4.4896   22.7360 C.ar    1  UNL1        0.0707
      8 CL         -4.5290    4.9105   21.4301 Cl      1  UNL1       -0.0810
      9 C          -4.5110    4.7216   24.0963 C.ar    1  UNL1        0.0476
     10 N          -3.5740    4.1382   25.1120 N.ar    1  UNL1       -0.3298
     11 C          -4.1620    4.3702   26.4722 C.3     1  UNL1        0.1061
     12 C          -5.4625    5.0970   26.2973 C.3     1  UNL1        0.0307
     13 C          -5.6782    5.3141   24.8289 C.3     1  UNL1        0.0466
     14 O           0.6402    2.0695   21.4152 O.3     1  UNL1       -0.4706
     15 C           0.3894    0.8048   20.6487 C.3     1  UNL1        0.2320
     16 C           3.7184   -1.0951   18.2911 C.ar    1  UNL1        0.1422
     17 C           3.0872    0.1765   17.8067 C.ar    1  UNL1        0.0366
     18 C           1.9775    0.8098   18.5925 C.ar    1  UNL1        0.0024
     19 C           1.4991    0.1715   19.8628 C.ar    1  UNL1        0.0213
     20 C           2.1304   -1.1001   20.3472 C.ar    1  UNL1        0.0062
     21 C           3.2400   -1.7333   19.5614 C.ar    1  UNL1        0.1051
     22 C           3.8713   -3.0049   20.0458 C.3     1  UNL1        0.4214
     23 F           4.5025   -4.2765   20.5303 F       1  UNL1       -0.1657
     24 F           2.9622   -3.7964   19.1530 F       1  UNL1       -0.1657
     25 F           4.7803   -2.2135   20.9387 F       1  UNL1       -0.1657
     26 O           4.8281   -1.7283   17.5052 O.3     1  UNL1       -0.4792
     27 C           6.7068    0.0470   17.2437 C.3     1  UNL1        0.0472
     28 C           6.2469   -1.2958   17.7286 C.3     1  UNL1        0.1661
     29 C           7.2059   -2.2062   18.4368 C.3     1  UNL1        0.0472
     30 C          -6.8545    6.0029   24.2029 C.3     1  UNL1        0.0476
     31 C          -7.7593    5.2477   23.2750 C.2     1  UNL1        0.0507
     32 O          -7.7339    5.5361   21.8032 O.co2   1  UNL1       -0.5492
     33 O          -8.6895    4.2042   23.8188 O.co2   1  UNL1       -0.5492
@<TRIPOS>UNITY_ATOM_ATTR
32 1
charge -1
@<TRIPOS>BOND
     1    27    28    1
     2    28    29    1
     3    28    26    1
     4    26    16    1
     5    16    17   ar
     6    17    18   ar
     7    18    19   ar
     8    19    15    1
     9    15    14    1
    10    14     1    1
    11     1     2   ar
    12     2     3   ar
    13     3     4   ar
    14     4     5   ar
    15     5     6   ar
    16     5     7   ar
    17     7     8    1
    18     7     9   ar
    19     9    10   ar
    20    10    11    1
    21    11    12    1
    22    12    13    1
    23    13    30    1
    24    30    31    1
    25    31    32   ar
    26    31    33   ar
    27    19    20   ar
    28    20    21   ar
    29    21    22    1
    30    22    23    1
    31    22    24    1
    32    22    25    1
    33    21    16   ar
    34     6     1   ar
    35    13     9    1
    36    10     4   ar
@<TRIPOS>MOLECULE
*****
 33 36 0 0 0
SMALL
GASTEIGER

@<TRIPOS>ATOM
      1 C         -10.3172  -18.6831   19.6292 C.ar    1  UNL1        0.1392
      2 C          -9.9379  -19.7672   18.6645 C.ar    1  UNL1        0.0384
      3 C          -8.5523  -20.3413   18.6883 C.ar    1  UNL1        0.0203
      4 C          -7.5461  -19.8313   19.6770 C.ar    1  UNL1        0.0607
      5 C          -7.9254  -18.7472   20.6417 C.ar    1  UNL1        0.0305
      6 C          -9.3109  -18.1731   20.6178 C.ar    1  UNL1        0.0392
      7 C          -6.7293  -18.4475   21.4958 C.ar    1  UNL1        0.0707
      8 CL         -6.6633  -17.4279   22.5940 Cl      1  UNL1       -0.0810
      9 C          -5.6107  -19.3463   21.0588 C.ar    1  UNL1        0.0476
     10 N          -6.1155  -20.2016   19.9347 N.ar    1  UNL1       -0.3298
     11 C          -4.9970  -21.1004   19.4979 C.3     1  UNL1        0.1061
     12 C          -3.8009  -20.8007   20.3519 C.3     1  UNL1        0.0307
     13 C          -4.1801  -19.7166   21.3167 C.3     1  UNL1        0.0466
     14 O         -11.7028  -18.1089   19.6054 O.3     1  UNL1       -0.4706
     15 C         -12.2794  -17.4897   20.8439 C.3     1  UNL1        0.2320
     16 C          -9.8743  -17.4051   24.6463 C.ar    1  UNL1        0.1422
     17 C         -10.2609  -16.1208   23.9747 C.ar    1  UNL1        0.0366
     18 C         -11.0626  -16.1490   22.7072 C.ar    1  UNL1        0.0024
     19 C         -11.4777  -17.4614   22.1114 C.ar    1  UNL1        0.0213
     20 C         -11.0911  -18.7457   22.7831 C.ar    1  UNL1        0.0062
     21 C         -10.2895  -18.7176   24.0505 C.ar    1  UNL1        0.1051
     22 C          -9.9029  -20.0019   24.7222 C.3     1  UNL1        0.4214
     23 F          -9.5164  -21.2862   25.3938 F       1  UNL1       -0.1657
     24 F         -11.0409  -19.8404   25.6859 F       1  UNL1       -0.1657
     25 F          -8.7649  -20.1634   23.7584 F       1  UNL1       -0.1657
     26 O          -9.0726  -17.3769   25.9139 O.3     1  UNL1       -0.4792
     27 C          -7.2329  -15.6472   25.3032 C.3     1  UNL1        0.0472
     28 C          -8.2639  -16.1628   26.2629 C.3     1  UNL1        0.1661
     29 C          -8.4863  -15.4643   27.5716 C.3     1  UNL1        0.0472
     30 C          -3.2859  -19.1093   22.3567 C.3     1  UNL1        0.0476
     31 C          -2.2031  -18.1543   21.9498 C.2     1  UNL1        0.0507
     32 O          -1.0157  -18.6509   21.1795 O.co2   1  UNL1       -0.5492
     33 O          -2.3077  -16.7028   22.3132 O.co2   1  UNL1       -0.5492
@<TRIPOS>UNITY_ATOM_ATTR
32 1
charge -1
@<TRIPOS>BOND
     1    27    28    1
     2    28    29    1
     3    28    26    1
     4    26    16    1
     5    16    17   ar
     6    17    18   ar
     7    18    19   ar
     8    19    15    1
     9    15    14    1
    10    14     1    1
    11     1     2   ar
    12     2     3   ar
    13     3     4   ar
    14     4     5   ar
    15     5     6   ar
    16     5     7   ar
    17     7     8    1
    18     7     9   ar
    19     9    10   ar
    20    10    11    1
    21    11    12    1
    22    12    13    1
    23    13    30    1
    24    30    31    1
    25    31    32   ar
    26    31    33   ar
    27    19    20   ar
    28    20    21   ar
    29    21    22    1
    30    22    23    1
    31    22    24    1
    32    22    25    1
    33    21    16   ar
    34     6     1   ar
    35    13     9    1
    36    10     4   ar
@<TRIPOS>MOLECULE
*****
 33 36 0 0 0
SMALL
GASTEIGER

@<TRIPOS>ATOM
      1 C           1.2472    1.7574   22.2451 C.ar    1  UNL1        0.1392
      2 C           2.7346    1.9103   22.1260 C.ar    1  UNL1        0.0384
      3 C           3.5899    1.9067   23.3582 C.ar    1  UNL1        0.0203
      4 C           2.9579    1.7500   24.7095 C.ar    1  UNL1        0.0607
      5 C           1.4705    1.5970   24.8286 C.ar    1  UNL1        0.0305
      6 C           0.6151    1.6007   23.5964 C.ar    1  UNL1        0.0392
      7 C           1.1335    1.4617   26.2839 C.ar    1  UNL1        0.0707
      8 CL         -0.2412    1.2876   26.8581 Cl      1  UNL1       -0.0810
      9 C           2.4127    1.5310   27.0643 C.ar    1  UNL1        0.0476
     10 N           3.5402    1.7092   26.0913 N.ar    1  UNL1       -0.3298
     11 C           4.8193    1.7786   26.8716 C.3     1  UNL1        0.1061
     12 C           4.4823    1.6432   28.3270 C.3     1  UNL1        0.0307
     13 C           2.9950    1.4903   28.4461 C.3     1  UNL1        0.0466
     14 O           0.3917    1.7611   21.0129 O.3     1  UNL1       -0.4706
     15 C           0.2528    0.5130   20.1926 C.3     1  UNL1        0.2320
     16 C           3.8686   -1.2939   18.2149 C.ar    1  UNL1        0.1422
     17 C           3.2107   -0.0865   17.6155 C.ar    1  UNL1        0.0366
     18 C           2.0055    0.5158   18.2747 C.ar    1  UNL1        0.0024
     19 C           1.4581   -0.0893   19.5333 C.ar    1  UNL1        0.0213
     20 C           2.1160   -1.2968   20.1327 C.ar    1  UNL1        0.0062
     21 C           3.3212   -1.8991   19.4735 C.ar    1  UNL1        0.1051
     22 C           3.9791   -3.1065   20.0729 C.3     1  UNL1        0.4214
     23 F           4.6370   -4.3139   20.6723 F       1  UNL1       -0.1657
     24 F           4.8586   -2.2166   20.9003 F       1  UNL1       -0.1657
     25 F           3.0996   -3.9964   19.2456 F       1  UNL1       -0.1657
     26 O           5.0739   -1.8962   17.5557 O.3     1  UNL1       -0.4792
     27 C           6.8453   -0.0001   17.4280 C.3     1  UNL1        0.0472
     28 C           6.4432   -1.3741   17.8756 C.3     1  UNL1        0.1661
     29 C           7.4103   -2.2259   18.6430 C.3     1  UNL1        0.0472
     30 C           2.2250    1.3254   29.7228 C.3     1  UNL1        0.0476
     31 C           1.6428   -0.0099   30.0805 C.2     1  UNL1        0.0507
     32 O           0.2938   -0.4045   29.5566 O.co2   1  UNL1       -0.5492
     33 O           2.4095   -0.9506   30.9622 O.co2   1  UNL1       -0.5492
@<TRIPOS>UNITY_ATOM_ATTR
32 1
charge -1
@<TRIPOS>BOND
     1    27    28    1
     2    28    29    1
     3    28    26    1
     4    26    16    1
     5    16    17   ar
     6    17    18   ar
     7    18    19   ar
     8    19    15    1
     9    15    14    1
    10    14     1    1
    11     1     2   ar
    12     2     3   ar
    13     3     4   ar
    14     4     5   ar
    15     5     6   ar
    16     5     7   ar
    17     7     8    1
    18     7     9   ar
    19     9    10   ar
    20    10    11    1
    21    11    12    1
    22    12    13    1
    23    13    30    1
    24    30    31    1
    25    31    32   ar
    26    31    33   ar
    27    19    20   ar
    28    20    21   ar
    29    21    22    1
    30    22    23    1
    31    22    24    1
    32    22    25    1
    33    21    16   ar
    34     6     1   ar
    35    13     9    1
    36    10     4   ar
@<TRIPOS>MOLECULE
*****
 33 36 0 0 0
SMALL
GASTEIGER

@<TRIPOS>ATOM
      1 C          -1.6192    3.6535   21.2102 C.ar    1  UNL1        0.1392
      2 C          -2.7797    3.0635   20.4652 C.ar    1  UNL1        0.0384
      3 C          -4.1772    3.2683   20.9701 C.ar    1  UNL1        0.0203
      4 C          -4.4142    4.0630   22.2200 C.ar    1  UNL1        0.0607
      5 C          -3.2537    4.6530   22.9650 C.ar    1  UNL1        0.0305
      6 C          -1.8562    4.4482   22.4600 C.ar    1  UNL1        0.0392
      7 C          -3.7925    5.3842   24.1587 C.ar    1  UNL1        0.0707
      8 CL         -2.9804    6.1236   25.1803 Cl      1  UNL1       -0.0810
      9 C          -5.2862    5.2461   24.1515 C.ar    1  UNL1        0.0476
     10 N          -5.6704    4.4296   22.9533 N.ar    1  UNL1       -0.3298
     11 C          -7.1639    4.2915   22.9462 C.3     1  UNL1        0.1061
     12 C          -7.7028    5.0226   24.1399 C.3     1  UNL1        0.0307
     13 C          -6.5423    5.6126   24.8849 C.3     1  UNL1        0.0466
     14 O          -0.2216    3.4487   20.7053 O.3     1  UNL1       -0.4706
     15 C           0.0114    2.7051   19.4236 C.3     1  UNL1        0.2320
     16 C           2.6046   -0.9725   19.3954 C.ar    1  UNL1        0.1422
     17 C           1.4523   -0.8746   20.3507 C.ar    1  UNL1        0.0366
     18 C           0.5879    0.3512   20.3601 C.ar    1  UNL1        0.0024
     19 C           0.8758    1.4792   19.4142 C.ar    1  UNL1        0.0213
     20 C           2.0281    1.3813   18.4589 C.ar    1  UNL1        0.0062
     21 C           2.8925    0.1555   18.4495 C.ar    1  UNL1        0.1051
     22 C           4.0448    0.0576   17.4942 C.3     1  UNL1        0.4214
     23 F           5.1971   -0.0403   16.5389 F       1  UNL1       -0.1657
     24 F           4.8500    0.9693   18.3720 F       1  UNL1       -0.1657
     25 F           3.2396   -0.8541   16.6164 F       1  UNL1       -0.1657
     26 O           3.4690   -2.1984   19.3860 O.3     1  UNL1       -0.4792
     27 C           5.6208   -1.3867   20.5946 C.3     1  UNL1        0.0472
     28 C           4.5136   -2.3876   20.4457 C.3     1  UNL1        0.1661
     29 C           4.4510   -3.5778   21.3565 C.3     1  UNL1        0.0472
     30 C          -6.6236    6.4263   26.1424 C.3     1  UNL1        0.0476
     31 C          -6.2686    5.8061   27.4612 C.2     1  UNL1        0.0507
     32 O          -7.1459    6.0324   28.6567 O.co2   1  UNL1       -0.5492
     33 O          -5.0365    4.9596   27.5846 O.co2   1  UNL1       -0.5492
@<TRIPOS>UNITY_ATOM_ATTR
32 1
charge -1
@<TRIPOS>BOND
     1    27    28    1
     2    28    29    1
     3    28    26    1
     4    26    16    1
     5    16    17   ar
     6    17    18   ar
     7    18    19   ar
     8    19    15    1
     9    15    14    1
    10    14     1    1
    11     1     2   ar
    12     2     3   ar
    13     3     4   ar
    14     4     5   ar
    15     5     6   ar
    16     5     7   ar
    17     7     8    1
    18     7     9   ar
    19     9    10   ar
    20    10    11    1
    21    11    12    1
    22    12    13    1
    23    13    30    1
    24    30    31    1
    25    31    32   ar
    26    31    33   ar
    27    19    20   ar
    28    20    21   ar
    29    21    22    1
    30    22    23    1
    31    22    24    1
    32    22    25    1
    33    21    16   ar
    34     6     1   ar
    35    13     9    1
    36    10     4   ar
@<TRIPOS>MOLECULE
*****
 33 36 0 0 0
SMALL
GASTEIGER

@<TRIPOS>ATOM
      1 C           1.1515    1.6317   21.1694 C.ar    1  UNL1        0.1392
      2 C          -0.0660    2.4858   20.9743 C.ar    1  UNL1        0.0384
      3 C          -0.8546    2.9502   22.1627 C.ar    1  UNL1        0.0203
      4 C          -0.4257    2.5605   23.5462 C.ar    1  UNL1        0.0607
      5 C           0.7918    1.7064   23.7413 C.ar    1  UNL1        0.0305
      6 C           1.5805    1.2420   22.5529 C.ar    1  UNL1        0.0392
      7 C           0.9706    1.4835   25.2139 C.ar    1  UNL1        0.0707
      8 CL          2.0644    0.6846   25.8583 Cl      1  UNL1       -0.0810
      9 C          -0.1366    2.1999   25.9289 C.ar    1  UNL1        0.0476
     10 N          -0.9995    2.8655   24.8982 N.ar    1  UNL1       -0.3298
     11 C          -2.1065    3.5818   25.6132 C.3     1  UNL1        0.1061
     12 C          -1.9278    3.3589   27.0857 C.3     1  UNL1        0.0307
     13 C          -0.7103    2.5048   27.2808 C.3     1  UNL1        0.0466
     14 O           1.9402    1.1673   19.9809 O.3     1  UNL1       -0.4706
     15 C           1.8384   -0.2576   19.5236 C.3     1  UNL1        0.2320
     16 C           4.5728   -3.3798   21.2629 C.ar    1  UNL1        0.1422
     17 C           4.1677   -2.1942   22.0876 C.ar    1  UNL1        0.0366
     18 C           3.2563   -1.1535   21.5079 C.ar    1  UNL1        0.0024
     19 C           2.7499   -1.2984   20.1034 C.ar    1  UNL1        0.0213
     20 C           3.1550   -2.4840   19.2787 C.ar    1  UNL1        0.0062
     21 C           4.0665   -3.5247   19.8584 C.ar    1  UNL1        0.1051
     22 C           4.4716   -4.7103   19.0337 C.3     1  UNL1        0.4214
     23 F           4.8767   -5.8959   18.2089 F       1  UNL1       -0.1657
     24 F           3.4257   -5.5419   19.7153 F       1  UNL1       -0.1657
     25 F           5.5175   -3.8788   18.3520 F       1  UNL1       -0.1657
     26 O           5.4843   -4.4205   21.8427 O.3     1  UNL1       -0.4792
     27 C           7.9004   -4.1210   20.9359 C.3     1  UNL1        0.0472
     28 C           6.9308   -4.1024   22.0802 C.3     1  UNL1        0.1661
     29 C           7.4076   -3.7656   23.4619 C.3     1  UNL1        0.0472
     30 C          -0.1626    2.0377   28.5969 C.3     1  UNL1        0.0476
     31 C          -0.3022    0.5994   28.9993 C.2     1  UNL1        0.0507
     32 O          -1.5450   -0.1616   28.6439 O.co2   1  UNL1       -0.5492
     33 O           0.8010   -0.0778   29.7571 O.co2   1  UNL1       -0.5492
@<TRIPOS>UNITY_ATOM_ATTR
32 1
charge -1
@<TRIPOS>BOND
     1    27    28    1
     2    28    29    1
     3    28    26    1
     4    26    16    1
     5    16    17   ar
     6    17    18   ar
     7    18    19   ar
     8    19    15    1
     9    15    14    1
    10    14     1    1
    11     1     2   ar
    12     2     3   ar
    13     3     4   ar
    14     4     5   ar
    15     5     6   ar
    16     5     7   ar
    17     7     8    1
    18     7     9   ar
    19     9    10   ar
    20    10    11    1
    21    11    12    1
    22    12    13    1
    23    13    30    1
    24    30    31    1
    25    31    32   ar
    26    31    33   ar
    27    19    20   ar
    28    20    21   ar
    29    21    22    1
    30    22    23    1
    31    22    24    1
    32    22    25    1
    33    21    16   ar
    34     6     1   ar
    35    13     9    1
    36    10     4   ar
