@<TRIPOS>MOLECULE
*****
 32 35 0 0 0
SMALL
GASTEIGER

@<TRIPOS>ATOM
      1 C          -9.7229  -19.3411   22.0831 C.ar    1  UNL1        0.1311
      2 C          -8.8047  -19.9720   23.0876 C.ar    1  UNL1        0.0339
      3 C          -7.4672  -20.4958   22.6559 C.ar    1  UNL1        0.0027
      4 C          -7.0477  -20.3889   21.2197 C.ar    1  UNL1        0.0283
      5 C          -7.9659  -19.7580   20.2152 C.ar    1  UNL1        0.2196
      6 F          -7.5465  -19.6511   18.7790 F       1  UNL1       -0.1835
      7 N          -9.3035  -19.2342   20.6469 N.ar    1  UNL1       -0.2035
      8 N         -11.0605  -18.8173   22.5148 N.pl3   1  UNL1       -0.3143
      9 H         -11.8700  -19.3600   22.3754 H       1  UNL1        0.1485
     10 C         -11.1649  -17.4665   23.1587 C.3     1  UNL1        0.1201
     11 C          -9.2659  -16.0447   22.0993 C.ar    1  UNL1        0.2225
     12 N          -8.0425  -15.1906   22.2530 N.ar    1  UNL1       -0.2080
     13 C          -7.4946  -14.9041   23.6197 C.ar    1  UNL1        0.1316
     14 C          -8.1702  -15.4717   24.8327 C.ar    1  UNL1        0.1592
     15 F          -7.6222  -15.1852   26.1993 F       1  UNL1       -0.2025
     16 C          -9.3936  -16.3259   24.6790 C.ar    1  UNL1        0.0333
     17 C          -9.9414  -16.6124   23.3123 C.ar    1  UNL1        0.0529
     18 C         -11.0263  -15.5974   20.2417 C.3     1  UNL1        0.2542
     19 O          -9.8137  -16.3312   20.7327 O.3     1  UNL1       -0.4563
     20 C          -5.7100  -20.9128   20.7880 C.3     1  UNL1        0.0582
     21 C          -4.5982  -19.9579   20.4685 C.ar    1  UNL1        0.0044
     22 C          -3.7467  -19.9776   19.2337 C.ar    1  UNL1        0.0966
     23 N          -2.7649  -18.8476   19.3298 N.ar    1  UNL1       -0.2273
     24 C          -3.0096  -18.1296   20.6238 C.ar    1  UNL1        0.1403
     25 N          -2.3470  -16.9397   21.2523 N.ar    1  UNL1       -0.3369
     26 C          -2.8176  -16.4359   22.5845 C.ar    1  UNL1        0.0839
     27 C          -3.9506  -17.1221   23.2882 C.ar    1  UNL1        0.0855
     28 C          -4.6131  -18.3121   22.6598 C.ar    1  UNL1        0.0145
     29 C          -4.1426  -18.8159   21.3276 C.ar    1  UNL1        0.0325
     30 H          -1.6034  -16.4893   20.7904 H       1  UNL1        0.1674
     31 C          -4.4211  -16.6183   24.6205 C.1     1  UNL1        0.1019
     32 N          -4.8916  -16.1145   25.9527 N.1     1  UNL1       -0.1908
@<TRIPOS>BOND
     1    18    19    1
     2    19    11    1
     3    11    12   ar
     4    12    13   ar
     5    13    14   ar
     6    14    15    1
     7    14    16   ar
     8    16    17   ar
     9    17    10    1
    10    10     8    1
    11     8     1    1
    12     1     2   ar
    13     2     3   ar
    14     3     4   ar
    15     4    20    1
    16    20    21    1
    17    21    22   ar
    18    22    23   ar
    19    23    24   ar
    20    24    25   ar
    21    25    26   ar
    22    26    27   ar
    23    27    31    1
    24    31    32    3
    25    27    28   ar
    26    28    29   ar
    27     4     5   ar
    28     5     6    1
    29     5     7   ar
    30    17    11   ar
    31     7     1   ar
    32    29    21   ar
    33    29    24    1
    34     8     9    1
    35    25    30    1
@<TRIPOS>MOLECULE
*****
 32 35 0 0 0
SMALL
GASTEIGER

@<TRIPOS>ATOM
      1 C          -4.6316  -16.2958   23.5269 C.ar    1  UNL1        0.1311
      2 C          -5.7111  -17.0518   22.8107 C.ar    1  UNL1        0.0339
      3 C          -7.1038  -17.0782   23.3670 C.ar    1  UNL1        0.0027
      4 C          -7.4171  -16.3485   24.6396 C.ar    1  UNL1        0.0283
      5 C          -6.3375  -15.5924   25.3559 C.ar    1  UNL1        0.2196
      6 F          -6.6508  -14.8627   26.6284 F       1  UNL1       -0.1835
      7 N          -4.9448  -15.5661   24.7995 N.ar    1  UNL1       -0.2035
      8 N          -3.2388  -16.2694   22.9706 N.pl3   1  UNL1       -0.3143
      9 H          -2.8112  -15.4092   22.7549 H       1  UNL1        0.1485
     10 C          -2.4976  -17.5534   22.7430 C.3     1  UNL1        0.1201
     11 C          -1.9904  -18.0889   20.2518 C.ar    1  UNL1        0.2225
     12 N          -2.2549  -18.8989   19.0173 N.ar    1  UNL1       -0.2080
     13 C          -3.2910  -19.9833   19.0395 C.ar    1  UNL1        0.1316
     14 C          -4.0627  -20.2577   20.2962 C.ar    1  UNL1        0.1592
     15 F          -5.0988  -21.3422   20.3183 F       1  UNL1       -0.2025
     16 C          -3.7982  -19.4477   21.5307 C.ar    1  UNL1        0.0333
     17 C          -2.7620  -18.3633   21.5085 C.ar    1  UNL1        0.0529
     18 C           0.4933  -17.3538   20.0493 C.3     1  UNL1        0.2542
     19 O          -0.9542  -17.0045   20.2296 O.3     1  UNL1       -0.4563
     20 C          -8.8099  -16.3749   25.1960 C.3     1  UNL1        0.0582
     21 C          -9.7928  -17.3979   24.7088 C.ar    1  UNL1        0.0044
     22 C         -10.2770  -18.5915   25.4775 C.ar    1  UNL1        0.0966
     23 N         -11.2476  -19.3381   24.6112 N.ar    1  UNL1       -0.2273
     24 C         -11.3632  -18.6060   23.3071 C.ar    1  UNL1        0.1403
     25 N         -12.1711  -18.8763   22.0725 N.ar    1  UNL1       -0.3369
     26 C         -12.0799  -17.9475   20.8983 C.ar    1  UNL1        0.0839
     27 C         -11.1808  -16.7483   20.9586 C.ar    1  UNL1        0.0855
     28 C         -10.3729  -16.4780   22.1932 C.ar    1  UNL1        0.0145
     29 C         -10.4642  -17.4068   23.3675 C.ar    1  UNL1        0.0325
     30 H         -12.7612  -19.6634   22.0329 H       1  UNL1        0.1674
     31 C         -11.0896  -15.8195   19.7843 C.1     1  UNL1        0.1019
     32 N         -10.9983  -14.8907   18.6100 N.1     1  UNL1       -0.1908
@<TRIPOS>BOND
     1    18    19    1
     2    19    11    1
     3    11    12   ar
     4    12    13   ar
     5    13    14   ar
     6    14    15    1
     7    14    16   ar
     8    16    17   ar
     9    17    10    1
    10    10     8    1
    11     8     1    1
    12     1     2   ar
    13     2     3   ar
    14     3     4   ar
    15     4    20    1
    16    20    21    1
    17    21    22   ar
    18    22    23   ar
    19    23    24   ar
    20    24    25   ar
    21    25    26   ar
    22    26    27   ar
    23    27    31    1
    24    31    32    3
    25    27    28   ar
    26    28    29   ar
    27     4     5   ar
    28     5     6    1
    29     5     7   ar
    30    17    11   ar
    31     7     1   ar
    32    29    21   ar
    33    29    24    1
    34     8     9    1
    35    25    30    1
@<TRIPOS>MOLECULE
*****
 32 35 0 0 0
SMALL
GASTEIGER

@<TRIPOS>ATOM
      1 C          -9.6180  -19.2192   20.4251 C.ar    1  UNL1        0.1311
      2 C          -8.8437  -19.2859   19.1422 C.ar    1  UNL1        0.0339
      3 C          -7.4462  -19.8308   19.1372 C.ar    1  UNL1        0.0027
      4 C          -6.8230  -20.3090   20.4151 C.ar    1  UNL1        0.0283
      5 C          -7.5974  -20.2424   21.6980 C.ar    1  UNL1        0.2196
      6 F          -6.9743  -20.7206   22.9759 F       1  UNL1       -0.1835
      7 N          -8.9949  -19.6975   21.7030 N.ar    1  UNL1       -0.2035
      8 N         -11.0155  -18.6743   20.4302 N.pl3   1  UNL1       -0.3143
      9 H         -11.7121  -19.1008   19.8806 H       1  UNL1        0.1485
     10 C         -11.3517  -17.4796   21.2726 C.3     1  UNL1        0.1201
     11 C         -10.7988  -17.7249   23.7993 C.ar    1  UNL1        0.2225
     12 N          -9.9442  -17.3766   24.9818 N.ar    1  UNL1       -0.2080
     13 C          -8.7881  -16.4346   24.8202 C.ar    1  UNL1        0.1316
     14 C          -8.4865  -15.8410   23.4761 C.ar    1  UNL1        0.1592
     15 F          -7.3304  -14.8991   23.3145 F       1  UNL1       -0.2025
     16 C          -9.3411  -16.1894   22.2936 C.ar    1  UNL1        0.0333
     17 C         -10.4972  -17.1313   22.4552 C.ar    1  UNL1        0.0529
     18 C         -13.3436  -18.1271   24.1338 C.3     1  UNL1        0.2542
     19 O         -11.9549  -18.6669   23.9609 O.3     1  UNL1       -0.4563
     20 C          -5.4254  -20.8540   20.4100 C.3     1  UNL1        0.0582
     21 C          -4.2589  -19.9251   20.2478 C.ar    1  UNL1        0.0044
     22 C          -3.2366  -19.9768   19.1513 C.ar    1  UNL1        0.0966
     23 N          -2.2557  -18.8651   19.3794 N.ar    1  UNL1       -0.2273
     24 C          -2.6718  -18.1264   20.6168 C.ar    1  UNL1        0.1403
     25 N          -2.0832  -16.9419   21.3242 N.ar    1  UNL1       -0.3369
     26 C          -2.7327  -16.4125   22.5683 C.ar    1  UNL1        0.0839
     27 C          -3.9708  -17.0676   23.1050 C.ar    1  UNL1        0.0855
     28 C          -4.5593  -18.2521   22.3976 C.ar    1  UNL1        0.0145
     29 C          -3.9098  -18.7815   21.1535 C.ar    1  UNL1        0.0325
     30 H          -1.2707  -16.5119   20.9719 H       1  UNL1        0.1674
     31 C          -4.6203  -16.5381   24.3492 C.1     1  UNL1        0.1019
     32 N          -5.2698  -16.0087   25.5932 N.1     1  UNL1       -0.1908
@<TRIPOS>BOND
     1    18    19    1
     2    19    11    1
     3    11    12   ar
     4    12    13   ar
     5    13    14   ar
     6    14    15    1
     7    14    16   ar
     8    16    17   ar
     9    17    10    1
    10    10     8    1
    11     8     1    1
    12     1     2   ar
    13     2     3   ar
    14     3     4   ar
    15     4    20    1
    16    20    21    1
    17    21    22   ar
    18    22    23   ar
    19    23    24   ar
    20    24    25   ar
    21    25    26   ar
    22    26    27   ar
    23    27    31    1
    24    31    32    3
    25    27    28   ar
    26    28    29   ar
    27     4     5   ar
    28     5     6    1
    29     5     7   ar
    30    17    11   ar
    31     7     1   ar
    32    29    21   ar
    33    29    24    1
    34     8     9    1
    35    25    30    1
@<TRIPOS>MOLECULE
*****
 32 35 0 0 0
SMALL
GASTEIGER

@<TRIPOS>ATOM
      1 C          -5.8647  -20.3713   20.1852 C.ar    1  UNL1        0.1311
      2 C          -6.4784  -19.1139   20.7258 C.ar    1  UNL1        0.0339
      3 C          -7.8826  -18.7433   20.3505 C.ar    1  UNL1        0.0027
      4 C          -8.6731  -19.6300   19.4346 C.ar    1  UNL1        0.0283
      5 C          -8.0594  -20.8874   18.8940 C.ar    1  UNL1        0.2196
      6 F          -8.8499  -21.7741   17.9781 F       1  UNL1       -0.1835
      7 N          -6.6552  -21.2581   19.2693 N.ar    1  UNL1       -0.2035
      8 N          -4.4606  -20.7421   20.5605 N.pl3   1  UNL1       -0.3143
      9 H          -3.9793  -21.4306   20.0471 H       1  UNL1        0.1485
     10 C          -3.7896  -20.0638   21.7180 C.3     1  UNL1        0.1201
     11 C          -3.3422  -17.5451   22.1720 C.ar    1  UNL1        0.2225
     12 N          -2.5222  -16.3099   21.9447 N.ar    1  UNL1       -0.2080
     13 C          -1.3296  -16.3580   21.0363 C.ar    1  UNL1        0.1316
     14 C          -0.9569  -17.6414   20.3551 C.ar    1  UNL1        0.1592
     15 F           0.2358  -17.6895   19.4466 F       1  UNL1       -0.2025
     16 C          -1.7770  -18.8767   20.5824 C.ar    1  UNL1        0.0333
     17 C          -2.9696  -18.8285   21.4908 C.ar    1  UNL1        0.0529
     18 C          -4.7744  -16.2918   23.9406 C.3     1  UNL1        0.2542
     19 O          -4.5349  -17.4970   23.0804 O.3     1  UNL1       -0.4563
     20 C         -10.0773  -19.2592   19.0593 C.3     1  UNL1        0.0582
     21 C         -10.9237  -18.4668   20.0110 C.ar    1  UNL1        0.0044
     22 C         -11.7576  -17.2697   19.6624 C.ar    1  UNL1        0.0966
     23 N         -12.4339  -16.7955   20.9144 N.ar    1  UNL1       -0.2273
     24 C         -12.0180  -17.6994   22.0369 C.ar    1  UNL1        0.1403
     25 N         -12.3687  -17.7154   23.4952 N.ar    1  UNL1       -0.3369
     26 C         -11.7859  -18.7643   24.3952 C.ar    1  UNL1        0.0839
     27 C         -10.8525  -19.7973   23.8369 C.ar    1  UNL1        0.0855
     28 C         -10.5018  -19.7813   22.3786 C.ar    1  UNL1        0.0145
     29 C         -11.0846  -18.7324   21.4786 C.ar    1  UNL1        0.0325
     30 H         -12.9813  -17.0374   23.8616 H       1  UNL1        0.1674
     31 C         -10.2697  -20.8462   24.7370 C.1     1  UNL1        0.1019
     32 N          -9.6869  -21.8951   25.6370 N.1     1  UNL1       -0.1908
@<TRIPOS>BOND
     1    18    19    1
     2    19    11    1
     3    11    12   ar
     4    12    13   ar
     5    13    14   ar
     6    14    15    1
     7    14    16   ar
     8    16    17   ar
     9    17    10    1
    10    10     8    1
    11     8     1    1
    12     1     2   ar
    13     2     3   ar
    14     3     4   ar
    15     4    20    1
    16    20    21    1
    17    21    22   ar
    18    22    23   ar
    19    23    24   ar
    20    24    25   ar
    21    25    26   ar
    22    26    27   ar
    23    27    31    1
    24    31    32    3
    25    27    28   ar
    26    28    29   ar
    27     4     5   ar
    28     5     6    1
    29     5     7   ar
    30    17    11   ar
    31     7     1   ar
    32    29    21   ar
    33    29    24    1
    34     8     9    1
    35    25    30    1
@<TRIPOS>MOLECULE
*****
 32 35 0 0 0
SMALL
GASTEIGER

@<TRIPOS>ATOM
      1 C          -4.8209  -16.0684   23.6383 C.ar    1  UNL1        0.1311
      2 C          -5.9309  -16.5750   22.7657 C.ar    1  UNL1        0.0339
      3 C          -7.3248  -16.6789   23.3099 C.ar    1  UNL1        0.0027
      4 C          -7.6088  -16.2761   24.7266 C.ar    1  UNL1        0.0283
      5 C          -6.4989  -15.7694   25.5992 C.ar    1  UNL1        0.2196
      6 F          -6.7829  -15.3666   27.0159 F       1  UNL1       -0.1835
      7 N          -5.1050  -15.6656   25.0550 N.ar    1  UNL1       -0.2035
      8 N          -3.4270  -15.9645   23.0942 N.pl3   1  UNL1       -0.3143
      9 H          -3.0364  -15.0805   22.9065 H       1  UNL1        0.1485
     10 C          -2.6280  -17.2075   22.8359 C.3     1  UNL1        0.1201
     11 C          -3.6928  -19.0127   21.3005 C.ar    1  UNL1        0.2225
     12 N          -3.7809  -19.6978   19.9690 N.ar    1  UNL1       -0.2080
     13 C          -2.8923  -19.2628   18.8415 C.ar    1  UNL1        0.1316
     14 C          -1.9157  -18.1427   19.0455 C.ar    1  UNL1        0.1592
     15 F          -1.0272  -17.7078   17.9179 F       1  UNL1       -0.2025
     16 C          -1.8276  -17.4576   20.3770 C.ar    1  UNL1        0.0333
     17 C          -2.7162  -17.8926   21.5045 C.ar    1  UNL1        0.0529
     18 C          -5.8408  -20.2095   22.1395 C.3     1  UNL1        0.2542
     19 O          -4.5813  -19.4477   22.4280 O.3     1  UNL1       -0.4563
     20 C          -9.0028  -16.3799   25.2708 C.3     1  UNL1        0.0582
     21 C          -9.9378  -17.4274   24.7431 C.ar    1  UNL1        0.0044
     22 C         -10.4102  -18.6423   25.4854 C.ar    1  UNL1        0.0966
     23 N         -11.3289  -19.4097   24.5814 N.ar    1  UNL1       -0.2273
     24 C         -11.4243  -18.6691   23.2805 C.ar    1  UNL1        0.1403
     25 N         -12.1830  -18.9520   22.0178 N.ar    1  UNL1       -0.3369
     26 C         -12.0819  -18.0098   20.8551 C.ar    1  UNL1        0.0839
     27 C         -11.2222  -16.7847   20.9550 C.ar    1  UNL1        0.0855
     28 C         -10.4635  -16.5018   22.2176 C.ar    1  UNL1        0.0145
     29 C         -10.5646  -17.4440   23.3804 C.ar    1  UNL1        0.0325
     30 H         -12.7473  -19.7561   21.9523 H       1  UNL1        0.1674
     31 C         -11.1212  -15.8425   19.7921 C.1     1  UNL1        0.1019
     32 N         -11.0202  -14.9004   18.6294 N.1     1  UNL1       -0.1908
@<TRIPOS>BOND
     1    18    19    1
     2    19    11    1
     3    11    12   ar
     4    12    13   ar
     5    13    14   ar
     6    14    15    1
     7    14    16   ar
     8    16    17   ar
     9    17    10    1
    10    10     8    1
    11     8     1    1
    12     1     2   ar
    13     2     3   ar
    14     3     4   ar
    15     4    20    1
    16    20    21    1
    17    21    22   ar
    18    22    23   ar
    19    23    24   ar
    20    24    25   ar
    21    25    26   ar
    22    26    27   ar
    23    27    31    1
    24    31    32    3
    25    27    28   ar
    26    28    29   ar
    27     4     5   ar
    28     5     6    1
    29     5     7   ar
    30    17    11   ar
    31     7     1   ar
    32    29    21   ar
    33    29    24    1
    34     8     9    1
    35    25    30    1
@<TRIPOS>MOLECULE
*****
 32 35 0 0 0
SMALL
GASTEIGER

@<TRIPOS>ATOM
      1 C          -8.2524  -15.9627   23.8040 C.ar    1  UNL1        0.1311
      2 C          -7.6648  -16.9868   22.8789 C.ar    1  UNL1        0.0339
      3 C          -6.1895  -17.2569   22.8989 C.ar    1  UNL1        0.0027
      4 C          -5.3017  -16.5028   23.8441 C.ar    1  UNL1        0.0283
      5 C          -5.8893  -15.4787   24.7692 C.ar    1  UNL1        0.2196
      6 F          -5.0015  -14.7247   25.7144 F       1  UNL1       -0.1835
      7 N          -7.3646  -15.2087   24.7492 N.ar    1  UNL1       -0.2035
      8 N          -9.7277  -15.6926   23.7840 N.pl3   1  UNL1       -0.3143
      9 H         -10.1700  -15.3160   24.5789 H       1  UNL1        0.1485
     10 C         -10.5292  -15.9962   22.5530 C.3     1  UNL1        0.1201
     11 C         -10.8942  -18.5138   23.0808 C.ar    1  UNL1        0.2225
     12 N         -11.0417  -19.9311   22.6124 N.ar    1  UNL1       -0.2080
     13 C         -10.9718  -20.2482   21.1480 C.ar    1  UNL1        0.1316
     14 C         -10.7544  -19.1479   20.1519 C.ar    1  UNL1        0.1592
     15 F         -10.6846  -19.4651   18.6874 F       1  UNL1       -0.2025
     16 C         -10.6069  -17.7306   20.6203 C.ar    1  UNL1        0.0333
     17 C         -10.6768  -17.4135   22.0847 C.ar    1  UNL1        0.0529
     18 C          -9.9660  -18.7961   25.4909 C.3     1  UNL1        0.2542
     19 O         -10.9640  -18.1967   24.5452 O.3     1  UNL1       -0.4563
     20 C          -3.8263  -16.7729   23.8641 C.3     1  UNL1        0.0582
     21 C          -3.0723  -16.9148   22.5751 C.ar    1  UNL1        0.0044
     22 C          -1.9376  -16.0471   22.1174 C.ar    1  UNL1        0.0966
     23 N          -1.4846  -16.5453   20.7770 N.ar    1  UNL1       -0.2273
     24 C          -2.3393  -17.7209   20.4064 C.ar    1  UNL1        0.1403
     25 N          -2.3509  -18.6130   19.2006 N.ar    1  UNL1       -0.3369
     26 C          -3.3437  -19.7334   19.1061 C.ar    1  UNL1        0.0839
     27 C          -4.3249  -19.9618   20.2174 C.ar    1  UNL1        0.0855
     28 C          -4.3133  -19.0697   21.4232 C.ar    1  UNL1        0.0145
     29 C          -3.3206  -17.9493   21.5177 C.ar    1  UNL1        0.0325
     30 H          -1.7069  -18.4631   18.4712 H       1  UNL1        0.1674
     31 C          -5.3177  -21.0823   20.1229 C.1     1  UNL1        0.1019
     32 N          -6.3105  -22.2027   20.0283 N.1     1  UNL1       -0.1908
@<TRIPOS>BOND
     1    18    19    1
     2    19    11    1
     3    11    12   ar
     4    12    13   ar
     5    13    14   ar
     6    14    15    1
     7    14    16   ar
     8    16    17   ar
     9    17    10    1
    10    10     8    1
    11     8     1    1
    12     1     2   ar
    13     2     3   ar
    14     3     4   ar
    15     4    20    1
    16    20    21    1
    17    21    22   ar
    18    22    23   ar
    19    23    24   ar
    20    24    25   ar
    21    25    26   ar
    22    26    27   ar
    23    27    31    1
    24    31    32    3
    25    27    28   ar
    26    28    29   ar
    27     4     5   ar
    28     5     6    1
    29     5     7   ar
    30    17    11   ar
    31     7     1   ar
    32    29    21   ar
    33    29    24    1
    34     8     9    1
    35    25    30    1
@<TRIPOS>MOLECULE
*****
 32 35 0 0 0
SMALL
GASTEIGER

@<TRIPOS>ATOM
      1 C          -5.0907  -20.2744   20.4488 C.ar    1  UNL1        0.1311
      2 C          -5.7745  -19.3202   19.5149 C.ar    1  UNL1        0.0339
      3 C          -7.1728  -18.8608   19.8037 C.ar    1  UNL1        0.0027
      4 C          -7.8874  -19.3555   21.0263 C.ar    1  UNL1        0.0283
      5 C          -7.2037  -20.3096   21.9601 C.ar    1  UNL1        0.2196
      6 F          -7.9183  -20.8043   23.1826 F       1  UNL1       -0.1835
      7 N          -5.8053  -20.7690   21.6713 N.ar    1  UNL1       -0.2035
      8 N          -3.6923  -20.7338   20.1601 N.pl3   1  UNL1       -0.3143
      9 H          -3.5406  -21.5150   19.5804 H       1  UNL1        0.1485
     10 C          -2.5249  -20.0031   20.7545 C.3     1  UNL1        0.1201
     11 C          -2.3166  -17.4135   20.7759 C.ar    1  UNL1        0.2225
     12 N          -2.5276  -16.0990   21.4669 N.ar    1  UNL1       -0.2080
     13 C          -3.1578  -16.0596   22.8276 C.ar    1  UNL1        0.1316
     14 C          -3.5769  -17.3347   23.4972 C.ar    1  UNL1        0.1592
     15 F          -4.2071  -17.2952   24.8579 F       1  UNL1       -0.2025
     16 C          -3.3660  -18.6492   22.8061 C.ar    1  UNL1        0.0333
     17 C          -2.7358  -18.6886   21.4455 C.ar    1  UNL1        0.0529
     18 C          -2.5375  -17.2986   18.1898 C.3     1  UNL1        0.2542
     19 O          -1.6865  -17.4529   19.4152 O.3     1  UNL1       -0.4563
     20 C          -9.2859  -18.8960   21.3150 C.3     1  UNL1        0.0582
     21 C          -9.7999  -18.8973   22.7242 C.ar    1  UNL1        0.0044
     22 C         -10.9551  -19.7027   23.2406 C.ar    1  UNL1        0.0966
     23 N         -11.1180  -19.3966   24.7000 N.ar    1  UNL1       -0.2273
     24 C         -10.0634  -18.4019   25.0855 C.ar    1  UNL1        0.1403
     25 N          -9.7397  -17.7374   26.3907 N.ar    1  UNL1       -0.3369
     26 C          -8.6014  -16.7643   26.4747 C.ar    1  UNL1        0.0839
     27 C          -7.7867  -16.4557   25.2536 C.ar    1  UNL1        0.0855
     28 C          -8.1104  -17.1203   23.9484 C.ar    1  UNL1        0.0145
     29 C          -9.2488  -18.0934   23.8644 C.ar    1  UNL1        0.0325
     30 H         -10.2744  -17.9399   27.1921 H       1  UNL1        0.1674
     31 C          -6.6483  -15.4825   25.3377 C.1     1  UNL1        0.1019
     32 N          -5.5100  -14.5094   25.4219 N.1     1  UNL1       -0.1908
@<TRIPOS>BOND
     1    18    19    1
     2    19    11    1
     3    11    12   ar
     4    12    13   ar
     5    13    14   ar
     6    14    15    1
     7    14    16   ar
     8    16    17   ar
     9    17    10    1
    10    10     8    1
    11     8     1    1
    12     1     2   ar
    13     2     3   ar
    14     3     4   ar
    15     4    20    1
    16    20    21    1
    17    21    22   ar
    18    22    23   ar
    19    23    24   ar
    20    24    25   ar
    21    25    26   ar
    22    26    27   ar
    23    27    31    1
    24    31    32    3
    25    27    28   ar
    26    28    29   ar
    27     4     5   ar
    28     5     6    1
    29     5     7   ar
    30    17    11   ar
    31     7     1   ar
    32    29    21   ar
    33    29    24    1
    34     8     9    1
    35    25    30    1
@<TRIPOS>MOLECULE
*****
 32 35 0 0 0
SMALL
GASTEIGER

@<TRIPOS>ATOM
      1 C           6.3336   -2.8312   24.6772 C.ar    1  UNL1        0.1311
      2 C           4.9126   -2.4791   24.3504 C.ar    1  UNL1        0.0339
      3 C           4.3328   -2.8589   23.0202 C.ar    1  UNL1        0.0027
      4 C           5.1740   -3.5906   22.0167 C.ar    1  UNL1        0.0283
      5 C           6.5950   -3.9426   22.3434 C.ar    1  UNL1        0.2196
      6 F           7.4361   -4.6743   21.3399 F       1  UNL1       -0.1835
      7 N           7.1748   -3.5629   23.6737 N.ar    1  UNL1       -0.2035
      8 N           6.9135   -2.4515   26.0074 N.pl3   1  UNL1       -0.3143
      9 H           7.8640   -2.2051   26.0778 H       1  UNL1        0.1485
     10 C           6.0451   -2.4473   27.2306 C.3     1  UNL1        0.1201
     11 C           6.5352   -4.8351   28.1296 C.ar    1  UNL1        0.2225
     12 N           6.8466   -5.7538   29.2737 N.ar    1  UNL1       -0.2080
     13 C           6.9793   -5.2034   30.6628 C.ar    1  UNL1        0.1316
     14 C           6.8007   -3.7344   30.9078 C.ar    1  UNL1        0.1592
     15 F           6.9335   -3.1842   32.2969 F       1  UNL1       -0.2025
     16 C           6.4893   -2.8157   29.7637 C.ar    1  UNL1        0.0333
     17 C           6.3565   -3.3660   28.3746 C.ar    1  UNL1        0.0529
     18 C           7.4816   -6.2593   26.1737 C.3     1  UNL1        0.2542
     19 O           6.4024   -5.3854   26.7405 O.3     1  UNL1       -0.4563
     20 C           4.5941   -3.9703   20.6864 C.3     1  UNL1        0.0582
     21 C           4.7276   -3.0403   19.5170 C.ar    1  UNL1        0.0044
     22 C           5.7711   -3.1193   18.4424 C.ar    1  UNL1        0.0966
     23 N           5.5295   -1.9959   17.4783 N.ar    1  UNL1       -0.2273
     24 C           4.3367   -1.2226   17.9570 C.ar    1  UNL1        0.1403
     25 N           3.6378   -0.0141   17.4084 N.ar    1  UNL1       -0.3369
     26 C           2.4433    0.5488   18.1198 C.ar    1  UNL1        0.0839
     27 C           1.9477   -0.0967   19.3798 C.ar    1  UNL1        0.0855
     28 C           2.6466   -1.3051   19.9285 C.ar    1  UNL1        0.0145
     29 C           3.8411   -1.8681   19.2171 C.ar    1  UNL1        0.0325
     30 H           3.9630    0.4095   16.5814 H       1  UNL1        0.1674
     31 C           0.7531    0.4664   20.0913 C.1     1  UNL1        0.1019
     32 N          -0.4414    1.0294   20.8027 N.1     1  UNL1       -0.1908
@<TRIPOS>BOND
     1    18    19    1
     2    19    11    1
     3    11    12   ar
     4    12    13   ar
     5    13    14   ar
     6    14    15    1
     7    14    16   ar
     8    16    17   ar
     9    17    10    1
    10    10     8    1
    11     8     1    1
    12     1     2   ar
    13     2     3   ar
    14     3     4   ar
    15     4    20    1
    16    20    21    1
    17    21    22   ar
    18    22    23   ar
    19    23    24   ar
    20    24    25   ar
    21    25    26   ar
    22    26    27   ar
    23    27    31    1
    24    31    32    3
    25    27    28   ar
    26    28    29   ar
    27     4     5   ar
    28     5     6    1
    29     5     7   ar
    30    17    11   ar
    31     7     1   ar
    32    29    21   ar
    33    29    24    1
    34     8     9    1
    35    25    30    1
@<TRIPOS>MOLECULE
*****
 32 35 0 0 0
SMALL
GASTEIGER

@<TRIPOS>ATOM
      1 C          -5.2677  -20.2174   20.3051 C.ar    1  UNL1        0.1311
      2 C          -6.1419  -19.4564   19.3530 C.ar    1  UNL1        0.0339
      3 C          -7.5688  -19.1666   19.7134 C.ar    1  UNL1        0.0027
      4 C          -8.1214  -19.6377   21.0259 C.ar    1  UNL1        0.0283
      5 C          -7.2472  -20.3987   21.9780 C.ar    1  UNL1        0.2196
      6 F          -7.7998  -20.8698   23.2905 F       1  UNL1       -0.1835
      7 N          -5.8203  -20.6886   21.6176 N.ar    1  UNL1       -0.2035
      8 N          -3.8407  -20.5073   19.9448 N.pl3   1  UNL1       -0.3143
      9 H          -3.6260  -20.9162   19.0753 H       1  UNL1        0.1485
     10 C          -2.7410  -20.1743   20.9091 C.3     1  UNL1        0.1201
     11 C          -2.7861  -17.6715   21.6046 C.ar    1  UNL1        0.2225
     12 N          -2.1623  -16.3075   21.5889 N.ar    1  UNL1       -0.2080
     13 C          -0.8697  -16.0822   20.8619 C.ar    1  UNL1        0.1316
     14 C          -0.2009  -17.2210   20.1507 C.ar    1  UNL1        0.1592
     15 F           1.0917  -16.9957   19.4237 F       1  UNL1       -0.2025
     16 C          -0.8247  -18.5850   20.1664 C.ar    1  UNL1        0.0333
     17 C          -2.1173  -18.8103   20.8934 C.ar    1  UNL1        0.0529
     18 C          -4.0880  -18.0118   23.8271 C.3     1  UNL1        0.2542
     19 O          -4.0787  -17.8968   22.3316 O.3     1  UNL1       -0.4563
     20 C          -9.5484  -19.3478   21.3863 C.3     1  UNL1        0.0582
     21 C          -9.8719  -18.6792   22.6895 C.ar    1  UNL1        0.0044
     22 C         -11.0628  -18.9652   23.5555 C.ar    1  UNL1        0.0966
     23 N         -10.9881  -18.0699   24.7567 N.ar    1  UNL1       -0.2273
     24 C          -9.7510  -17.2306   24.6331 C.ar    1  UNL1        0.1403
     25 N          -9.1636  -16.1721   25.5188 N.ar    1  UNL1       -0.3369
     26 C          -7.8864  -15.4902   25.1269 C.ar    1  UNL1        0.0839
     27 C          -7.1965  -15.8667   23.8493 C.ar    1  UNL1        0.0855
     28 C          -7.7839  -16.9252   22.9636 C.ar    1  UNL1        0.0145
     29 C          -9.0612  -17.6071   23.3555 C.ar    1  UNL1        0.0325
     30 H          -9.6164  -15.9249   26.3573 H       1  UNL1        0.1674
     31 C          -5.9192  -15.1848   23.4574 C.1     1  UNL1        0.1019
     32 N          -4.6420  -14.5028   23.0656 N.1     1  UNL1       -0.1908
@<TRIPOS>BOND
     1    18    19    1
     2    19    11    1
     3    11    12   ar
     4    12    13   ar
     5    13    14   ar
     6    14    15    1
     7    14    16   ar
     8    16    17   ar
     9    17    10    1
    10    10     8    1
    11     8     1    1
    12     1     2   ar
    13     2     3   ar
    14     3     4   ar
    15     4    20    1
    16    20    21    1
    17    21    22   ar
    18    22    23   ar
    19    23    24   ar
    20    24    25   ar
    21    25    26   ar
    22    26    27   ar
    23    27    31    1
    24    31    32    3
    25    27    28   ar
    26    28    29   ar
    27     4     5   ar
    28     5     6    1
    29     5     7   ar
    30    17    11   ar
    31     7     1   ar
    32    29    21   ar
    33    29    24    1
    34     8     9    1
    35    25    30    1
