@<TRIPOS>MOLECULE
*****
 28 30 0 0 0
SMALL
GASTEIGER

@<TRIPOS>ATOM
      1 C          -9.4205  -16.5531   22.8805 C.ar    1  UNL1        0.0842
      2 C         -10.8014  -16.1027   22.5062 C.ar    1  UNL1        0.0440
      3 C         -11.0661  -16.5420   21.0966 C.ar    1  UNL1        0.1740
      4 N          -9.8488  -17.2639   20.5997 N.ar    1  UNL1       -0.1611
      5 N          -8.8317  -17.2708   21.7022 N.ar    1  UNL1       -0.2297
      6 C          -6.7249  -15.6438   28.1633 C.3     1  UNL1        0.0310
      7 C          -7.3988  -15.8711   26.8426 C.ar    1  UNL1       -0.0218
      8 C          -7.0042  -15.0534   25.6486 C.ar    1  UNL1       -0.0042
      9 C          -7.6781  -15.2807   24.3280 C.ar    1  UNL1        0.0012
     10 C          -8.7466  -16.3258   24.2012 C.ar    1  UNL1        0.0177
     11 C          -9.1412  -17.1435   25.3951 C.ar    1  UNL1        0.0012
     12 C          -8.4673  -16.9162   26.7158 C.ar    1  UNL1       -0.0042
     13 C          -7.4657  -17.8871   21.6378 C.ar    1  UNL1        0.0829
     14 C          -6.4647  -17.6072   22.7194 C.ar    1  UNL1        0.0205
     15 C          -5.0987  -18.2235   22.6549 C.ar    1  UNL1        0.0214
     16 C          -4.7337  -19.1198   21.5089 C.ar    1  UNL1        0.1218
     17 C          -5.7346  -19.3997   20.4274 C.ar    1  UNL1        0.0214
     18 C          -7.1006  -18.7834   20.4918 C.ar    1  UNL1        0.0205
     19 S          -3.3677  -19.7362   21.4444 S.O2    1  UNL1        0.0572
     20 N          -2.0017  -20.3525   21.3799 N.3     1  UNL1       -0.2035
     21 O          -3.8295  -20.6444   20.3436 O.2     1  UNL1       -0.1532
     22 O          -2.9059  -18.8279   22.5453 O.2     1  UNL1       -0.1532
     23 H          -1.9882  -21.0745   20.6595 H       1  UNL1        0.1442
     24 H          -1.7736  -20.7687   22.2828 H       1  UNL1        0.1442
     25 C         -12.3269  -16.3016   20.3202 C.3     1  UNL1        0.4366
     26 F         -13.5876  -16.0611   19.5439 F       1  UNL1       -0.1643
     27 F         -11.5805  -15.3918   19.3901 F       1  UNL1       -0.1643
     28 F         -13.0732  -17.2114   21.2504 F       1  UNL1       -0.1643
@<TRIPOS>BOND
     1     6     7    1
     2     7     8   ar
     3     8     9   ar
     4     9    10   ar
     5    10     1    1
     6     1     2   ar
     7     2     3   ar
     8     3    25    1
     9    25    26    1
    10    25    27    1
    11    25    28    1
    12     3     4   ar
    13     4     5   ar
    14     5    13    1
    15    13    14   ar
    16    14    15   ar
    17    15    16   ar
    18    16    19    1
    19    19    20    1
    20    19    21    2
    21    19    22    2
    22    16    17   ar
    23    17    18   ar
    24    10    11   ar
    25    11    12   ar
    26    12     7   ar
    27     5     1   ar
    28    18    13   ar
    29    20    23    1
    30    20    24    1
@<TRIPOS>MOLECULE
*****
 28 30 0 0 0
SMALL
GASTEIGER

@<TRIPOS>ATOM
      1 C          -7.3587  -17.0571   23.4985 C.ar    1  UNL1        0.0842
      2 C          -8.2494  -16.4969   24.5676 C.ar    1  UNL1        0.0440
      3 C          -7.3824  -15.8074   25.5790 C.ar    1  UNL1        0.1740
      4 N          -5.9559  -15.9415   25.1350 N.ar    1  UNL1       -0.1611
      5 N          -5.9413  -16.7139   23.8492 N.ar    1  UNL1       -0.2297
      6 C          -9.1511  -20.1312   18.6676 C.3     1  UNL1        0.0310
      7 C          -8.7030  -19.3627   19.8754 C.ar    1  UNL1       -0.0218
      8 C          -7.2539  -19.3520   20.2624 C.ar    1  UNL1       -0.0042
      9 C          -6.8058  -18.5835   21.4701 C.ar    1  UNL1        0.0012
     10 C          -7.8068  -17.8256   22.2908 C.ar    1  UNL1        0.0177
     11 C          -9.2560  -17.8363   21.9037 C.ar    1  UNL1        0.0012
     12 C          -9.7041  -18.6048   20.6960 C.ar    1  UNL1       -0.0042
     13 C          -4.7230  -17.0789   23.0538 C.ar    1  UNL1        0.0829
     14 C          -3.7963  -16.0049   22.5659 C.ar    1  UNL1        0.0205
     15 C          -2.5781  -16.3700   21.7705 C.ar    1  UNL1        0.0214
     16 C          -2.2865  -17.8088   21.4630 C.ar    1  UNL1        0.1218
     17 C          -3.2132  -18.8827   21.9509 C.ar    1  UNL1        0.0214
     18 C          -4.4314  -18.5177   22.7463 C.ar    1  UNL1        0.0205
     19 S          -1.0683  -18.1739   20.6676 S.O2    1  UNL1        0.0572
     20 N           0.1499  -18.5389   19.8722 N.3     1  UNL1       -0.2035
     21 O          -1.3681  -19.6287   20.8763 O.2     1  UNL1       -0.1532
     22 O          -0.7686  -16.7190   20.4590 O.2     1  UNL1       -0.1532
     23 H           0.2339  -19.5544   19.8257 H       1  UNL1        0.1442
     24 H           0.9786  -18.1494   20.3216 H       1  UNL1        0.1442
     25 C          -7.8584  -15.1069   26.8170 C.3     1  UNL1        0.4366
     26 F          -8.3344  -14.4063   28.0550 F       1  UNL1       -0.1643
     27 F          -9.2124  -14.9300   26.1963 F       1  UNL1       -0.1643
     28 F          -6.5043  -15.2837   27.4377 F       1  UNL1       -0.1643
@<TRIPOS>BOND
     1     6     7    1
     2     7     8   ar
     3     8     9   ar
     4     9    10   ar
     5    10     1    1
     6     1     2   ar
     7     2     3   ar
     8     3    25    1
     9    25    26    1
    10    25    27    1
    11    25    28    1
    12     3     4   ar
    13     4     5   ar
    14     5    13    1
    15    13    14   ar
    16    14    15   ar
    17    15    16   ar
    18    16    19    1
    19    19    20    1
    20    19    21    2
    21    19    22    2
    22    16    17   ar
    23    17    18   ar
    24    10    11   ar
    25    11    12   ar
    26    12     7   ar
    27     5     1   ar
    28    18    13   ar
    29    20    23    1
    30    20    24    1
@<TRIPOS>MOLECULE
*****
 28 30 0 0 0
SMALL
GASTEIGER

@<TRIPOS>ATOM
      1 C          -6.3334  -19.3586   21.0374 C.ar    1  UNL1        0.0842
      2 C          -4.8368  -19.2711   21.0860 C.ar    1  UNL1        0.0440
      3 C          -4.4554  -18.5475   22.3434 C.ar    1  UNL1        0.1740
      4 N          -5.7163  -18.1879   23.0719 N.ar    1  UNL1       -0.1611
      5 N          -6.8770  -18.6892   22.2647 N.ar    1  UNL1       -0.2297
      6 C          -9.5763  -21.9344   16.6958 C.3     1  UNL1        0.0310
      7 C          -8.7655  -21.2905   17.7812 C.ar    1  UNL1       -0.0218
      8 C          -9.1624  -19.9468   18.3169 C.ar    1  UNL1       -0.0042
      9 C          -8.3517  -19.3029   19.4023 C.ar    1  UNL1        0.0012
     10 C          -7.1441  -20.0026   19.9520 C.ar    1  UNL1        0.0177
     11 C          -6.7473  -21.3463   19.4162 C.ar    1  UNL1        0.0012
     12 C          -7.5580  -21.9902   18.3308 C.ar    1  UNL1       -0.0042
     13 C          -8.3268  -18.5461   22.6221 C.ar    1  UNL1        0.0829
     14 C          -9.0093  -17.2189   22.4703 C.ar    1  UNL1        0.0205
     15 C         -10.4590  -17.0759   22.8277 C.ar    1  UNL1        0.0214
     16 C         -11.2263  -18.2599   23.3369 C.ar    1  UNL1        0.1218
     17 C         -10.5438  -19.5870   23.4887 C.ar    1  UNL1        0.0214
     18 C          -9.0941  -19.7301   23.1313 C.ar    1  UNL1        0.0205
     19 S         -12.6761  -18.1168   23.6944 S.O2    1  UNL1        0.0572
     20 N         -14.1257  -17.9738   24.0517 N.3     1  UNL1       -0.2035
     21 O         -12.9291  -17.4216   22.3895 O.2     1  UNL1       -0.1532
     22 O         -12.4230  -18.8121   24.9992 O.2     1  UNL1       -0.1532
     23 H         -14.6166  -17.4956   23.2962 H       1  UNL1        0.1442
     24 H         -14.2122  -17.4305   24.9107 H       1  UNL1        0.1442
     25 C          -3.0583  -18.2380   22.7933 C.3     1  UNL1        0.4366
     26 F          -1.6613  -17.9284   23.2432 F       1  UNL1       -0.1643
     27 F          -3.5495  -16.9856   23.4569 F       1  UNL1       -0.1643
     28 F          -2.5671  -19.4903   22.1297 F       1  UNL1       -0.1643
@<TRIPOS>BOND
     1     6     7    1
     2     7     8   ar
     3     8     9   ar
     4     9    10   ar
     5    10     1    1
     6     1     2   ar
     7     2     3   ar
     8     3    25    1
     9    25    26    1
    10    25    27    1
    11    25    28    1
    12     3     4   ar
    13     4     5   ar
    14     5    13    1
    15    13    14   ar
    16    14    15   ar
    17    15    16   ar
    18    16    19    1
    19    19    20    1
    20    19    21    2
    21    19    22    2
    22    16    17   ar
    23    17    18   ar
    24    10    11   ar
    25    11    12   ar
    26    12     7   ar
    27     5     1   ar
    28    18    13   ar
    29    20    23    1
    30    20    24    1
@<TRIPOS>MOLECULE
*****
 28 30 0 0 0
SMALL
GASTEIGER

@<TRIPOS>ATOM
      1 C          -6.1344  -17.9112   22.6875 C.ar    1  UNL1        0.0842
      2 C          -4.8880  -18.2887   21.9432 C.ar    1  UNL1        0.0440
      3 C          -5.2776  -19.2049   20.8212 C.ar    1  UNL1        0.1740
      4 N          -6.7648  -19.3936   20.8720 N.ar    1  UNL1       -0.1611
      5 N          -7.2943  -18.5941   22.0255 N.ar    1  UNL1       -0.2297
      6 C          -6.4287  -14.3034   27.4726 C.3     1  UNL1        0.0310
      7 C          -6.3551  -15.2054   26.2763 C.ar    1  UNL1       -0.0218
      8 C          -5.0370  -15.7811   25.8510 C.ar    1  UNL1       -0.0042
      9 C          -4.9634  -16.6830   24.6548 C.ar    1  UNL1        0.0012
     10 C          -6.2080  -17.0093   23.8838 C.ar    1  UNL1        0.0177
     11 C          -7.5262  -16.4336   24.3091 C.ar    1  UNL1        0.0012
     12 C          -7.5997  -15.5316   25.5053 C.ar    1  UNL1       -0.0042
     13 C          -8.7315  -18.4948   22.4434 C.ar    1  UNL1        0.0829
     14 C          -9.6207  -17.4539   21.8304 C.ar    1  UNL1        0.0205
     15 C         -11.0579  -17.3546   22.2484 C.ar    1  UNL1        0.0214
     16 C         -11.6059  -18.2963   23.2793 C.ar    1  UNL1        0.1218
     17 C         -10.7167  -19.3372   23.8923 C.ar    1  UNL1        0.0214
     18 C          -9.2795  -19.4365   23.4744 C.ar    1  UNL1        0.0205
     19 S         -13.0431  -18.1971   23.6973 S.O2    1  UNL1        0.0572
     20 N         -14.4801  -18.0979   24.1153 N.3     1  UNL1       -0.2035
     21 O         -12.6854  -18.7298   25.0532 O.2     1  UNL1       -0.1532
     22 O         -13.4006  -17.6644   22.3414 O.2     1  UNL1       -0.1532
     23 H         -14.5766  -18.4169   25.0793 H       1  UNL1        0.1442
     24 H         -15.0527  -18.6812   23.5052 H       1  UNL1        0.1442
     25 C          -4.3439  -19.8236   19.8236 C.3     1  UNL1        0.4366
     26 F          -3.4102  -20.4424   18.8259 F       1  UNL1       -0.1643
     27 F          -4.9376  -21.1722   20.1043 F       1  UNL1       -0.1643
     28 F          -3.7502  -18.4750   19.5428 F       1  UNL1       -0.1643
@<TRIPOS>BOND
     1     6     7    1
     2     7     8   ar
     3     8     9   ar
     4     9    10   ar
     5    10     1    1
     6     1     2   ar
     7     2     3   ar
     8     3    25    1
     9    25    26    1
    10    25    27    1
    11    25    28    1
    12     3     4   ar
    13     4     5   ar
    14     5    13    1
    15    13    14   ar
    16    14    15   ar
    17    15    16   ar
    18    16    19    1
    19    19    20    1
    20    19    21    2
    21    19    22    2
    22    16    17   ar
    23    17    18   ar
    24    10    11   ar
    25    11    12   ar
    26    12     7   ar
    27     5     1   ar
    28    18    13   ar
    29    20    23    1
    30    20    24    1
@<TRIPOS>MOLECULE
*****
 28 30 0 0 0
SMALL
GASTEIGER

@<TRIPOS>ATOM
      1 C         -14.1376   -7.3390   18.2864 C.ar    1  UNL1        0.0842
      2 C         -14.3755   -8.8179   18.2078 C.ar    1  UNL1        0.0440
      3 C         -15.7768   -9.0873   18.6700 C.ar    1  UNL1        0.1740
      4 N         -16.4051   -7.7748   19.0343 N.ar    1  UNL1       -0.1611
      5 N         -15.3920   -6.6943   18.7973 N.ar    1  UNL1       -0.2297
      6 C          -9.0602   -4.5003   16.8160 C.3     1  UNL1        0.0310
      7 C         -10.3296   -5.2100   17.1836 C.ar    1  UNL1       -0.0218
      8 C         -10.4703   -5.8428   18.5362 C.ar    1  UNL1       -0.0042
      9 C         -11.7397   -6.5525   18.9038 C.ar    1  UNL1        0.0012
     10 C         -12.8683   -6.6293   17.9188 C.ar    1  UNL1        0.0177
     11 C         -12.7275   -5.9965   16.5662 C.ar    1  UNL1        0.0012
     12 C         -11.4582   -5.2868   16.1986 C.ar    1  UNL1       -0.0042
     13 C         -15.5973   -5.2268   19.0302 C.ar    1  UNL1        0.0829
     14 C         -14.6762   -4.4767   19.9463 C.ar    1  UNL1        0.0205
     15 C         -14.8815   -3.0092   20.1792 C.ar    1  UNL1        0.0214
     16 C         -16.0078   -2.2917   19.4961 C.ar    1  UNL1        0.1218
     17 C         -16.9288   -3.0418   18.5801 C.ar    1  UNL1        0.0214
     18 C         -16.7235   -4.5093   18.3472 C.ar    1  UNL1        0.0205
     19 S         -16.2130   -0.8242   19.7290 S.O2    1  UNL1        0.0572
     20 N         -16.4183    0.6432   19.9620 N.3     1  UNL1       -0.2035
     21 O         -14.8182   -0.5529   19.2485 O.2     1  UNL1       -0.1532
     22 O         -17.6078   -1.0956   20.2096 O.2     1  UNL1       -0.1532
     23 H         -15.5706    1.1498   19.7067 H       1  UNL1        0.1442
     24 H         -16.6275    0.8051   20.9470 H       1  UNL1        0.1442
     25 C         -16.4344  -10.4329   18.7532 C.3     1  UNL1        0.4366
     26 F         -17.0920  -11.7784   18.8365 F       1  UNL1       -0.1643
     27 F         -15.3883  -11.0006   17.8404 F       1  UNL1       -0.1643
     28 F         -17.4806   -9.8651   19.6660 F       1  UNL1       -0.1643
@<TRIPOS>BOND
     1     6     7    1
     2     7     8   ar
     3     8     9   ar
     4     9    10   ar
     5    10     1    1
     6     1     2   ar
     7     2     3   ar
     8     3    25    1
     9    25    26    1
    10    25    27    1
    11    25    28    1
    12     3     4   ar
    13     4     5   ar
    14     5    13    1
    15    13    14   ar
    16    14    15   ar
    17    15    16   ar
    18    16    19    1
    19    19    20    1
    20    19    21    2
    21    19    22    2
    22    16    17   ar
    23    17    18   ar
    24    10    11   ar
    25    11    12   ar
    26    12     7   ar
    27     5     1   ar
    28    18    13   ar
    29    20    23    1
    30    20    24    1
@<TRIPOS>MOLECULE
*****
 28 30 0 0 0
SMALL
GASTEIGER

@<TRIPOS>ATOM
      1 C          -5.5273  -17.3221   23.3505 C.ar    1  UNL1        0.0842
      2 C          -4.0695  -17.5661   23.0950 C.ar    1  UNL1        0.0440
      3 C          -3.9448  -18.3196   21.8040 C.ar    1  UNL1        0.1740
      4 N          -5.3256  -18.5414   21.2616 N.ar    1  UNL1       -0.1611
      5 N          -6.3036  -17.9249   22.2174 N.ar    1  UNL1       -0.2297
      6 C          -7.8461  -14.4412   28.0752 C.3     1  UNL1        0.0310
      7 C          -7.2664  -15.1614   26.8940 C.ar    1  UNL1       -0.0218
      8 C          -5.7867  -15.1320   26.6499 C.ar    1  UNL1       -0.0042
      9 C          -5.2070  -15.8522   25.4687 C.ar    1  UNL1        0.0012
     10 C          -6.1070  -16.6019   24.5317 C.ar    1  UNL1        0.0177
     11 C          -7.5867  -16.6313   24.7759 C.ar    1  UNL1        0.0012
     12 C          -8.1664  -15.9111   25.9570 C.ar    1  UNL1       -0.0042
     13 C          -7.7960  -17.9132   22.0664 C.ar    1  UNL1        0.0829
     14 C          -8.5797  -19.1769   22.2644 C.ar    1  UNL1        0.0205
     15 C         -10.0721  -19.1652   22.1135 C.ar    1  UNL1        0.0214
     16 C         -10.7807  -17.8900   21.7646 C.ar    1  UNL1        0.1218
     17 C          -9.9970  -16.6265   21.5667 C.ar    1  UNL1        0.0214
     18 C          -8.5046  -16.6381   21.7176 C.ar    1  UNL1        0.0205
     19 S         -12.2730  -17.8784   21.6137 S.O2    1  UNL1        0.0572
     20 N         -13.7653  -17.8667   21.4628 N.3     1  UNL1       -0.2035
     21 O         -12.1275  -17.3525   20.2164 O.2     1  UNL1       -0.1532
     22 O         -12.4184  -18.4042   23.0110 O.2     1  UNL1       -0.1532
     23 H         -14.0103  -17.5270   20.5327 H       1  UNL1        0.1442
     24 H         -14.1735  -17.2527   22.1675 H       1  UNL1        0.1442
     25 C          -2.6642  -18.7720   21.1673 C.3     1  UNL1        0.4366
     26 F          -1.3836  -19.2243   20.5306 F       1  UNL1       -0.1643
     27 F          -2.6795  -20.0091   22.0155 F       1  UNL1       -0.1643
     28 F          -2.6490  -17.5349   20.3192 F       1  UNL1       -0.1643
@<TRIPOS>BOND
     1     6     7    1
     2     7     8   ar
     3     8     9   ar
     4     9    10   ar
     5    10     1    1
     6     1     2   ar
     7     2     3   ar
     8     3    25    1
     9    25    26    1
    10    25    27    1
    11    25    28    1
    12     3     4   ar
    13     4     5   ar
    14     5    13    1
    15    13    14   ar
    16    14    15   ar
    17    15    16   ar
    18    16    19    1
    19    19    20    1
    20    19    21    2
    21    19    22    2
    22    16    17   ar
    23    17    18   ar
    24    10    11   ar
    25    11    12   ar
    26    12     7   ar
    27     5     1   ar
    28    18    13   ar
    29    20    23    1
    30    20    24    1
@<TRIPOS>MOLECULE
*****
 28 30 0 0 0
SMALL
GASTEIGER

@<TRIPOS>ATOM
      1 C         -13.7957   -3.7931   19.0625 C.ar    1  UNL1        0.0842
      2 C         -13.6879   -2.3055   19.2215 C.ar    1  UNL1        0.0440
      3 C         -15.0755   -1.7360   19.2081 C.ar    1  UNL1        0.1740
      4 N         -16.0410   -2.8717   19.0407 N.ar    1  UNL1       -0.1611
      5 N         -15.2500   -4.1430   18.9507 N.ar    1  UNL1       -0.2297
      6 C          -9.2143   -7.6641   18.9015 C.3     1  UNL1        0.0310
      7 C         -10.3596   -6.6963   18.9418 C.ar    1  UNL1       -0.0218
      8 C         -10.0945   -5.2200   18.9417 C.ar    1  UNL1       -0.0042
      9 C         -11.2398   -4.2522   18.9819 C.ar    1  UNL1        0.0012
     10 C         -12.6503   -4.7608   19.0222 C.ar    1  UNL1        0.0177
     11 C         -12.9155   -6.2372   19.0223 C.ar    1  UNL1        0.0012
     12 C         -11.7702   -7.2049   18.9821 C.ar    1  UNL1       -0.0042
     13 C         -15.8143   -5.5222   18.7790 C.ar    1  UNL1        0.0829
     14 C         -16.4579   -6.2192   19.9410 C.ar    1  UNL1        0.0205
     15 C         -17.0223   -7.5984   19.7694 C.ar    1  UNL1        0.0214
     16 C         -16.9430   -8.2806   18.4359 C.ar    1  UNL1        0.1218
     17 C         -16.2994   -7.5836   17.2740 C.ar    1  UNL1        0.0214
     18 C         -15.7351   -6.2044   17.4456 C.ar    1  UNL1        0.0205
     19 S         -17.5073   -9.6598   18.2642 S.O2    1  UNL1        0.0572
     20 N         -18.0716  -11.0388   18.0926 N.3     1  UNL1       -0.2035
     21 O         -16.6423  -10.1532   19.3860 O.2     1  UNL1       -0.1532
     22 O         -18.3722   -9.1663   17.1424 O.2     1  UNL1       -0.1532
     23 H         -17.6450  -11.6678   18.7729 H       1  UNL1        0.1442
     24 H         -17.8727  -11.3726   17.1495 H       1  UNL1        0.1442
     25 C         -15.4346   -0.2855   19.3390 C.3     1  UNL1        0.4366
     26 F         -15.7937    1.1650   19.4700 F       1  UNL1       -0.1643
     27 F         -14.5201    0.0440   18.1966 F       1  UNL1       -0.1643
     28 F         -16.3492   -0.6151   20.4814 F       1  UNL1       -0.1643
@<TRIPOS>BOND
     1     6     7    1
     2     7     8   ar
     3     8     9   ar
     4     9    10   ar
     5    10     1    1
     6     1     2   ar
     7     2     3   ar
     8     3    25    1
     9    25    26    1
    10    25    27    1
    11    25    28    1
    12     3     4   ar
    13     4     5   ar
    14     5    13    1
    15    13    14   ar
    16    14    15   ar
    17    15    16   ar
    18    16    19    1
    19    19    20    1
    20    19    21    2
    21    19    22    2
    22    16    17   ar
    23    17    18   ar
    24    10    11   ar
    25    11    12   ar
    26    12     7   ar
    27     5     1   ar
    28    18    13   ar
    29    20    23    1
    30    20    24    1
@<TRIPOS>MOLECULE
*****
 28 30 0 0 0
SMALL
GASTEIGER

@<TRIPOS>ATOM
      1 C         -16.2970   -3.6503   19.1134 C.ar    1  UNL1        0.0842
      2 C         -17.1688   -2.4656   19.4073 C.ar    1  UNL1        0.0440
      3 C         -16.2858   -1.3417   19.8622 C.ar    1  UNL1        0.1740
      4 N         -14.8681   -1.8317   19.8494 N.ar    1  UNL1       -0.1611
      5 N         -14.8751   -3.2586   19.3866 N.ar    1  UNL1       -0.2297
      6 C         -18.1688   -9.0143   17.1835 C.3     1  UNL1        0.0310
      7 C         -17.7008   -7.6733   17.6660 C.ar    1  UNL1       -0.0218
      8 C         -17.8317   -7.3102   19.1154 C.ar    1  UNL1       -0.0042
      9 C         -17.3638   -5.9692   19.5979 C.ar    1  UNL1        0.0012
     10 C         -16.7650   -4.9913   18.6309 C.ar    1  UNL1        0.0177
     11 C         -16.6341   -5.3544   17.1815 C.ar    1  UNL1        0.0012
     12 C         -17.1020   -6.6954   16.6990 C.ar    1  UNL1       -0.0042
     13 C         -13.6715   -4.1390   19.2254 C.ar    1  UNL1        0.0829
     14 C         -13.7902   -5.6187   19.4416 C.ar    1  UNL1        0.0205
     15 C         -12.5865   -6.4991   19.2803 C.ar    1  UNL1        0.0214
     16 C         -11.2642   -5.9000   18.9029 C.ar    1  UNL1        0.1218
     17 C         -11.1455   -4.4204   18.6867 C.ar    1  UNL1        0.0214
     18 C         -12.3491   -3.5400   18.8480 C.ar    1  UNL1        0.0205
     19 S         -10.0605   -6.7805   18.7417 S.O2    1  UNL1        0.0572
     20 N          -8.8569   -7.6609   18.5805 N.3     1  UNL1       -0.2035
     21 O          -9.2550   -5.8326   19.5800 O.2     1  UNL1       -0.1532
     22 O         -10.8661   -7.7283   17.9034 O.2     1  UNL1       -0.1532
     23 H          -8.0676   -7.2528   19.0813 H       1  UNL1        0.1442
     24 H          -8.6257   -7.7427   17.5904 H       1  UNL1        0.1442
     25 C         -16.7405    0.0313   20.2600 C.3     1  UNL1        0.4366
     26 F         -17.1952    1.4042   20.6579 F       1  UNL1       -0.1643
     27 F         -15.4285    0.5978   19.8044 F       1  UNL1       -0.1643
     28 F         -18.0525   -0.5353   20.7156 F       1  UNL1       -0.1643
@<TRIPOS>BOND
     1     6     7    1
     2     7     8   ar
     3     8     9   ar
     4     9    10   ar
     5    10     1    1
     6     1     2   ar
     7     2     3   ar
     8     3    25    1
     9    25    26    1
    10    25    27    1
    11    25    28    1
    12     3     4   ar
    13     4     5   ar
    14     5    13    1
    15    13    14   ar
    16    14    15   ar
    17    15    16   ar
    18    16    19    1
    19    19    20    1
    20    19    21    2
    21    19    22    2
    22    16    17   ar
    23    17    18   ar
    24    10    11   ar
    25    11    12   ar
    26    12     7   ar
    27     5     1   ar
    28    18    13   ar
    29    20    23    1
    30    20    24    1
@<TRIPOS>MOLECULE
*****
 28 30 0 0 0
SMALL
GASTEIGER

@<TRIPOS>ATOM
      1 C           6.5744   -3.6517   24.5178 C.ar    1  UNL1        0.0842
      2 C           7.1978   -4.5990   25.4996 C.ar    1  UNL1        0.0440
      3 C           7.6712   -5.8050   24.7437 C.ar    1  UNL1        0.1740
      4 N           7.3404   -5.6032   23.2947 N.ar    1  UNL1       -0.1611
      5 N           6.6625   -4.2723   23.1550 N.ar    1  UNL1       -0.2297
      6 C           4.1535    1.6830   25.8137 C.3     1  UNL1        0.0310
      7 C           4.7587    0.3493   25.4897 C.ar    1  UNL1       -0.0218
      8 C           3.8903   -0.7669   24.9900 C.ar    1  UNL1       -0.0042
      9 C           4.4955   -2.1006   24.6660 C.ar    1  UNL1        0.0012
     10 C           5.9692   -2.3180   24.8417 C.ar    1  UNL1        0.0177
     11 C           6.8376   -1.2018   25.3415 C.ar    1  UNL1        0.0012
     12 C           6.2324    0.1319   25.6654 C.ar    1  UNL1       -0.0042
     13 C           6.1609   -3.6682   21.8770 C.ar    1  UNL1        0.0829
     14 C           4.7252   -3.8415   21.4783 C.ar    1  UNL1        0.0205
     15 C           4.2235   -3.2374   20.2002 C.ar    1  UNL1        0.0214
     16 C           5.1575   -2.4600   19.3209 C.ar    1  UNL1        0.1218
     17 C           6.5931   -2.2867   19.7195 C.ar    1  UNL1        0.0214
     18 C           7.0948   -2.8909   20.9976 C.ar    1  UNL1        0.0205
     19 S           4.6559   -1.8559   18.0428 S.O2    1  UNL1        0.0572
     20 N           4.1543   -1.2518   16.7648 N.3     1  UNL1       -0.2035
     21 O           3.3756   -1.4751   18.7254 O.2     1  UNL1       -0.1532
     22 O           5.9362   -2.2366   17.3603 O.2     1  UNL1       -0.1532
     23 H           3.2197   -0.8707   16.9127 H       1  UNL1        0.1442
     24 H           4.1182   -1.9693   16.0408 H       1  UNL1        0.1442
     25 C           8.3552   -7.0027   25.3334 C.3     1  UNL1        0.4366
     26 F           9.0393   -8.2003   25.9230 F       1  UNL1       -0.1643
     27 F           8.0884   -7.7745   24.0752 F       1  UNL1       -0.1643
     28 F           8.6220   -6.2308   26.5916 F       1  UNL1       -0.1643
@<TRIPOS>BOND
     1     6     7    1
     2     7     8   ar
     3     8     9   ar
     4     9    10   ar
     5    10     1    1
     6     1     2   ar
     7     2     3   ar
     8     3    25    1
     9    25    26    1
    10    25    27    1
    11    25    28    1
    12     3     4   ar
    13     4     5   ar
    14     5    13    1
    15    13    14   ar
    16    14    15   ar
    17    15    16   ar
    18    16    19    1
    19    19    20    1
    20    19    21    2
    21    19    22    2
    22    16    17   ar
    23    17    18   ar
    24    10    11   ar
    25    11    12   ar
    26    12     7   ar
    27     5     1   ar
    28    18    13   ar
    29    20    23    1
    30    20    24    1
