@<TRIPOS>MOLECULE
*****
 16 17 0 0 0
SMALL
GASTEIGER

@<TRIPOS>ATOM
      1 CL         -1.8547  -19.6412   21.0241 Cl      1  UNL1       -0.0814
      2 C          -3.3521  -19.6320   21.1121 C.ar    1  UNL1        0.0682
      3 C          -4.1645  -20.4565   20.1581 C.ar    1  UNL1        0.0119
      4 C          -5.6620  -20.4472   20.2462 C.ar    1  UNL1       -0.0033
      5 C          -6.3469  -19.6134   21.2881 C.ar    1  UNL1       -0.0203
      6 C          -5.5344  -18.7889   22.2420 C.ar    1  UNL1        0.0080
      7 C          -4.0370  -18.7981   22.1541 C.ar    1  UNL1        0.0679
      8 CL         -3.2245  -17.9736   23.1080 Cl      1  UNL1       -0.0814
      9 C          -7.8443  -19.6041   21.3761 C.3     1  UNL1        0.0381
     10 C          -8.5719  -19.4616   20.0721 C.3     1  UNL1        0.0058
     11 C         -10.0511  -19.4183   19.8265 C.3     1  UNL1        0.0018
     12 C         -11.1677  -19.5068   20.8240 C.3     1  UNL1        0.0171
     13 C         -11.0812  -19.6605   22.3136 C.3     1  UNL1        0.0686
     14 N          -9.8566  -19.7637   23.1735 N.3     1  UNL1       -0.2972
     15 C          -8.4160  -19.7385   22.7562 C.3     1  UNL1        0.0729
     16 H          -9.9644  -20.6501   23.6665 H       1  UNL1        0.1233
@<TRIPOS>BOND
     1     1     2    1
     2     2     3   ar
     3     3     4   ar
     4     4     5   ar
     5     5     9    1
     6     9    10    1
     7    10    11    1
     8    11    12    1
     9    12    13    1
    10    13    14    1
    11    14    15    1
    12     5     6   ar
    13     6     7   ar
    14     7     8    1
    15     7     2   ar
    16    15     9    1
    17    14    16    1
@<TRIPOS>MOLECULE
*****
 16 17 0 0 0
SMALL
GASTEIGER

@<TRIPOS>ATOM
      1 CL        -12.9462  -18.0862   21.2816 Cl      1  UNL1       -0.0814
      2 C         -11.7936  -17.6016   22.1102 C.ar    1  UNL1        0.0682
      3 C         -11.5427  -18.1940   23.4653 C.ar    1  UNL1        0.0119
      4 C         -10.3901  -17.7093   24.2940 C.ar    1  UNL1       -0.0033
      5 C          -9.4885  -16.6323   23.7676 C.ar    1  UNL1       -0.0203
      6 C          -9.7394  -16.0400   22.4126 C.ar    1  UNL1        0.0080
      7 C         -10.8920  -16.5246   21.5838 C.ar    1  UNL1        0.0679
      8 CL        -11.1429  -15.9322   20.2288 Cl      1  UNL1       -0.0814
      9 C          -8.3359  -16.1477   24.5962 C.3     1  UNL1        0.0381
     10 C          -8.4753  -16.3353   26.0779 C.3     1  UNL1        0.0058
     11 C          -7.5095  -15.9611   27.1630 C.3     1  UNL1        0.0018
     12 C          -6.1659  -15.3068   27.0343 C.3     1  UNL1        0.0171
     13 C          -5.4561  -14.8652   25.7889 C.3     1  UNL1        0.0686
     14 N          -5.9147  -14.9687   24.3644 N.3     1  UNL1       -0.2972
     15 C          -7.1964  -15.5395   23.8337 C.3     1  UNL1        0.0729
     16 H          -5.1835  -15.5064   23.8990 H       1  UNL1        0.1233
@<TRIPOS>BOND
     1     1     2    1
     2     2     3   ar
     3     3     4   ar
     4     4     5   ar
     5     5     9    1
     6     9    10    1
     7    10    11    1
     8    11    12    1
     9    12    13    1
    10    13    14    1
    11    14    15    1
    12     5     6   ar
    13     6     7   ar
    14     7     8    1
    15     7     2   ar
    16    15     9    1
    17    14    16    1
@<TRIPOS>MOLECULE
*****
 16 17 0 0 0
SMALL
GASTEIGER

@<TRIPOS>ATOM
      1 CL         -5.1952  -15.1624   26.4577 Cl      1  UNL1       -0.0814
      2 C          -6.3610  -15.5170   25.5830 C.ar    1  UNL1        0.0682
      3 C          -7.7531  -15.4892   26.1410 C.ar    1  UNL1        0.0119
      4 C          -8.9190  -15.8438   25.2663 C.ar    1  UNL1       -0.0033
      5 C          -8.6927  -16.2262   23.8337 C.ar    1  UNL1       -0.0203
      6 C          -7.3007  -16.2540   23.2756 C.ar    1  UNL1        0.0080
      7 C          -6.1348  -15.8994   24.1503 C.ar    1  UNL1        0.0679
      8 CL         -4.7427  -15.9272   23.5923 Cl      1  UNL1       -0.0814
      9 C          -9.8585  -16.5808   22.9589 C.3     1  UNL1        0.0381
     10 C         -10.9356  -17.3974   23.6095 C.3     1  UNL1        0.0058
     11 C         -12.2133  -17.9068   23.0111 C.3     1  UNL1        0.0018
     12 C         -12.7295  -17.7255   21.6146 C.3     1  UNL1        0.0171
     13 C         -12.0955  -16.9900   20.4712 C.3     1  UNL1        0.0686
     14 N         -10.7887  -16.2541   20.4423 N.3     1  UNL1       -0.2972
     15 C          -9.7932  -16.0721   21.5495 C.3     1  UNL1        0.0729
     16 H         -11.0361  -15.3050   20.1624 H       1  UNL1        0.1233
@<TRIPOS>BOND
     1     1     2    1
     2     2     3   ar
     3     3     4   ar
     4     4     5   ar
     5     5     9    1
     6     9    10    1
     7    10    11    1
     8    11    12    1
     9    12    13    1
    10    13    14    1
    11    14    15    1
    12     5     6   ar
    13     6     7   ar
    14     7     8    1
    15     7     2   ar
    16    15     9    1
    17    14    16    1
@<TRIPOS>MOLECULE
*****
 16 17 0 0 0
SMALL
GASTEIGER

@<TRIPOS>ATOM
      1 CL         -3.2204  -20.0574   21.0407 Cl      1  UNL1       -0.0814
      2 C          -4.6396  -19.5910   21.1750 C.ar    1  UNL1        0.0682
      3 C          -5.6748  -20.0449   20.1890 C.ar    1  UNL1        0.0119
      4 C          -7.0941  -19.5784   20.3234 C.ar    1  UNL1       -0.0033
      5 C          -7.4782  -18.6581   21.4438 C.ar    1  UNL1       -0.0203
      6 C          -6.4430  -18.2042   22.4299 C.ar    1  UNL1        0.0080
      7 C          -5.0237  -18.6706   22.2955 C.ar    1  UNL1        0.0679
      8 CL         -3.9885  -18.2167   23.2816 Cl      1  UNL1       -0.0814
      9 C          -8.8975  -18.1916   21.5782 C.3     1  UNL1        0.0381
     10 C          -9.9488  -19.1795   21.1674 C.3     1  UNL1        0.0058
     11 C         -11.4402  -19.0187   21.1826 C.3     1  UNL1        0.0018
     12 C         -12.2483  -17.8305   21.6123 C.3     1  UNL1        0.0171
     13 C         -11.7649  -16.5094   22.1330 C.3     1  UNL1        0.0686
     14 N         -10.3539  -16.0504   22.3526 N.3     1  UNL1       -0.2972
     15 C          -9.0778  -16.7991   22.1057 C.3     1  UNL1        0.0729
     16 H         -10.3170  -15.8016   23.3411 H       1  UNL1        0.1233
@<TRIPOS>BOND
     1     1     2    1
     2     2     3   ar
     3     3     4   ar
     4     4     5   ar
     5     5     9    1
     6     9    10    1
     7    10    11    1
     8    11    12    1
     9    12    13    1
    10    13    14    1
    11    14    15    1
    12     5     6   ar
    13     6     7   ar
    14     7     8    1
    15     7     2   ar
    16    15     9    1
    17    14    16    1
@<TRIPOS>MOLECULE
*****
 16 17 0 0 0
SMALL
GASTEIGER

@<TRIPOS>ATOM
      1 CL        -11.4077  -18.3384   19.8365 Cl      1  UNL1       -0.0814
      2 C         -10.6130  -17.8247   21.0002 C.ar    1  UNL1        0.0682
      3 C         -11.2228  -16.8320   21.9451 C.ar    1  UNL1        0.0119
      4 C         -10.4280  -16.3183   23.1090 C.ar    1  UNL1       -0.0033
      5 C          -9.0235  -16.7972   23.3279 C.ar    1  UNL1       -0.0203
      6 C          -8.4137  -17.7898   22.3830 C.ar    1  UNL1        0.0080
      7 C          -9.2084  -18.3036   21.2191 C.ar    1  UNL1        0.0679
      8 CL         -8.5986  -19.2962   20.2742 Cl      1  UNL1       -0.0814
      9 C          -8.2287  -16.2835   24.4917 C.3     1  UNL1        0.0381
     10 C          -8.7451  -16.6593   25.8490 C.3     1  UNL1        0.0058
     11 C          -8.1829  -16.3064   27.1942 C.3     1  UNL1        0.0018
     12 C          -6.9656  -15.4905   27.5142 C.3     1  UNL1        0.0171
     13 C          -6.0098  -14.8260   26.5683 C.3     1  UNL1        0.0686
     14 N          -6.0352  -14.8133   25.0685 N.3     1  UNL1       -0.2972
     15 C          -7.0228  -15.4620   24.1444 C.3     1  UNL1        0.0729
     16 H          -5.1338  -15.2041   24.7944 H       1  UNL1        0.1233
@<TRIPOS>BOND
     1     1     2    1
     2     2     3   ar
     3     3     4   ar
     4     4     5   ar
     5     5     9    1
     6     9    10    1
     7    10    11    1
     8    11    12    1
     9    12    13    1
    10    13    14    1
    11    14    15    1
    12     5     6   ar
    13     6     7   ar
    14     7     8    1
    15     7     2   ar
    16    15     9    1
    17    14    16    1
@<TRIPOS>MOLECULE
*****
 16 17 0 0 0
SMALL
GASTEIGER

@<TRIPOS>ATOM
      1 CL        -13.0001  -18.0408   23.1746 Cl      1  UNL1       -0.0814
      2 C         -11.5605  -18.2899   22.8347 C.ar    1  UNL1        0.0682
      3 C         -10.8763  -19.5290   23.3311 C.ar    1  UNL1        0.0119
      4 C          -9.4366  -19.7781   22.9912 C.ar    1  UNL1       -0.0033
      5 C          -8.6813  -18.7881   22.1549 C.ar    1  UNL1       -0.0203
      6 C          -9.3656  -17.5490   21.6586 C.ar    1  UNL1        0.0080
      7 C         -10.8052  -17.2999   21.9984 C.ar    1  UNL1        0.0679
      8 CL        -11.4894  -16.0608   21.5020 Cl      1  UNL1       -0.0814
      9 C          -7.2417  -19.0372   21.8150 C.3     1  UNL1        0.0381
     10 C          -6.9865  -20.1439   20.8350 C.3     1  UNL1        0.0058
     11 C          -5.6742  -20.6333   20.2980 C.3     1  UNL1        0.0018
     12 C          -4.2932  -20.1371   20.6082 C.3     1  UNL1        0.0171
     13 C          -3.8832  -19.0288   21.5321 C.3     1  UNL1        0.0686
     14 N          -4.7531  -18.1430   22.3740 N.3     1  UNL1       -0.2972
     15 C          -6.2478  -18.1468   22.4998 C.3     1  UNL1        0.0729
     16 H          -4.5247  -17.1967   22.0696 H       1  UNL1        0.1233
@<TRIPOS>BOND
     1     1     2    1
     2     2     3   ar
     3     3     4   ar
     4     4     5   ar
     5     5     9    1
     6     9    10    1
     7    10    11    1
     8    11    12    1
     9    12    13    1
    10    13    14    1
    11    14    15    1
    12     5     6   ar
    13     6     7   ar
    14     7     8    1
    15     7     2   ar
    16    15     9    1
    17    14    16    1
@<TRIPOS>MOLECULE
*****
 16 17 0 0 0
SMALL
GASTEIGER

@<TRIPOS>ATOM
      1 CL        -11.6925  -17.4310   22.6237 Cl      1  UNL1       -0.0814
      2 C         -10.2556  -17.7984   22.4001 C.ar    1  UNL1        0.0682
      3 C          -9.1647  -16.9355   22.9618 C.ar    1  UNL1        0.0119
      4 C          -7.7276  -17.3029   22.7381 C.ar    1  UNL1       -0.0033
      5 C          -7.3815  -18.5331   21.9528 C.ar    1  UNL1       -0.0203
      6 C          -8.4723  -19.3959   21.3911 C.ar    1  UNL1        0.0080
      7 C          -9.9094  -19.0286   21.6147 C.ar    1  UNL1        0.0679
      8 CL        -11.0003  -19.8914   21.0529 Cl      1  UNL1       -0.0814
      9 C          -5.9445  -18.9005   21.7291 C.3     1  UNL1        0.0381
     10 C          -5.6799  -19.8180   20.5722 C.3     1  UNL1        0.0058
     11 C          -4.3675  -20.3634   20.0923 C.3     1  UNL1        0.0018
     12 C          -2.9958  -20.1262   20.6508 C.3     1  UNL1        0.0171
     13 C          -2.5974  -19.2849   21.8271 C.3     1  UNL1        0.0686
     14 N          -3.4726  -18.4731   22.7354 N.3     1  UNL1       -0.2972
     15 C          -4.9622  -18.3021   22.6917 C.3     1  UNL1        0.0729
     16 H          -3.1043  -17.5246   22.6645 H       1  UNL1        0.1233
@<TRIPOS>BOND
     1     1     2    1
     2     2     3   ar
     3     3     4   ar
     4     4     5   ar
     5     5     9    1
     6     9    10    1
     7    10    11    1
     8    11    12    1
     9    12    13    1
    10    13    14    1
    11    14    15    1
    12     5     6   ar
    13     6     7   ar
    14     7     8    1
    15     7     2   ar
    16    15     9    1
    17    14    16    1
@<TRIPOS>MOLECULE
*****
 16 17 0 0 0
SMALL
GASTEIGER

@<TRIPOS>ATOM
      1 CL         -1.6025  -18.6952   20.7502 Cl      1  UNL1       -0.0814
      2 C          -3.0902  -18.8700   20.8264 C.ar    1  UNL1        0.0682
      3 C          -3.8582  -19.2990   19.6114 C.ar    1  UNL1        0.0119
      4 C          -5.3461  -19.4738   19.6876 C.ar    1  UNL1       -0.0033
      5 C          -6.0659  -19.2195   20.9787 C.ar    1  UNL1       -0.0203
      6 C          -5.2980  -18.7905   22.1937 C.ar    1  UNL1        0.0080
      7 C          -3.8101  -18.6157   22.1176 C.ar    1  UNL1        0.0679
      8 CL         -3.0422  -18.1866   23.3326 Cl      1  UNL1       -0.0814
      9 C          -7.5538  -19.3943   21.0550 C.3     1  UNL1        0.0381
     10 C          -8.1181  -19.5739   22.4332 C.3     1  UNL1        0.0058
     11 C          -9.5486  -19.7700   22.8398 C.3     1  UNL1        0.0018
     12 C         -10.7679  -19.8348   21.9687 C.3     1  UNL1        0.0171
     13 C         -10.8581  -19.7196   20.4758 C.3     1  UNL1        0.0686
     14 N          -9.7511  -19.5111   19.4854 N.3     1  UNL1       -0.2972
     15 C          -8.2805  -19.3664   19.7432 C.3     1  UNL1        0.0729
     16 H         -10.0089  -18.6576   18.9899 H       1  UNL1        0.1233
@<TRIPOS>BOND
     1     1     2    1
     2     2     3   ar
     3     3     4   ar
     4     4     5   ar
     5     5     9    1
     6     9    10    1
     7    10    11    1
     8    11    12    1
     9    12    13    1
    10    13    14    1
    11    14    15    1
    12     5     6   ar
    13     6     7   ar
    14     7     8    1
    15     7     2   ar
    16    15     9    1
    17    14    16    1
@<TRIPOS>MOLECULE
*****
 16 17 0 0 0
SMALL
GASTEIGER

@<TRIPOS>ATOM
      1 CL        -10.8947  -18.9700   19.4811 Cl      1  UNL1       -0.0814
      2 C         -10.1413  -18.3586   20.6250 C.ar    1  UNL1        0.0682
      3 C          -8.7663  -18.8514   20.9663 C.ar    1  UNL1        0.0119
      4 C          -8.0129  -18.2399   22.1103 C.ar    1  UNL1       -0.0033
      5 C          -8.6346  -17.1357   22.9129 C.ar    1  UNL1       -0.0203
      6 C         -10.0096  -16.6429   22.5715 C.ar    1  UNL1        0.0080
      7 C         -10.7630  -17.2543   21.4276 C.ar    1  UNL1        0.0679
      8 CL        -12.1380  -16.7615   21.0863 Cl      1  UNL1       -0.0814
      9 C          -7.8813  -16.5242   24.0568 C.3     1  UNL1        0.0381
     10 C          -6.4662  -16.1222   23.7633 C.3     1  UNL1        0.0058
     11 C          -5.4629  -15.4922   24.6835 C.3     1  UNL1        0.0018
     12 C          -5.6270  -15.1087   26.1243 C.3     1  UNL1        0.0171
     13 C          -6.8347  -15.2605   27.0009 C.3     1  UNL1        0.0686
     14 N          -8.1767  -15.8332   26.6531 N.3     1  UNL1       -0.2972
     15 C          -8.6424  -16.3956   25.3428 C.3     1  UNL1        0.0729
     16 H          -8.8358  -15.0820   26.8575 H       1  UNL1        0.1233
@<TRIPOS>BOND
     1     1     2    1
     2     2     3   ar
     3     3     4   ar
     4     4     5   ar
     5     5     9    1
     6     9    10    1
     7    10    11    1
     8    11    12    1
     9    12    13    1
    10    13    14    1
    11    14    15    1
    12     5     6   ar
    13     6     7   ar
    14     7     8    1
    15     7     2   ar
    16    15     9    1
    17    14    16    1
