@<TRIPOS>MOLECULE
*****
 30 33 0 0 0
SMALL
GASTEIGER

@<TRIPOS>ATOM
      1 C         -13.8925   -4.9131   18.5800 C.2     1  UNL1        0.0017
      2 C         -14.9760   -5.9329   18.3901 C.2     1  UNL1        0.0130
      3 C         -14.6283   -7.3896   18.3054 C.3     1  UNL1        0.1542
      4 C         -16.0594   -6.9528   18.2001 C.3     1  UNL1        0.0614
      5 C         -17.1428   -7.9726   18.0102 C.3     1  UNL1        0.0725
      6 N         -16.7951   -9.4293   17.9255 N.3     1  UNL1       -0.2972
      7 C         -15.3640   -9.8661   18.0307 C.3     1  UNL1        0.0725
      8 C         -14.2806   -8.8463   18.2207 C.3     1  UNL1        0.0614
      9 O         -13.1971   -7.8265   18.4106 O.3     1  UNL1       -0.4785
     10 C         -12.1137   -6.8066   18.6005 C.ar    1  UNL1        0.1386
     11 C         -10.6826   -7.2435   18.7057 C.ar    1  UNL1        0.0369
     12 C          -9.5991   -6.2236   18.8956 C.ar    1  UNL1        0.0031
     13 C          -9.9468   -4.7669   18.9803 C.ar    1  UNL1        0.0002
     14 C         -11.3779   -4.3301   18.8751 C.ar    1  UNL1        0.0030
     15 C         -12.4614   -5.3499   18.6852 C.ar    1  UNL1        0.0338
     16 H         -17.1392   -9.7622   17.0249 H       1  UNL1        0.1233
     17 C         -14.9355   -0.5430   18.8341 C.ar    1  UNL1        0.0533
     18 C         -14.7149   -1.1849   17.4965 C.ar    1  UNL1        0.0045
     19 C         -14.3672   -2.6416   17.4118 C.ar    1  UNL1       -0.0002
     20 C         -14.2402   -3.4564   18.6647 C.ar    1  UNL1       -0.0041
     21 C         -14.4608   -2.8145   20.0024 C.ar    1  UNL1       -0.0217
     22 C         -14.3337   -3.6293   21.2553 C.3     1  UNL1        0.0310
     23 C         -14.8085   -1.3578   20.0871 C.ar    1  UNL1        0.0003
     24 N         -16.7198    1.3390   18.9896 N.am    1  UNL1       -0.2761
     25 C         -15.2832    0.9137   18.9188 C.2     1  UNL1        0.2490
     26 O         -14.1941    1.9451   18.9327 O.2     1  UNL1       -0.2699
     27 C         -17.0699    3.4901   20.4039 C.3     1  UNL1        0.0233
     28 C         -17.0675    2.7957   19.0743 C.3     1  UNL1        0.0938
     29 C         -17.8089    0.3076   18.9757 C.3     1  UNL1        0.0938
     30 C         -18.3730   -0.2050   20.2676 C.3     1  UNL1        0.0233
@<TRIPOS>BOND
     1    27    28    1
     2    28    24    1
     3    24    29    1
     4    29    30    1
     5    24    25   am
     6    25    26    2
     7    25    17    1
     8    17    18   ar
     9    18    19   ar
    10    19    20   ar
    11    20     1    1
    12     1     2    2
    13     2     3    1
    14     3     4    1
    15     4     5    1
    16     5     6    1
    17     6     7    1
    18     7     8    1
    19     3     9    1
    20     9    10    1
    21    10    11   ar
    22    11    12   ar
    23    12    13   ar
    24    13    14   ar
    25    14    15   ar
    26    20    21   ar
    27    21    22    1
    28    21    23   ar
    29    23    17   ar
    30    15     1    1
    31     8     3    1
    32    15    10   ar
    33     6    16    1
@<TRIPOS>MOLECULE
*****
 30 33 0 0 0
SMALL
GASTEIGER

@<TRIPOS>ATOM
      1 C           6.7151   -3.7552   25.2479 C.2     1  UNL1        0.0017
      2 C           6.3956   -3.1323   26.5745 C.2     1  UNL1        0.0130
      3 C           6.7419   -3.8523   27.8440 C.3     1  UNL1        0.1542
      4 C           6.0761   -2.5094   27.9011 C.3     1  UNL1        0.0614
      5 C           5.7566   -1.8865   29.2277 C.3     1  UNL1        0.0725
      6 N           6.1029   -2.6065   30.4972 N.3     1  UNL1       -0.2972
      7 C           6.7687   -3.9494   30.4401 C.3     1  UNL1        0.0725
      8 C           7.0882   -4.5723   29.1135 C.3     1  UNL1        0.0614
      9 O           7.4077   -5.1952   27.7869 O.3     1  UNL1       -0.4785
     10 C           7.7272   -5.8181   26.4603 C.ar    1  UNL1        0.1386
     11 C           8.3931   -7.1611   26.4032 C.ar    1  UNL1        0.0369
     12 C           8.7126   -7.7839   25.0766 C.ar    1  UNL1        0.0031
     13 C           8.3662   -7.0639   23.8071 C.ar    1  UNL1        0.0002
     14 C           7.7004   -5.7210   23.8642 C.ar    1  UNL1        0.0030
     15 C           7.3809   -5.0981   25.1908 C.ar    1  UNL1        0.0338
     16 H           5.2312   -2.7317   31.0119 H       1  UNL1        0.1233
     17 C           5.6761   -1.5952   21.4394 C.ar    1  UNL1        0.0533
     18 C           4.6531   -2.4600   22.1141 C.ar    1  UNL1        0.0045
     19 C           4.9994   -3.1800   23.3836 C.ar    1  UNL1       -0.0002
     20 C           6.3688   -3.0352   23.9784 C.ar    1  UNL1       -0.0041
     21 C           7.3919   -2.1704   23.3036 C.ar    1  UNL1       -0.0217
     22 C           8.7613   -2.0256   23.8983 C.3     1  UNL1        0.0310
     23 C           7.0456   -1.4503   22.0341 C.ar    1  UNL1        0.0003
     24 N           5.4161   -1.5906   18.8543 N.am    1  UNL1       -0.2761
     25 C           5.3298   -0.8752   20.1698 C.2     1  UNL1        0.2490
     26 O           4.8972    0.5604   20.2159 O.2     1  UNL1       -0.2699
     27 C           3.6423   -0.7969   17.1299 C.3     1  UNL1        0.0233
     28 C           5.0698   -0.8706   17.5848 C.3     1  UNL1        0.0938
     29 C           5.8488   -3.0262   18.8083 C.3     1  UNL1        0.0938
     30 C           4.8216   -4.1174   18.7435 C.3     1  UNL1        0.0233
@<TRIPOS>BOND
     1    27    28    1
     2    28    24    1
     3    24    29    1
     4    29    30    1
     5    24    25   am
     6    25    26    2
     7    25    17    1
     8    17    18   ar
     9    18    19   ar
    10    19    20   ar
    11    20     1    1
    12     1     2    2
    13     2     3    1
    14     3     4    1
    15     4     5    1
    16     5     6    1
    17     6     7    1
    18     7     8    1
    19     3     9    1
    20     9    10    1
    21    10    11   ar
    22    11    12   ar
    23    12    13   ar
    24    13    14   ar
    25    14    15   ar
    26    20    21   ar
    27    21    22    1
    28    21    23   ar
    29    23    17   ar
    30    15     1    1
    31     8     3    1
    32    15    10   ar
    33     6    16    1
@<TRIPOS>MOLECULE
*****
 30 33 0 0 0
SMALL
GASTEIGER

@<TRIPOS>ATOM
      1 C          -8.7767  -18.3230   21.6490 C.2     1  UNL1        0.0017
      2 C          -9.5083  -17.3761   20.7444 C.2     1  UNL1        0.0130
      3 C         -10.9784  -17.1446   20.9320 C.3     1  UNL1        0.1542
      4 C         -10.2399  -16.4293   19.8399 C.3     1  UNL1        0.0614
      5 C         -10.9715  -15.4825   18.9353 C.3     1  UNL1        0.0725
      6 N         -12.4416  -15.2510   19.1229 N.3     1  UNL1       -0.2972
      7 C         -13.1801  -15.9664   20.2150 C.3     1  UNL1        0.0725
      8 C         -12.4485  -16.9132   21.1196 C.3     1  UNL1        0.0614
      9 O         -11.7169  -17.8601   22.0242 O.3     1  UNL1       -0.4785
     10 C         -10.9854  -18.8069   22.9287 C.ar    1  UNL1        0.1386
     11 C         -11.7239  -19.5223   24.0209 C.ar    1  UNL1        0.0369
     12 C         -10.9923  -20.4691   24.9255 C.ar    1  UNL1        0.0031
     13 C          -9.5222  -20.7006   24.7379 C.ar    1  UNL1        0.0002
     14 C          -8.7837  -19.9852   23.6458 C.ar    1  UNL1        0.0030
     15 C          -9.5152  -19.0383   22.7412 C.ar    1  UNL1        0.0338
     16 H         -12.8942  -15.5063   18.2452 H       1  UNL1        0.1233
     17 C          -4.3664  -19.0174   21.0863 C.ar    1  UNL1        0.0533
     18 C          -4.8591  -18.2533   22.2793 C.ar    1  UNL1        0.0045
     19 C          -6.3292  -18.0218   22.4669 C.ar    1  UNL1       -0.0002
     20 C          -7.3066  -18.5545   21.4615 C.ar    1  UNL1       -0.0041
     21 C          -6.8139  -19.3186   20.2684 C.ar    1  UNL1       -0.0217
     22 C          -7.7913  -19.8512   19.2629 C.3     1  UNL1        0.0310
     23 C          -5.3438  -19.5501   20.0808 C.ar    1  UNL1        0.0003
     24 N          -2.0940  -18.3173   20.0395 N.am    1  UNL1       -0.2761
     25 C          -2.8963  -19.2489   20.8988 C.2     1  UNL1        0.2490
     26 O          -2.2284  -20.4120   21.5705 O.2     1  UNL1       -0.2699
     27 C           0.3474  -17.4297   20.0855 C.3     1  UNL1        0.0233
     28 C          -0.6238  -18.5487   19.8519 C.3     1  UNL1        0.0938
     29 C          -2.7618  -17.1541   19.3678 C.3     1  UNL1        0.0938
     30 C          -2.7272  -17.0301   17.8733 C.3     1  UNL1        0.0233
@<TRIPOS>BOND
     1    27    28    1
     2    28    24    1
     3    24    29    1
     4    29    30    1
     5    24    25   am
     6    25    26    2
     7    25    17    1
     8    17    18   ar
     9    18    19   ar
    10    19    20   ar
    11    20     1    1
    12     1     2    2
    13     2     3    1
    14     3     4    1
    15     4     5    1
    16     5     6    1
    17     6     7    1
    18     7     8    1
    19     3     9    1
    20     9    10    1
    21    10    11   ar
    22    11    12   ar
    23    12    13   ar
    24    13    14   ar
    25    14    15   ar
    26    20    21   ar
    27    21    22    1
    28    21    23   ar
    29    23    17   ar
    30    15     1    1
    31     8     3    1
    32    15    10   ar
    33     6    16    1
@<TRIPOS>MOLECULE
*****
 30 33 0 0 0
SMALL
GASTEIGER

@<TRIPOS>ATOM
      1 C           0.0927    1.9507   22.1361 C.2     1  UNL1        0.0017
      2 C           0.1686    1.7562   23.6216 C.2     1  UNL1        0.0130
      3 C          -0.7753    2.4944   24.5238 C.3     1  UNL1        0.1542
      4 C           0.2444    1.5617   25.1069 C.3     1  UNL1        0.0614
      5 C           0.3203    1.3672   26.5923 C.3     1  UNL1        0.0725
      6 N          -0.6236    2.1054   27.4946 N.3     1  UNL1       -0.2972
      7 C          -1.6433    3.0382   26.9115 C.3     1  UNL1        0.0725
      8 C          -1.7192    3.2327   25.4261 C.3     1  UNL1        0.0614
      9 O          -1.7951    3.4272   23.9406 O.3     1  UNL1       -0.4785
     10 C          -1.8709    3.6217   22.4553 C.ar    1  UNL1        0.1386
     11 C          -2.8907    4.5545   21.8721 C.ar    1  UNL1        0.0369
     12 C          -2.9666    4.7490   20.3867 C.ar    1  UNL1        0.0031
     13 C          -2.0227    4.0107   19.4845 C.ar    1  UNL1        0.0002
     14 C          -1.0030    3.0780   20.0676 C.ar    1  UNL1        0.0030
     15 C          -0.9271    2.8835   21.5530 C.ar    1  UNL1        0.0338
     16 H          -0.0501    2.6576   28.1322 H       1  UNL1        0.1233
     17 C           2.9243   -0.2640   19.4293 C.ar    1  UNL1        0.0533
     18 C           1.6021   -0.8729   19.7911 C.ar    1  UNL1        0.0045
     19 C           0.6582   -0.1346   20.6934 C.ar    1  UNL1       -0.0002
     20 C           1.0365    1.2125   21.2338 C.ar    1  UNL1       -0.0041
     21 C           2.3588    1.8214   20.8720 C.ar    1  UNL1       -0.0217
     22 C           2.7372    3.1685   21.4125 C.3     1  UNL1        0.0310
     23 C           3.3027    1.0831   19.9698 C.ar    1  UNL1        0.0003
     24 N           4.8858   -1.9374   19.1099 N.am    1  UNL1       -0.2761
     25 C           3.8682   -1.0023   18.5270 C.2     1  UNL1        0.2490
     26 O           3.7943   -0.8054   17.0418 O.2     1  UNL1       -0.2699
     27 C           7.2839   -2.3086   18.1817 C.3     1  UNL1        0.0233
     28 C           5.8297   -2.6757   18.2077 C.3     1  UNL1        0.0938
     29 C           4.9597   -2.1344   20.5952 C.3     1  UNL1        0.0938
     30 C           4.4313   -3.3955   21.2117 C.3     1  UNL1        0.0233
@<TRIPOS>BOND
     1    27    28    1
     2    28    24    1
     3    24    29    1
     4    29    30    1
     5    24    25   am
     6    25    26    2
     7    25    17    1
     8    17    18   ar
     9    18    19   ar
    10    19    20   ar
    11    20     1    1
    12     1     2    2
    13     2     3    1
    14     3     4    1
    15     4     5    1
    16     5     6    1
    17     6     7    1
    18     7     8    1
    19     3     9    1
    20     9    10    1
    21    10    11   ar
    22    11    12   ar
    23    12    13   ar
    24    13    14   ar
    25    14    15   ar
    26    20    21   ar
    27    21    22    1
    28    21    23   ar
    29    23    17   ar
    30    15     1    1
    31     8     3    1
    32    15    10   ar
    33     6    16    1
@<TRIPOS>MOLECULE
*****
 30 33 0 0 0
SMALL
GASTEIGER

@<TRIPOS>ATOM
      1 C          -0.1850    2.1578   21.5127 C.2     1  UNL1        0.0017
      2 C          -1.2993    2.8866   20.8218 C.2     1  UNL1        0.0130
      3 C          -2.3009    3.6612   21.6261 C.3     1  UNL1        0.1542
      4 C          -2.4135    3.6155   20.1311 C.3     1  UNL1        0.0614
      5 C          -3.5278    4.3444   19.4403 C.3     1  UNL1        0.0725
      6 N          -4.5294    5.1189   20.2446 N.3     1  UNL1       -0.2972
      7 C          -4.4167    5.1646   21.7396 C.3     1  UNL1        0.0725
      8 C          -3.3025    4.4357   22.4304 C.3     1  UNL1        0.0614
      9 O          -2.1882    3.7069   23.1212 O.3     1  UNL1       -0.4785
     10 C          -1.0740    2.9780   23.8120 C.ar    1  UNL1        0.1386
     11 C          -0.9613    3.0237   25.3071 C.ar    1  UNL1        0.0369
     12 C           0.1529    2.2948   25.9979 C.ar    1  UNL1        0.0031
     13 C           1.1545    1.5202   25.1936 C.ar    1  UNL1        0.0002
     14 C           1.0419    1.4746   23.6985 C.ar    1  UNL1        0.0030
     15 C          -0.0724    2.2034   23.0077 C.ar    1  UNL1        0.0338
     16 H          -5.4461    4.7263   20.0302 H       1  UNL1        0.1233
     17 C           2.8198   -0.1659   19.0998 C.ar    1  UNL1        0.0533
     18 C           1.6265   -0.8626   19.6835 C.ar    1  UNL1        0.0045
     19 C           0.6249   -0.0880   20.4878 C.ar    1  UNL1       -0.0002
     20 C           0.8166    1.3832   20.7084 C.ar    1  UNL1       -0.0041
     21 C           2.0099    2.0800   20.1247 C.ar    1  UNL1       -0.0217
     22 C           2.2015    3.5512   20.3453 C.3     1  UNL1        0.0310
     23 C           3.0115    1.3054   19.3204 C.ar    1  UNL1        0.0003
     24 N           4.9424   -1.6597   18.9855 N.am    1  UNL1       -0.2761
     25 C           3.8214   -0.9404   18.2956 C.2     1  UNL1        0.2490
     26 O           3.7019   -0.9957   16.8013 O.2     1  UNL1       -0.2699
     27 C           7.4092   -2.2904   18.4686 C.3     1  UNL1        0.0233
     28 C           5.9440   -2.4342   18.1812 C.3     1  UNL1        0.0938
     29 C           5.0618   -1.6044   20.4797 C.3     1  UNL1        0.0938
     30 C           4.4834   -2.7044   21.3196 C.3     1  UNL1        0.0233
@<TRIPOS>BOND
     1    27    28    1
     2    28    24    1
     3    24    29    1
     4    29    30    1
     5    24    25   am
     6    25    26    2
     7    25    17    1
     8    17    18   ar
     9    18    19   ar
    10    19    20   ar
    11    20     1    1
    12     1     2    2
    13     2     3    1
    14     3     4    1
    15     4     5    1
    16     5     6    1
    17     6     7    1
    18     7     8    1
    19     3     9    1
    20     9    10    1
    21    10    11   ar
    22    11    12   ar
    23    12    13   ar
    24    13    14   ar
    25    14    15   ar
    26    20    21   ar
    27    21    22    1
    28    21    23   ar
    29    23    17   ar
    30    15     1    1
    31     8     3    1
    32    15    10   ar
    33     6    16    1
@<TRIPOS>MOLECULE
*****
 30 33 0 0 0
SMALL
GASTEIGER

@<TRIPOS>ATOM
      1 C          -1.6215    3.1091   26.1621 C.2     1  UNL1        0.0017
      2 C          -2.8995    3.8408   26.4473 C.2     1  UNL1        0.0130
      3 C          -3.7143    4.3958   25.3169 C.3     1  UNL1        0.1542
      4 C          -4.1774    4.5725   26.7326 C.3     1  UNL1        0.0614
      5 C          -5.4554    5.3042   27.0178 C.3     1  UNL1        0.0725
      6 N          -6.2702    5.8593   25.8873 N.3     1  UNL1       -0.2972
      7 C          -5.8071    5.6826   24.4716 C.3     1  UNL1        0.0725
      8 C          -4.5292    4.9509   24.1864 C.3     1  UNL1        0.0614
      9 O          -3.2511    4.2191   23.9011 O.3     1  UNL1       -0.4785
     10 C          -1.9732    3.4874   23.6159 C.ar    1  UNL1        0.1386
     11 C          -1.5100    3.3107   22.2001 C.ar    1  UNL1        0.0369
     12 C          -0.2321    2.5789   21.9149 C.ar    1  UNL1        0.0031
     13 C           0.5827    2.0239   23.0454 C.ar    1  UNL1        0.0002
     14 C           0.1196    2.2006   24.4611 C.ar    1  UNL1        0.0030
     15 C          -1.1584    2.9324   24.7463 C.ar    1  UNL1        0.0338
     16 H          -6.3507    6.8634   26.0476 H       1  UNL1        0.1233
     17 C           0.8231    1.4440   29.5535 C.ar    1  UNL1        0.0533
     18 C          -0.3054    0.6410   28.9775 C.ar    1  UNL1        0.0045
     19 C          -1.1202    1.1961   27.8470 C.ar    1  UNL1       -0.0002
     20 C          -0.8066    2.5540   27.2925 C.ar    1  UNL1       -0.0041
     21 C           0.3219    3.3571   27.8685 C.ar    1  UNL1       -0.0217
     22 C           0.6355    4.7150   27.3140 C.3     1  UNL1        0.0310
     23 C           1.1367    2.8020   28.9990 C.ar    1  UNL1        0.0003
     24 N           2.6678   -0.1685   30.4176 N.am    1  UNL1       -0.2761
     25 C           1.6379    0.8889   30.6840 C.2     1  UNL1        0.2490
     26 O           1.4228    1.3914   32.0809 O.2     1  UNL1       -0.2699
     27 C           4.9409   -0.3887   31.6566 C.3     1  UNL1        0.0233
     28 C           3.4827   -0.7235   31.5481 C.3     1  UNL1        0.0938
     29 C           2.8830   -0.6710   29.0207 C.3     1  UNL1        0.0938
     30 C           3.8372    0.0392   28.1068 C.3     1  UNL1        0.0233
@<TRIPOS>BOND
     1    27    28    1
     2    28    24    1
     3    24    29    1
     4    29    30    1
     5    24    25   am
     6    25    26    2
     7    25    17    1
     8    17    18   ar
     9    18    19   ar
    10    19    20   ar
    11    20     1    1
    12     1     2    2
    13     2     3    1
    14     3     4    1
    15     4     5    1
    16     5     6    1
    17     6     7    1
    18     7     8    1
    19     3     9    1
    20     9    10    1
    21    10    11   ar
    22    11    12   ar
    23    12    13   ar
    24    13    14   ar
    25    14    15   ar
    26    20    21   ar
    27    21    22    1
    28    21    23   ar
    29    23    17   ar
    30    15     1    1
    31     8     3    1
    32    15    10   ar
    33     6    16    1
@<TRIPOS>MOLECULE
*****
 30 33 0 0 0
SMALL
GASTEIGER

@<TRIPOS>ATOM
      1 C           6.5051   -3.5131   25.2506 C.2     1  UNL1        0.0017
      2 C           7.0702   -4.9025   25.2321 C.2     1  UNL1        0.0130
      3 C           7.3914   -5.5987   26.5214 C.3     1  UNL1        0.1542
      4 C           7.6353   -6.2918   25.2137 C.3     1  UNL1        0.0614
      5 C           8.2004   -7.6811   25.1953 C.3     1  UNL1        0.0725
      6 N           8.5216   -8.3773   26.4846 N.3     1  UNL1       -0.2972
      7 C           8.2776   -7.6842   27.7922 C.3     1  UNL1        0.0725
      8 C           7.7125   -6.2949   27.8106 C.3     1  UNL1        0.0614
      9 O           7.1474   -4.9054   27.8291 O.3     1  UNL1       -0.4785
     10 C           6.5823   -3.5161   27.8475 C.ar    1  UNL1        0.1386
     11 C           6.3383   -2.8229   29.1552 C.ar    1  UNL1        0.0369
     12 C           5.7732   -1.4336   29.1736 C.ar    1  UNL1        0.0031
     13 C           5.4520   -0.7374   27.8843 C.ar    1  UNL1        0.0002
     14 C           5.6960   -1.4305   26.5767 C.ar    1  UNL1        0.0030
     15 C           6.2611   -2.8199   26.5582 C.ar    1  UNL1        0.0338
     16 H           9.5145   -8.6088   26.4548 H       1  UNL1        0.1233
     17 C           5.5416   -1.4245   21.3828 C.ar    1  UNL1        0.0533
     18 C           4.4927   -2.2442   22.0740 C.ar    1  UNL1        0.0045
     19 C           4.8139   -2.9404   23.3633 C.ar    1  UNL1       -0.0002
     20 C           6.1839   -2.8169   23.9613 C.ar    1  UNL1       -0.0041
     21 C           7.2329   -1.9971   23.2701 C.ar    1  UNL1       -0.0217
     22 C           8.6029   -1.8735   23.8681 C.3     1  UNL1        0.0310
     23 C           6.9117   -1.3009   21.9809 C.ar    1  UNL1        0.0003
     24 N           5.3756   -1.4544   18.7902 N.am    1  UNL1       -0.2761
     25 C           5.2204   -0.7283   20.0936 C.2     1  UNL1        0.2490
     26 O           4.7440    0.6940   20.1077 O.2     1  UNL1       -0.2699
     27 C           3.6801   -0.8699   16.9104 C.3     1  UNL1        0.0233
     28 C           5.0545   -0.7582   17.5010 C.3     1  UNL1        0.0938
     29 C           5.8520   -2.8767   18.7761 C.3     1  UNL1        0.0938
     30 C           4.8600   -3.9992   18.6996 C.3     1  UNL1        0.0233
@<TRIPOS>BOND
     1    27    28    1
     2    28    24    1
     3    24    29    1
     4    29    30    1
     5    24    25   am
     6    25    26    2
     7    25    17    1
     8    17    18   ar
     9    18    19   ar
    10    19    20   ar
    11    20     1    1
    12     1     2    2
    13     2     3    1
    14     3     4    1
    15     4     5    1
    16     5     6    1
    17     6     7    1
    18     7     8    1
    19     3     9    1
    20     9    10    1
    21    10    11   ar
    22    11    12   ar
    23    12    13   ar
    24    13    14   ar
    25    14    15   ar
    26    20    21   ar
    27    21    22    1
    28    21    23   ar
    29    23    17   ar
    30    15     1    1
    31     8     3    1
    32    15    10   ar
    33     6    16    1
@<TRIPOS>MOLECULE
*****
 30 33 0 0 0
SMALL
GASTEIGER

@<TRIPOS>ATOM
      1 C           2.3065    0.1747   22.3777 C.2     1  UNL1        0.0017
      2 C           3.1282   -1.0802   22.3887 C.2     1  UNL1        0.0130
      3 C           3.4425   -1.7821   21.1009 C.3     1  UNL1        0.1542
      4 C           3.9498   -2.3351   22.3996 C.3     1  UNL1        0.0614
      5 C           4.7714   -3.5899   22.4106 C.3     1  UNL1        0.0725
      6 N           5.0857   -4.2919   21.1227 N.3     1  UNL1       -0.2972
      7 C           4.5784   -3.7389   19.8240 C.3     1  UNL1        0.0725
      8 C           3.7567   -2.4841   19.8131 C.3     1  UNL1        0.0614
      9 O           2.9350   -1.2292   19.8021 O.3     1  UNL1       -0.4785
     10 C           2.1134    0.0257   19.7911 C.ar    1  UNL1        0.1386
     11 C           1.6060    0.5787   18.4923 C.ar    1  UNL1        0.0369
     12 C           0.7844    1.8336   18.4814 C.ar    1  UNL1        0.0031
     13 C           0.4701    2.5355   19.7692 C.ar    1  UNL1        0.0002
     14 C           0.9774    1.9826   21.0680 C.ar    1  UNL1        0.0030
     15 C           1.7991    0.7276   21.0790 C.ar    1  UNL1        0.0338
     16 H           4.7143   -5.2383   21.2050 H       1  UNL1        0.1233
     17 C           1.3636    2.2805   26.2412 C.ar    1  UNL1        0.0533
     18 C           0.2958    1.5022   25.5313 C.ar    1  UNL1        0.0045
     19 C           0.6101    0.8002   24.2435 C.ar    1  UNL1       -0.0002
     20 C           1.9922    0.8767   23.6656 C.ar    1  UNL1       -0.0041
     21 C           3.0600    1.6551   24.3755 C.ar    1  UNL1       -0.0217
     22 C           4.4420    1.7315   23.7975 C.3     1  UNL1        0.0310
     23 C           2.7457    2.3570   25.6633 C.ar    1  UNL1        0.0003
     24 N           0.9494    2.1999   28.8048 N.am    1  UNL1       -0.2761
     25 C           1.0493    2.9825   27.5290 C.2     1  UNL1        0.2490
     26 O           0.8348    4.4671   27.5411 O.2     1  UNL1       -0.2699
     27 C           1.1111    2.3289   31.3947 C.3     1  UNL1        0.0233
     28 C           0.6351    2.9018   30.0926 C.3     1  UNL1        0.0938
     29 C           1.1639    0.7153   28.7928 C.3     1  UNL1        0.0938
     30 C          -0.0119   -0.2130   28.8680 C.3     1  UNL1        0.0233
@<TRIPOS>BOND
     1    27    28    1
     2    28    24    1
     3    24    29    1
     4    29    30    1
     5    24    25   am
     6    25    26    2
     7    25    17    1
     8    17    18   ar
     9    18    19   ar
    10    19    20   ar
    11    20     1    1
    12     1     2    2
    13     2     3    1
    14     3     4    1
    15     4     5    1
    16     5     6    1
    17     6     7    1
    18     7     8    1
    19     3     9    1
    20     9    10    1
    21    10    11   ar
    22    11    12   ar
    23    12    13   ar
    24    13    14   ar
    25    14    15   ar
    26    20    21   ar
    27    21    22    1
    28    21    23   ar
    29    23    17   ar
    30    15     1    1
    31     8     3    1
    32    15    10   ar
    33     6    16    1
@<TRIPOS>MOLECULE
*****
 30 33 0 0 0
SMALL
GASTEIGER

@<TRIPOS>ATOM
      1 C          -1.0935    2.7937   25.5630 C.2     1  UNL1        0.0017
      2 C          -0.3804    2.5434   24.2672 C.2     1  UNL1        0.0130
      3 C          -1.0208    2.9399   22.9700 C.3     1  UNL1        0.1542
      4 C           0.3326    2.2932   22.9715 C.3     1  UNL1        0.0614
      5 C           1.0456    2.0430   21.6758 C.3     1  UNL1        0.0725
      6 N           0.4052    2.4394   20.3786 N.3     1  UNL1       -0.2972
      7 C          -0.9482    3.0861   20.3771 C.3     1  UNL1        0.0725
      8 C          -1.6612    3.3363   21.6728 C.3     1  UNL1        0.0614
      9 O          -2.3743    3.5866   22.9685 O.3     1  UNL1       -0.4785
     10 C          -3.0873    3.8368   24.2643 C.ar    1  UNL1        0.1386
     11 C          -4.4408    4.4836   24.2628 C.ar    1  UNL1        0.0369
     12 C          -5.1538    4.7338   25.5585 C.ar    1  UNL1        0.0031
     13 C          -4.5135    4.3373   26.8558 C.ar    1  UNL1        0.0002
     14 C          -3.1601    3.6906   26.8572 C.ar    1  UNL1        0.0030
     15 C          -2.4469    3.4404   25.5615 C.ar    1  UNL1        0.0338
     16 H           0.3269    1.5912   19.8175 H       1  UNL1        0.1233
     17 C           0.8276    1.6043   29.4546 C.ar    1  UNL1        0.0533
     18 C          -0.0364    0.6264   28.7149 C.ar    1  UNL1        0.0045
     19 C          -0.6767    1.0228   27.4177 C.ar    1  UNL1       -0.0002
     20 C          -0.4532    2.3972   26.8602 C.ar    1  UNL1       -0.0041
     21 C           0.4108    3.3753   27.5998 C.ar    1  UNL1       -0.0217
     22 C           0.6344    4.7497   27.0423 C.3     1  UNL1        0.0310
     23 C           1.0512    2.9788   28.8970 C.ar    1  UNL1        0.0003
     24 N           2.6686    0.3088   30.7515 N.am    1  UNL1       -0.2761
     25 C           1.4680    1.2079   30.7518 C.2     1  UNL1        0.2490
     26 O           0.9076    1.7106   32.0493 O.2     1  UNL1       -0.2699
     27 C           4.1743   -1.3112   32.1149 C.3     1  UNL1        0.0233
     28 C           3.3090   -0.0877   32.0487 C.3     1  UNL1        0.0938
     29 C           3.2289   -0.1939   29.4540 C.3     1  UNL1        0.0938
     30 C           4.4099    0.4903   28.8319 C.3     1  UNL1        0.0233
@<TRIPOS>BOND
     1    27    28    1
     2    28    24    1
     3    24    29    1
     4    29    30    1
     5    24    25   am
     6    25    26    2
     7    25    17    1
     8    17    18   ar
     9    18    19   ar
    10    19    20   ar
    11    20     1    1
    12     1     2    2
    13     2     3    1
    14     3     4    1
    15     4     5    1
    16     5     6    1
    17     6     7    1
    18     7     8    1
    19     3     9    1
    20     9    10    1
    21    10    11   ar
    22    11    12   ar
    23    12    13   ar
    24    13    14   ar
    25    14    15   ar
    26    20    21   ar
    27    21    22    1
    28    21    23   ar
    29    23    17   ar
    30    15     1    1
    31     8     3    1
    32    15    10   ar
    33     6    16    1
