@<TRIPOS>MOLECULE
*****
 24 27 0 0 0
SMALL
GASTEIGER

@<TRIPOS>ATOM
      1 C         -12.1093   -6.0527   19.0291 C.3     1  UNL1        0.1118
      2 C         -10.6778   -6.4982   18.9832 C.3     1  UNL1        0.0261
      3 C          -9.5953   -5.5117   18.6593 C.3     1  UNL1        0.0068
      4 C          -9.9445   -4.0796   18.3813 C.3     1  UNL1        0.0277
      5 C         -11.3760   -3.6341   18.4273 C.2     1  UNL1       -0.0059
      6 C         -12.4584   -4.6207   18.7512 C.2     1  UNL1        0.0724
      7 N         -13.7708   -3.8946   18.7239 N.2     1  UNL1       -0.2523
      8 C         -13.4994   -2.4593   18.3831 C.2     1  UNL1        0.0628
      9 C         -14.4087   -1.2781   18.2160 C.3     1  UNL1        0.0726
     10 C         -13.8379    0.0642   17.8656 C.2     1  UNL1       -0.0084
     11 C         -12.3579    0.2252   17.6823 C.2     1  UNL1        0.0538
     12 CL        -11.7871    1.5674   17.3319 Cl      1  UNL1       -0.0826
     13 C         -11.4486   -0.9561   17.8494 C.2     1  UNL1        0.0120
     14 C         -12.0193   -2.2983   18.1998 C.2     1  UNL1        0.0119
     15 O         -13.5166   -7.5146   16.8195 O.2     1  UNL1       -0.2685
     16 C         -13.8955   -7.7703   18.2483 C.2     1  UNL1        0.2638
     17 N         -13.1918   -7.0393   19.3531 N.am    1  UNL1       -0.2961
     18 H         -13.4405   -7.2071   20.2908 H       1  UNL1        0.1501
     19 C         -14.9780   -8.7568   18.5721 C.ar    1  UNL1        0.1345
     20 C         -16.1146   -8.3568   19.4655 C.ar    1  UNL1        0.0238
     21 C         -17.1971   -9.3433   19.7894 C.ar    1  UNL1        0.0033
     22 C         -17.1430  -10.7300   19.2199 C.ar    1  UNL1        0.0207
     23 C         -16.0064  -11.1300   18.3265 C.ar    1  UNL1        0.0990
     24 N         -14.9239  -10.1435   18.0026 N.ar    1  UNL1       -0.2393
@<TRIPOS>BOND
     1    15    16    2
     2    16    17   am
     3     1    17    1
     4     1     2    1
     5     2     3    1
     6     3     4    1
     7     4     5    1
     8     5     6    2
     9     6     7    1
    10     7     8    2
    11     8     9    1
    12     9    10    1
    13    10    11    2
    14    11    12    1
    15    11    13    1
    16    13    14    2
    17    16    19    1
    18    19    20   ar
    19    20    21   ar
    20    21    22   ar
    21    22    23   ar
    22    23    24   ar
    23     6     1    1
    24    14     8    1
    25    24    19   ar
    26    14     5    1
    27    17    18    1
@<TRIPOS>MOLECULE
*****
 24 27 0 0 0
SMALL
GASTEIGER

@<TRIPOS>ATOM
      1 C         -15.5343   -3.6683   19.9920 C.3     1  UNL1        0.1118
      2 C         -16.7415   -4.5545   19.9059 C.3     1  UNL1        0.0261
      3 C         -16.5891   -5.9931   19.5095 C.3     1  UNL1        0.0068
      4 C         -15.2295   -6.5455   19.1992 C.3     1  UNL1        0.0277
      5 C         -14.0223   -5.6594   19.2854 C.2     1  UNL1       -0.0059
      6 C         -14.1747   -4.2208   19.6817 C.2     1  UNL1        0.0724
      7 N         -12.8124   -3.5929   19.6812 N.2     1  UNL1       -0.2523
      8 C         -11.8180   -4.6436   19.2844 C.2     1  UNL1        0.0628
      9 C         -10.3283   -4.6023   19.1143 C.3     1  UNL1        0.0726
     10 C          -9.5862   -5.8383   18.6995 C.2     1  UNL1       -0.0084
     11 C         -10.3340   -7.1154   18.4549 C.2     1  UNL1        0.0538
     12 CL         -9.5920   -8.3513   18.0401 Cl      1  UNL1       -0.0826
     13 C         -11.8238   -7.1566   18.6250 C.2     1  UNL1        0.0120
     14 C         -12.5658   -5.9207   19.0398 C.2     1  UNL1        0.0119
     15 O         -15.9494   -1.5690   17.8895 O.2     1  UNL1       -0.2685
     16 C         -15.8942   -1.1800   19.3372 C.2     1  UNL1        0.2638
     17 N         -15.6867   -2.2297   20.3884 N.am    1  UNL1       -0.2961
     18 H         -15.6505   -1.9744   21.3386 H       1  UNL1        0.1501
     19 C         -16.0466    0.2586   19.7335 C.ar    1  UNL1        0.1345
     20 C         -17.0122    0.6400   20.8163 C.ar    1  UNL1        0.0238
     21 C         -17.1645    2.0787   21.2126 C.ar    1  UNL1        0.0033
     22 C         -16.3514    3.1359   20.5262 C.ar    1  UNL1        0.0207
     23 C         -15.3859    2.7545   19.4435 C.ar    1  UNL1        0.0990
     24 N         -15.2335    1.3158   19.0471 N.ar    1  UNL1       -0.2393
@<TRIPOS>BOND
     1    15    16    2
     2    16    17   am
     3     1    17    1
     4     1     2    1
     5     2     3    1
     6     3     4    1
     7     4     5    1
     8     5     6    2
     9     6     7    1
    10     7     8    2
    11     8     9    1
    12     9    10    1
    13    10    11    2
    14    11    12    1
    15    11    13    1
    16    13    14    2
    17    16    19    1
    18    19    20   ar
    19    20    21   ar
    20    21    22   ar
    21    22    23   ar
    22    23    24   ar
    23     6     1    1
    24    14     8    1
    25    24    19   ar
    26    14     5    1
    27    17    18    1
@<TRIPOS>MOLECULE
*****
 24 27 0 0 0
SMALL
GASTEIGER

@<TRIPOS>ATOM
      1 C         -16.5521   -4.7390   19.9138 C.3     1  UNL1        0.1118
      2 C         -17.5272   -5.8638   19.7299 C.3     1  UNL1        0.0261
      3 C         -17.0401   -7.2160   19.3009 C.3     1  UNL1        0.0068
      4 C         -15.5778   -7.4434   19.0558 C.3     1  UNL1        0.0277
      5 C         -14.6027   -6.3186   19.2397 C.2     1  UNL1       -0.0059
      6 C         -15.0899   -4.9664   19.6687 C.2     1  UNL1        0.0724
      7 N         -13.9020   -4.0556   19.7677 N.2     1  UNL1       -0.2523
      8 C         -12.6808   -4.8451   19.3999 C.2     1  UNL1        0.0628
      9 C         -11.2304   -4.4711   19.3199 C.3     1  UNL1        0.0726
     10 C         -10.2129   -5.4958   18.9136 C.2     1  UNL1       -0.0084
     11 C         -10.6460   -6.8943   18.5872 C.2     1  UNL1        0.0538
     12 CL         -9.6286   -7.9189   18.1809 Cl      1  UNL1       -0.0826
     13 C         -12.0965   -7.2683   18.6672 C.2     1  UNL1        0.0120
     14 C         -13.1138   -6.2437   19.0735 C.2     1  UNL1        0.0119
     15 O         -16.5825   -2.4653   17.9570 O.2     1  UNL1       -0.2685
     16 C         -17.0545   -2.2498   19.3644 C.2     1  UNL1        0.2638
     17 N         -17.0393   -3.3867   20.3429 N.am    1  UNL1       -0.2961
     18 H         -17.3490   -3.2453   21.2666 H       1  UNL1        0.1501
     19 C         -17.5416   -0.8975   19.7934 C.ar    1  UNL1        0.1345
     20 C         -16.5732    0.1106   20.3375 C.ar    1  UNL1        0.0238
     21 C         -17.0603    1.4629   20.7665 C.ar    1  UNL1        0.0033
     22 C         -18.5157    1.8071   20.6514 C.ar    1  UNL1        0.0207
     23 C         -19.4841    0.7990   20.1074 C.ar    1  UNL1        0.0990
     24 N         -18.9970   -0.5534   19.6784 N.ar    1  UNL1       -0.2393
@<TRIPOS>BOND
     1    15    16    2
     2    16    17   am
     3     1    17    1
     4     1     2    1
     5     2     3    1
     6     3     4    1
     7     4     5    1
     8     5     6    2
     9     6     7    1
    10     7     8    2
    11     8     9    1
    12     9    10    1
    13    10    11    2
    14    11    12    1
    15    11    13    1
    16    13    14    2
    17    16    19    1
    18    19    20   ar
    19    20    21   ar
    20    21    22   ar
    21    22    23   ar
    22    23    24   ar
    23     6     1    1
    24    14     8    1
    25    24    19   ar
    26    14     5    1
    27    17    18    1
@<TRIPOS>MOLECULE
*****
 24 27 0 0 0
SMALL
GASTEIGER

@<TRIPOS>ATOM
      1 C           6.0448   -2.8057   20.0081 C.3     1  UNL1        0.1118
      2 C           7.1094   -2.5578   18.9809 C.3     1  UNL1        0.0261
      3 C           6.8936   -1.5294   17.9105 C.3     1  UNL1        0.0068
      4 C           5.6134   -0.7489   17.8673 C.3     1  UNL1        0.0277
      5 C           4.5489   -0.9969   18.8946 C.2     1  UNL1       -0.0059
      6 C           4.7646   -2.0253   19.9650 C.2     1  UNL1        0.0724
      7 N           3.5437   -2.0508   20.8362 N.2     1  UNL1       -0.2523
      8 C           2.5735   -1.0381   20.3042 C.2     1  UNL1        0.0628
      9 C           1.2046   -0.6248   20.7573 C.3     1  UNL1        0.0726
     10 C           0.4569    0.4398   20.0105 C.2     1  UNL1       -0.0084
     11 C           1.0781    1.0911   18.8106 C.2     1  UNL1        0.0538
     12 CL          0.3304    2.1556   18.0638 Cl      1  UNL1       -0.0826
     13 C           2.4470    0.6778   18.3574 C.2     1  UNL1        0.0120
     14 C           3.1947   -0.3867   19.1042 C.2     1  UNL1        0.0119
     15 O           7.3627   -2.0305   22.5893 O.2     1  UNL1       -0.2685
     16 C           6.9195   -3.4466   22.3692 C.2     1  UNL1        0.2638
     17 N           6.2605   -3.8342   21.0786 N.am    1  UNL1       -0.2961
     18 H           5.9696   -4.7636   20.9341 H       1  UNL1        0.1501
     19 C           7.1352   -4.4749   23.4396 C.ar    1  UNL1        0.1345
     20 C           6.6461   -4.2196   24.8345 C.ar    1  UNL1        0.0238
     21 C           6.8618   -5.2479   25.9049 C.ar    1  UNL1        0.0033
     22 C           7.5666   -6.5317   25.5806 C.ar    1  UNL1        0.0207
     23 C           8.0556   -6.7871   24.1858 C.ar    1  UNL1        0.0990
     24 N           7.8400   -5.7587   23.1153 N.ar    1  UNL1       -0.2393
@<TRIPOS>BOND
     1    15    16    2
     2    16    17   am
     3     1    17    1
     4     1     2    1
     5     2     3    1
     6     3     4    1
     7     4     5    1
     8     5     6    2
     9     6     7    1
    10     7     8    2
    11     8     9    1
    12     9    10    1
    13    10    11    2
    14    11    12    1
    15    11    13    1
    16    13    14    2
    17    16    19    1
    18    19    20   ar
    19    20    21   ar
    20    21    22   ar
    21    22    23   ar
    22    23    24   ar
    23     6     1    1
    24    14     8    1
    25    24    19   ar
    26    14     5    1
    27    17    18    1
@<TRIPOS>MOLECULE
*****
 24 27 0 0 0
SMALL
GASTEIGER

@<TRIPOS>ATOM
      1 C          -1.5126    3.1063   20.3056 C.3     1  UNL1        0.1118
      2 C          -1.7678    4.0922   19.2043 C.3     1  UNL1        0.0261
      3 C          -0.9445    4.0467   17.9514 C.3     1  UNL1        0.0068
      4 C           0.1341    3.0153   17.7997 C.3     1  UNL1        0.0277
      5 C           0.3893    2.0295   18.9010 C.2     1  UNL1       -0.0059
      6 C          -0.4340    2.0750   20.1540 C.2     1  UNL1        0.0724
      7 N           0.0439    0.9813   21.0627 N.2     1  UNL1       -0.2523
      8 C           1.1626    0.2600   20.3713 C.2     1  UNL1        0.0628
      9 C           2.0145   -0.9030   20.7856 C.3     1  UNL1        0.0726
     10 C           3.0800   -1.4183   19.8639 C.2     1  UNL1       -0.0084
     11 C           3.2934   -0.7705   18.5279 C.2     1  UNL1        0.0538
     12 CL          4.3588   -1.2858   17.6062 Cl      1  UNL1       -0.0826
     13 C           2.4415    0.3925   18.1136 C.2     1  UNL1        0.0120
     14 C           1.3761    0.9078   19.0353 C.2     1  UNL1        0.0119
     15 O          -0.4516    4.4875   22.7483 O.2     1  UNL1       -0.2685
     16 C          -1.8055    3.8423   22.7800 C.2     1  UNL1        0.2638
     17 N          -2.3360    3.1518   21.5587 N.am    1  UNL1       -0.2961
     18 H          -3.2245    2.7284   21.5795 H       1  UNL1        0.1501
     19 C          -2.6287    3.8878   24.0330 C.ar    1  UNL1        0.1345
     20 C          -4.1050    3.6291   23.9703 C.ar    1  UNL1        0.0238
     21 C          -4.9283    3.6746   25.2233 C.ar    1  UNL1        0.0033
     22 C          -4.2754    3.9788   26.5391 C.ar    1  UNL1        0.0207
     23 C          -2.7992    4.2375   26.6019 C.ar    1  UNL1        0.0990
     24 N          -1.9759    4.1920   25.3488 N.ar    1  UNL1       -0.2393
@<TRIPOS>BOND
     1    15    16    2
     2    16    17   am
     3     1    17    1
     4     1     2    1
     5     2     3    1
     6     3     4    1
     7     4     5    1
     8     5     6    2
     9     6     7    1
    10     7     8    2
    11     8     9    1
    12     9    10    1
    13    10    11    2
    14    11    12    1
    15    11    13    1
    16    13    14    2
    17    16    19    1
    18    19    20   ar
    19    20    21   ar
    20    21    22   ar
    21    22    23   ar
    22    23    24   ar
    23     6     1    1
    24    14     8    1
    25    24    19   ar
    26    14     5    1
    27    17    18    1
@<TRIPOS>MOLECULE
*****
 24 27 0 0 0
SMALL
GASTEIGER

@<TRIPOS>ATOM
      1 C         -15.2290   -2.5792   19.6111 C.3     1  UNL1        0.1118
      2 C         -16.5025   -3.3672   19.6966 C.3     1  UNL1        0.0261
      3 C         -16.4691   -4.8619   19.5753 C.3     1  UNL1        0.0068
      4 C         -15.1622   -5.5686   19.3685 C.3     1  UNL1        0.0277
      5 C         -13.8888   -4.7806   19.2830 C.2     1  UNL1       -0.0059
      6 C         -13.9222   -3.2859   19.4042 C.2     1  UNL1        0.0724
      7 N         -12.5156   -2.7793   19.2812 N.2     1  UNL1       -0.2523
      8 C         -11.6130   -3.9609   19.0839 C.2     1  UNL1        0.0628
      9 C         -10.1280   -4.0704   18.9033 C.3     1  UNL1        0.0726
     10 C          -9.4915   -5.4169   18.7238 C.2     1  UNL1       -0.0084
     11 C         -10.3401   -6.6537   18.7250 C.2     1  UNL1        0.0538
     12 CL         -9.7037   -8.0001   18.5455 Cl      1  UNL1       -0.0826
     13 C         -11.8253   -6.5442   18.9055 C.2     1  UNL1        0.0120
     14 C         -12.4617   -5.1978   19.0850 C.2     1  UNL1        0.0119
     15 O         -15.2948   -0.8752   17.1429 O.2     1  UNL1       -0.2685
     16 C         -15.2952   -0.2324   18.4982 C.2     1  UNL1        0.2638
     17 N         -15.2624   -1.0844   19.7323 N.am    1  UNL1       -0.2961
     18 H         -15.2627   -0.6626   20.6219 H       1  UNL1        0.1501
     19 C         -15.3286    1.2623   18.6194 C.ar    1  UNL1        0.1345
     20 C         -14.6807    2.1146   17.5688 C.ar    1  UNL1        0.0238
     21 C         -14.7140    3.6093   17.6900 C.ar    1  UNL1        0.0033
     22 C         -15.3953    4.2517   18.8618 C.ar    1  UNL1        0.0207
     23 C         -16.0432    3.3995   19.9125 C.ar    1  UNL1        0.0990
     24 N         -16.0098    1.9047   19.7913 N.ar    1  UNL1       -0.2393
@<TRIPOS>BOND
     1    15    16    2
     2    16    17   am
     3     1    17    1
     4     1     2    1
     5     2     3    1
     6     3     4    1
     7     4     5    1
     8     5     6    2
     9     6     7    1
    10     7     8    2
    11     8     9    1
    12     9    10    1
    13    10    11    2
    14    11    12    1
    15    11    13    1
    16    13    14    2
    17    16    19    1
    18    19    20   ar
    19    20    21   ar
    20    21    22   ar
    21    22    23   ar
    22    23    24   ar
    23     6     1    1
    24    14     8    1
    25    24    19   ar
    26    14     5    1
    27    17    18    1
@<TRIPOS>MOLECULE
*****
 24 27 0 0 0
SMALL
GASTEIGER

@<TRIPOS>ATOM
      1 C           7.0614   -3.9157   22.1811 C.3     1  UNL1        0.1118
      2 C           7.8857   -4.3004   20.9885 C.3     1  UNL1        0.0261
      3 C           8.8874   -5.4118   21.0961 C.3     1  UNL1        0.0068
      4 C           9.0647   -6.1384   22.3963 C.3     1  UNL1        0.0277
      5 C           8.2404   -5.7536   23.5890 C.2     1  UNL1       -0.0059
      6 C           7.2387   -4.6423   23.4814 C.2     1  UNL1        0.0724
      7 N           6.5739   -4.4865   24.8170 N.2     1  UNL1       -0.2523
      8 C           7.1646   -5.5016   25.7500 C.2     1  UNL1        0.0628
      9 C           6.8978   -5.8141   27.1926 C.3     1  UNL1        0.0726
     10 C           7.6609   -6.9097   27.8764 C.2     1  UNL1       -0.0084
     11 C           8.6909   -7.6928   27.1174 C.2     1  UNL1        0.0538
     12 CL          9.4540   -8.7884   27.8011 Cl      1  UNL1       -0.0826
     13 C           8.9577   -7.3803   25.6747 C.2     1  UNL1        0.0120
     14 C           8.1946   -6.2847   24.9910 C.2     1  UNL1        0.0119
     15 O           4.2880   -4.4868   21.1901 O.2     1  UNL1       -0.2685
     16 C           4.6730   -3.0898   21.5781 C.2     1  UNL1        0.2638
     17 N           6.0597   -2.8043   22.0736 N.am    1  UNL1       -0.2961
     18 H           6.3124   -1.8875   22.3282 H       1  UNL1        0.1501
     19 C           3.6714   -1.9785   21.4705 C.ar    1  UNL1        0.1345
     20 C           2.9285   -1.7601   20.1857 C.ar    1  UNL1        0.0238
     21 C           1.9269   -0.6488   20.0782 C.ar    1  UNL1        0.0033
     22 C           1.6680    0.2441   21.2553 C.ar    1  UNL1        0.0207
     23 C           2.4107    0.0257   22.5400 C.ar    1  UNL1        0.0990
     24 N           3.4125   -1.0856   22.6476 N.ar    1  UNL1       -0.2393
@<TRIPOS>BOND
     1    15    16    2
     2    16    17   am
     3     1    17    1
     4     1     2    1
     5     2     3    1
     6     3     4    1
     7     4     5    1
     8     5     6    2
     9     6     7    1
    10     7     8    2
    11     8     9    1
    12     9    10    1
    13    10    11    2
    14    11    12    1
    15    11    13    1
    16    13    14    2
    17    16    19    1
    18    19    20   ar
    19    20    21   ar
    20    21    22   ar
    21    22    23   ar
    22    23    24   ar
    23     6     1    1
    24    14     8    1
    25    24    19   ar
    26    14     5    1
    27    17    18    1
@<TRIPOS>MOLECULE
*****
 24 27 0 0 0
SMALL
GASTEIGER

@<TRIPOS>ATOM
      1 C         -16.1473   -5.7766   19.5067 C.3     1  UNL1        0.1118
      2 C         -17.2632   -6.7696   19.3704 C.3     1  UNL1        0.0261
      3 C         -18.6888   -6.3041   19.3977 C.3     1  UNL1        0.0068
      4 C         -18.9986   -4.8456   19.5613 C.3     1  UNL1        0.0277
      5 C         -17.8827   -3.8526   19.6975 C.2     1  UNL1       -0.0059
      6 C         -16.4570   -4.3181   19.6702 C.2     1  UNL1        0.0724
      7 N         -15.5737   -3.1157   19.8264 N.2     1  UNL1       -0.2523
      8 C         -16.4535   -1.9072   19.9502 C.2     1  UNL1        0.0628
      9 C         -16.1397   -0.4509   20.1251 C.3     1  UNL1        0.0726
     10 C         -17.2528    0.5501   20.2205 C.2     1  UNL1       -0.0084
     11 C         -18.6798    0.0947   20.1408 C.2     1  UNL1        0.0538
     12 CL        -19.7930    1.0956   20.2361 Cl      1  UNL1       -0.0826
     13 C         -18.9937   -1.3617   19.9658 C.2     1  UNL1        0.0120
     14 C         -17.8805   -2.3626   19.8705 C.2     1  UNL1        0.0119
     15 O         -14.3939   -5.1028   17.1675 O.2     1  UNL1       -0.2685
     16 C         -13.8449   -5.9051   18.3098 C.2     1  UNL1        0.2638
     17 N         -14.7215   -6.2420   19.4794 N.am    1  UNL1       -0.2961
     18 H         -14.3612   -6.7687   20.2291 H       1  UNL1        0.1501
     19 C         -12.4192   -6.3706   18.2824 C.ar    1  UNL1        0.1345
     20 C         -11.3696   -5.6177   19.0452 C.ar    1  UNL1        0.0238
     21 C          -9.9440   -6.0831   19.0178 C.ar    1  UNL1        0.0033
     22 C          -9.5678   -7.3014   18.2278 C.ar    1  UNL1        0.0207
     23 C         -10.6172   -8.0543   17.4651 C.ar    1  UNL1        0.0990
     24 N         -12.0430   -7.5889   17.4924 N.ar    1  UNL1       -0.2393
@<TRIPOS>BOND
     1    15    16    2
     2    16    17   am
     3     1    17    1
     4     1     2    1
     5     2     3    1
     6     3     4    1
     7     4     5    1
     8     5     6    2
     9     6     7    1
    10     7     8    2
    11     8     9    1
    12     9    10    1
    13    10    11    2
    14    11    12    1
    15    11    13    1
    16    13    14    2
    17    16    19    1
    18    19    20   ar
    19    20    21   ar
    20    21    22   ar
    21    22    23   ar
    22    23    24   ar
    23     6     1    1
    24    14     8    1
    25    24    19   ar
    26    14     5    1
    27    17    18    1
@<TRIPOS>MOLECULE
*****
 24 27 0 0 0
SMALL
GASTEIGER

@<TRIPOS>ATOM
      1 C           8.0332   -4.4968   25.2461 C.3     1  UNL1        0.1118
      2 C           9.1617   -5.3599   24.7651 C.3     1  UNL1        0.0261
      3 C           9.2928   -5.6782   23.3051 C.3     1  UNL1        0.0068
      4 C           8.2953   -5.1334   22.3262 C.3     1  UNL1        0.0277
      5 C           7.1668   -4.2703   22.8073 C.2     1  UNL1       -0.0059
      6 C           7.0357   -3.9520   24.2672 C.2     1  UNL1        0.0724
      7 N           5.8278   -3.0805   24.4451 N.2     1  UNL1       -0.2523
      8 C           5.2123   -2.8603   23.0950 C.2     1  UNL1        0.0628
      9 C           4.0053   -2.0851   22.6566 C.3     1  UNL1        0.0726
     10 C           3.6257   -2.0453   21.2059 C.2     1  UNL1       -0.0084
     11 C           4.4533   -2.7806   20.1937 C.2     1  UNL1        0.0538
     12 CL          4.0738   -2.7408   18.7431 Cl      1  UNL1       -0.0826
     13 C           5.6604   -3.5558   20.6322 C.2     1  UNL1        0.0120
     14 C           6.0399   -3.5956   22.0828 C.2     1  UNL1        0.0119
     15 O           6.2948   -6.1981   27.0021 O.2     1  UNL1       -0.2685
     16 C           7.0329   -5.0291   27.5841 C.2     1  UNL1        0.2638
     17 N           7.9021   -4.1784   26.7061 N.am    1  UNL1       -0.2961
     18 H           8.3866   -3.4112   27.0881 H       1  UNL1        0.1501
     19 C           6.9018   -4.7108   29.0441 C.ar    1  UNL1        0.1345
     20 C           7.1201   -5.7847   30.0684 C.ar    1  UNL1        0.0238
     21 C           6.9890   -5.4664   31.5283 C.ar    1  UNL1        0.0033
     22 C           6.6396   -4.0742   31.9640 C.ar    1  UNL1        0.0207
     23 C           6.4214   -3.0004   30.9398 C.ar    1  UNL1        0.0990
     24 N           6.5525   -3.3186   29.4797 N.ar    1  UNL1       -0.2393
@<TRIPOS>BOND
     1    15    16    2
     2    16    17   am
     3     1    17    1
     4     1     2    1
     5     2     3    1
     6     3     4    1
     7     4     5    1
     8     5     6    2
     9     6     7    1
    10     7     8    2
    11     8     9    1
    12     9    10    1
    13    10    11    2
    14    11    12    1
    15    11    13    1
    16    13    14    2
    17    16    19    1
    18    19    20   ar
    19    20    21   ar
    20    21    22   ar
    21    22    23   ar
    22    23    24   ar
    23     6     1    1
    24    14     8    1
    25    24    19   ar
    26    14     5    1
    27    17    18    1
