@<TRIPOS>MOLECULE
*****
 28 31 0 0 0
SMALL
GASTEIGER

@<TRIPOS>ATOM
      1 O          -5.3675  -20.6265   21.4237 O.3     1  UNL1       -0.4673
      2 C          -4.3063  -19.6401   21.8120 C.ar    1  UNL1        0.1612
      3 C          -2.8896  -19.8480   21.3652 C.ar    1  UNL1        0.1359
      4 N          -1.8283  -18.8616   21.7535 N.ar    1  UNL1       -0.2360
      5 C          -2.1838  -17.6673   22.5885 C.ar    1  UNL1        0.1358
      6 C          -3.6006  -17.4594   23.0353 C.ar    1  UNL1        0.1607
      7 C          -4.6618  -18.4458   22.6470 C.ar    1  UNL1        0.0770
      8 O          -3.9561  -16.2651   23.8703 O.3     1  UNL1       -0.4738
      9 C          -5.2745  -15.5774   23.6727 C.3     1  UNL1        0.2055
     10 C          -6.2742  -15.5369   24.7903 C.3     1  UNL1        0.0487
     11 C          -5.8085  -15.3850   26.2080 C.3     1  UNL1        0.0359
     12 C          -6.8081  -15.3445   27.3256 C.3     1  UNL1        0.1423
     13 O          -8.2735  -15.4559   27.0255 O.3     1  UNL1       -0.3538
     14 C          -8.7393  -15.6079   25.6077 C.3     1  UNL1        0.1423
     15 C          -7.7396  -15.6484   24.4901 C.3     1  UNL1        0.0359
     16 C          -6.4223  -20.2408   20.4294 C.3     1  UNL1        0.2507
     17 C          -8.5605  -19.5535   18.4405 C.3     1  UNL1        0.0358
     18 C          -8.8394  -19.4420   19.9102 C.2     1  UNL1        0.0342
     19 C          -7.7703  -19.7856   20.9046 C.2     1  UNL1        0.1013
     20 N          -8.0492  -19.6741   22.3742 N.2     1  UNL1       -0.2501
     21 C          -9.3972  -19.2189   22.8494 C.2     1  UNL1        0.0661
     22 C          -9.6761  -19.1074   24.3190 C.3     1  UNL1        0.0718
     23 C         -11.0241  -18.6522   24.7941 C.2     1  UNL1       -0.0198
     24 C         -12.0931  -18.3086   23.7997 C.2     1  UNL1       -0.0040
     25 C         -11.8143  -18.4201   22.3301 C.2     1  UNL1        0.0040
     26 C         -10.4663  -18.8753   21.8550 C.2     1  UNL1        0.0525
     27 C         -10.1874  -18.9868   20.3853 C.2     1  UNL1        0.1940
     28 O         -11.2565  -18.6432   19.3908 O.2     1  UNL1       -0.2868
@<TRIPOS>BOND
     1    17    18    1
     2    18    19    2
     3    19    16    1
     4    16     1    1
     5     1     2    1
     6     2     3   ar
     7     3     4   ar
     8     4     5   ar
     9     5     6   ar
    10     6     8    1
    11     8     9    1
    12     9    10    1
    13    10    11    1
    14    11    12    1
    15    12    13    1
    16    13    14    1
    17    14    15    1
    18     6     7   ar
    19    19    20    1
    20    20    21    2
    21    21    22    1
    22    22    23    1
    23    23    24    2
    24    24    25    1
    25    25    26    2
    26    26    27    1
    27    27    28    2
    28    27    18    1
    29     7     2   ar
    30    26    21    1
    31    15    10    1
@<TRIPOS>MOLECULE
*****
 28 31 0 0 0
SMALL
GASTEIGER

@<TRIPOS>ATOM
      1 O          -6.5791  -20.2667   21.2905 O.3     1  UNL1       -0.4673
      2 C          -5.2923  -19.5487   21.5706 C.ar    1  UNL1        0.1612
      3 C          -4.0383  -19.9488   20.8514 C.ar    1  UNL1        0.1359
      4 N          -2.7514  -19.2307   21.1315 N.ar    1  UNL1       -0.2360
      5 C          -2.7186  -18.1125   22.1308 C.ar    1  UNL1        0.1358
      6 C          -3.9727  -17.7124   22.8500 C.ar    1  UNL1        0.1607
      7 C          -5.2595  -18.4305   22.5699 C.ar    1  UNL1        0.0770
      8 O          -3.9400  -16.5942   23.8493 O.3     1  UNL1       -0.4738
      9 C          -4.9736  -15.5086   23.7941 C.3     1  UNL1        0.2055
     10 C          -6.0820  -15.4763   24.8043 C.3     1  UNL1        0.0487
     11 C          -7.5115  -15.4936   24.3501 C.3     1  UNL1        0.0359
     12 C          -8.6199  -15.4614   25.3602 C.3     1  UNL1        0.1423
     13 O          -8.2988  -15.4118   26.8246 O.3     1  UNL1       -0.3538
     14 C          -6.8693  -15.3945   27.2789 C.3     1  UNL1        0.1423
     15 C          -5.7609  -15.4267   26.2687 C.3     1  UNL1        0.0359
     16 C          -7.6133  -20.4007   22.3686 C.3     1  UNL1        0.2507
     17 C          -9.5990  -20.5396   24.6131 C.3     1  UNL1        0.0358
     18 C          -9.8524  -19.6368   23.4423 C.2     1  UNL1        0.0342
     19 C          -8.8596  -19.5673   22.3201 C.2     1  UNL1        0.1013
     20 N          -9.1130  -18.6646   21.1493 N.2     1  UNL1       -0.2501
     21 C         -10.3594  -17.8312   21.1007 C.2     1  UNL1        0.0661
     22 C         -10.6128  -16.9285   19.9299 C.3     1  UNL1        0.0718
     23 C         -11.8591  -16.0952   19.8814 C.2     1  UNL1       -0.0198
     24 C         -12.8519  -16.1647   21.0036 C.2     1  UNL1       -0.0040
     25 C         -12.5985  -17.0674   22.1744 C.2     1  UNL1        0.0040
     26 C         -11.3522  -17.9007   22.2230 C.2     1  UNL1        0.0525
     27 C         -11.0987  -18.8035   23.3938 C.2     1  UNL1        0.1940
     28 O         -12.0915  -18.8729   24.5160 O.2     1  UNL1       -0.2868
@<TRIPOS>BOND
     1    17    18    1
     2    18    19    2
     3    19    16    1
     4    16     1    1
     5     1     2    1
     6     2     3   ar
     7     3     4   ar
     8     4     5   ar
     9     5     6   ar
    10     6     8    1
    11     8     9    1
    12     9    10    1
    13    10    11    1
    14    11    12    1
    15    12    13    1
    16    13    14    1
    17    14    15    1
    18     6     7   ar
    19    19    20    1
    20    20    21    2
    21    21    22    1
    22    22    23    1
    23    23    24    2
    24    24    25    1
    25    25    26    2
    26    26    27    1
    27    27    28    2
    28    27    18    1
    29     7     2   ar
    30    26    21    1
    31    15    10    1
@<TRIPOS>MOLECULE
*****
 28 31 0 0 0
SMALL
GASTEIGER

@<TRIPOS>ATOM
      1 O          -8.3107  -18.9301   19.4366 O.3     1  UNL1       -0.4673
      2 C          -9.4132  -18.6061   20.4007 C.ar    1  UNL1        0.1612
      3 C         -10.7506  -19.2708   20.2616 C.ar    1  UNL1        0.1359
      4 N         -11.8531  -18.9468   21.2257 N.ar    1  UNL1       -0.2360
      5 C         -11.6182  -17.9580   22.3289 C.ar    1  UNL1        0.1358
      6 C         -10.2807  -17.2933   22.4680 C.ar    1  UNL1        0.1607
      7 C          -9.1783  -17.6173   21.5039 C.ar    1  UNL1        0.0770
      8 O         -10.0458  -16.3045   23.5712 O.3     1  UNL1       -0.4738
      9 C          -9.2239  -16.6932   24.7643 C.3     1  UNL1        0.2055
     10 C          -7.8607  -16.0992   24.9617 C.3     1  UNL1        0.0487
     11 C          -7.4243  -15.6607   26.3281 C.3     1  UNL1        0.0359
     12 C          -6.0611  -15.0667   26.5254 C.3     1  UNL1        0.1423
     13 O          -5.1343  -14.9113   25.3563 O.3     1  UNL1       -0.3538
     14 C          -5.5707  -15.3498   23.9898 C.3     1  UNL1        0.1423
     15 C          -6.9339  -15.9438   23.7925 C.3     1  UNL1        0.0359
     16 C          -7.2440  -19.9126   19.8197 C.3     1  UNL1        0.2507
     17 C          -6.7066  -19.5572   22.7497 C.3     1  UNL1        0.0358
     18 C          -5.6353  -19.2446   21.7474 C.2     1  UNL1        0.0342
     19 C          -5.9040  -19.4224   20.2824 C.2     1  UNL1        0.1013
     20 N          -4.8327  -19.1099   19.2801 N.2     1  UNL1       -0.2501
     21 C          -3.4926  -18.6196   19.7428 C.2     1  UNL1        0.0661
     22 C          -2.4214  -18.3071   18.7405 C.3     1  UNL1        0.0718
     23 C          -1.0814  -17.8169   19.2032 C.2     1  UNL1       -0.0198
     24 C          -0.8127  -17.6392   20.6682 C.2     1  UNL1       -0.0040
     25 C          -1.8840  -17.9517   21.6705 C.2     1  UNL1        0.0040
     26 C          -3.2239  -18.4419   21.2078 C.2     1  UNL1        0.0525
     27 C          -4.2953  -18.7544   22.2101 C.2     1  UNL1        0.1940
     28 O          -4.0266  -18.5767   23.6751 O.2     1  UNL1       -0.2868
@<TRIPOS>BOND
     1    17    18    1
     2    18    19    2
     3    19    16    1
     4    16     1    1
     5     1     2    1
     6     2     3   ar
     7     3     4   ar
     8     4     5   ar
     9     5     6   ar
    10     6     8    1
    11     8     9    1
    12     9    10    1
    13    10    11    1
    14    11    12    1
    15    12    13    1
    16    13    14    1
    17    14    15    1
    18     6     7   ar
    19    19    20    1
    20    20    21    2
    21    21    22    1
    22    22    23    1
    23    23    24    2
    24    24    25    1
    25    25    26    2
    26    26    27    1
    27    27    28    2
    28    27    18    1
    29     7     2   ar
    30    26    21    1
    31    15    10    1
@<TRIPOS>MOLECULE
*****
 28 31 0 0 0
SMALL
GASTEIGER

@<TRIPOS>ATOM
      1 O          -4.9997  -14.9430   23.5937 O.3     1  UNL1       -0.4673
      2 C          -6.1001  -15.2651   24.5608 C.ar    1  UNL1        0.1612
      3 C          -5.8615  -15.1420   26.0366 C.ar    1  UNL1        0.1359
      4 N          -6.9619  -15.4641   27.0037 N.ar    1  UNL1       -0.2360
      5 C          -8.3010  -15.9092   26.4951 C.ar    1  UNL1        0.1358
      6 C          -8.5396  -16.0323   25.0192 C.ar    1  UNL1        0.1607
      7 C          -7.4392  -15.7102   24.0521 C.ar    1  UNL1        0.0770
      8 O          -9.8787  -16.4774   24.5105 O.3     1  UNL1       -0.4738
      9 C          -9.9837  -17.6955   23.6414 C.3     1  UNL1        0.2055
     10 C         -10.5665  -17.5856   22.2636 C.3     1  UNL1        0.0487
     11 C         -11.4324  -16.4140   21.9067 C.3     1  UNL1        0.0359
     12 C         -12.0152  -16.3042   20.5289 C.3     1  UNL1        0.1423
     13 O         -11.7320  -17.3659   19.5080 O.3     1  UNL1       -0.3538
     14 C         -10.8660  -18.5376   19.8648 C.3     1  UNL1        0.1423
     15 C         -10.2832  -18.6475   21.2426 C.3     1  UNL1        0.0359
     16 C          -3.8128  -15.8529   23.4779 C.3     1  UNL1        0.2507
     17 C          -1.5727  -16.2846   21.5298 C.3     1  UNL1        0.0358
     18 C          -2.7317  -17.2363   21.5628 C.2     1  UNL1        0.0342
     19 C          -3.8518  -17.0204   22.5369 C.2     1  UNL1        0.1013
     20 N          -5.0109  -17.9719   22.5699 N.2     1  UNL1       -0.2501
     21 C          -5.0499  -19.1394   21.6288 C.2     1  UNL1        0.0661
     22 C          -6.2089  -20.0910   21.6619 C.3     1  UNL1        0.0718
     23 C          -6.2479  -21.2584   20.7208 C.2     1  UNL1       -0.0198
     24 C          -5.1278  -21.4742   19.7467 C.2     1  UNL1       -0.0040
     25 C          -3.9688  -20.5227   19.7137 C.2     1  UNL1        0.0040
     26 C          -3.9298  -19.3553   20.6547 C.2     1  UNL1        0.0525
     27 C          -2.7707  -18.4037   20.6217 C.2     1  UNL1        0.1940
     28 O          -1.6506  -18.6195   19.6477 O.2     1  UNL1       -0.2868
@<TRIPOS>BOND
     1    17    18    1
     2    18    19    2
     3    19    16    1
     4    16     1    1
     5     1     2    1
     6     2     3   ar
     7     3     4   ar
     8     4     5   ar
     9     5     6   ar
    10     6     8    1
    11     8     9    1
    12     9    10    1
    13    10    11    1
    14    11    12    1
    15    12    13    1
    16    13    14    1
    17    14    15    1
    18     6     7   ar
    19    19    20    1
    20    20    21    2
    21    21    22    1
    22    22    23    1
    23    23    24    2
    24    24    25    1
    25    25    26    2
    26    26    27    1
    27    27    28    2
    28    27    18    1
    29     7     2   ar
    30    26    21    1
    31    15    10    1
@<TRIPOS>MOLECULE
*****
 28 31 0 0 0
SMALL
GASTEIGER

@<TRIPOS>ATOM
      1 O          -8.3241  -20.1412   21.4860 O.3     1  UNL1       -0.4673
      2 C          -9.1227  -18.8825   21.3188 C.ar    1  UNL1        0.1612
      3 C          -9.9939  -18.7020   20.1113 C.ar    1  UNL1        0.1359
      4 N         -10.7926  -17.4433   19.9441 N.ar    1  UNL1       -0.2360
      5 C         -10.7199  -16.3652   20.9845 C.ar    1  UNL1        0.1358
      6 C          -9.8486  -16.5458   22.1921 C.ar    1  UNL1        0.1607
      7 C          -9.0500  -17.8044   22.3592 C.ar    1  UNL1        0.0770
      8 O          -9.7759  -15.4677   23.2325 O.3     1  UNL1       -0.4738
      9 C          -9.4912  -15.8227   24.6618 C.3     1  UNL1        0.2055
     10 C          -8.1136  -15.6288   25.2227 C.3     1  UNL1        0.0487
     11 C          -7.9008  -15.6337   26.7075 C.3     1  UNL1        0.0359
     12 C          -6.5232  -15.4398   27.2684 C.3     1  UNL1        0.1423
     13 O          -5.3584  -15.2409   26.3445 O.3     1  UNL1       -0.3538
     14 C          -5.5712  -15.2359   24.8596 C.3     1  UNL1        0.1423
     15 C          -6.9488  -15.4299   24.2987 C.3     1  UNL1        0.0359
     16 C          -7.0873  -20.1376   22.3347 C.3     1  UNL1        0.2507
     17 C          -5.8268  -21.5070   19.9819 C.3     1  UNL1        0.0358
     18 C          -5.1637  -20.3103   20.5969 C.2     1  UNL1        0.0342
     19 C          -5.7939  -19.6256   21.7733 C.2     1  UNL1        0.1013
     20 N          -5.1308  -18.4289   22.3884 N.2     1  UNL1       -0.2501
     21 C          -3.8374  -17.9169   21.8269 C.2     1  UNL1        0.0661
     22 C          -3.1743  -16.7203   22.4420 C.3     1  UNL1        0.0718
     23 C          -1.8810  -16.2084   21.8805 C.2     1  UNL1       -0.0198
     24 C          -1.2508  -16.8931   20.7041 C.2     1  UNL1       -0.0040
     25 C          -1.9139  -18.0897   20.0891 C.2     1  UNL1        0.0040
     26 C          -3.2072  -18.6017   20.6505 C.2     1  UNL1        0.0525
     27 C          -3.8704  -19.7984   20.0355 C.2     1  UNL1        0.1940
     28 O          -3.2401  -20.4831   18.8591 O.2     1  UNL1       -0.2868
@<TRIPOS>BOND
     1    17    18    1
     2    18    19    2
     3    19    16    1
     4    16     1    1
     5     1     2    1
     6     2     3   ar
     7     3     4   ar
     8     4     5   ar
     9     5     6   ar
    10     6     8    1
    11     8     9    1
    12     9    10    1
    13    10    11    1
    14    11    12    1
    15    12    13    1
    16    13    14    1
    17    14    15    1
    18     6     7   ar
    19    19    20    1
    20    20    21    2
    21    21    22    1
    22    22    23    1
    23    23    24    2
    24    24    25    1
    25    25    26    2
    26    26    27    1
    27    27    28    2
    28    27    18    1
    29     7     2   ar
    30    26    21    1
    31    15    10    1
@<TRIPOS>MOLECULE
*****
 28 31 0 0 0
SMALL
GASTEIGER

@<TRIPOS>ATOM
      1 O          -5.1463  -14.9644   23.6250 O.3     1  UNL1       -0.4673
      2 C          -6.6157  -15.2342   23.7583 C.ar    1  UNL1        0.1612
      3 C          -7.2704  -15.1719   25.1064 C.ar    1  UNL1        0.1359
      4 N          -8.7400  -15.4417   25.2396 N.ar    1  UNL1       -0.2360
      5 C          -9.5547  -15.7739   24.0248 C.ar    1  UNL1        0.1358
      6 C          -8.8999  -15.8362   22.6766 C.ar    1  UNL1        0.1607
      7 C          -7.4305  -15.5664   22.5434 C.ar    1  UNL1        0.0770
      8 O          -9.7147  -16.1684   21.4618 O.3     1  UNL1       -0.4738
      9 C         -10.2484  -17.5576   21.2735 C.3     1  UNL1        0.2055
     10 C         -10.3179  -18.4987   22.4394 C.3     1  UNL1        0.0487
     11 C         -11.4902  -18.4497   23.3739 C.3     1  UNL1        0.0359
     12 C         -11.5598  -19.3908   24.5399 C.3     1  UNL1        0.1423
     13 O         -10.4571  -20.3809   24.7714 O.3     1  UNL1       -0.3538
     14 C          -9.2847  -20.4300   23.8369 C.3     1  UNL1        0.1423
     15 C          -9.2151  -19.4888   22.6709 C.3     1  UNL1        0.0359
     16 C          -4.1598  -16.0806   23.8005 C.3     1  UNL1        0.2507
     17 C          -1.8288  -16.1195   21.9124 C.3     1  UNL1        0.0358
     18 C          -2.8881  -17.1774   21.8180 C.2     1  UNL1        0.0342
     19 C          -4.0536  -17.1579   22.7621 C.2     1  UNL1        0.1013
     20 N          -5.1129  -18.2157   22.6678 N.2     1  UNL1       -0.2501
     21 C          -5.0068  -19.2930   21.6293 C.2     1  UNL1        0.0661
     22 C          -6.0661  -20.3507   21.5350 C.3     1  UNL1        0.0718
     23 C          -5.9599  -21.4279   20.4966 C.2     1  UNL1       -0.0198
     24 C          -4.7944  -21.4474   19.5526 C.2     1  UNL1       -0.0040
     25 C          -3.7351  -20.3896   19.6469 C.2     1  UNL1        0.0040
     26 C          -3.8413  -19.3124   20.6853 C.2     1  UNL1        0.0525
     27 C          -2.7819  -18.2546   20.7797 C.2     1  UNL1        0.1940
     28 O          -1.6164  -18.2740   19.8356 O.2     1  UNL1       -0.2868
@<TRIPOS>BOND
     1    17    18    1
     2    18    19    2
     3    19    16    1
     4    16     1    1
     5     1     2    1
     6     2     3   ar
     7     3     4   ar
     8     4     5   ar
     9     5     6   ar
    10     6     8    1
    11     8     9    1
    12     9    10    1
    13    10    11    1
    14    11    12    1
    15    12    13    1
    16    13    14    1
    17    14    15    1
    18     6     7   ar
    19    19    20    1
    20    20    21    2
    21    21    22    1
    22    22    23    1
    23    23    24    2
    24    24    25    1
    25    25    26    2
    26    26    27    1
    27    27    28    2
    28    27    18    1
    29     7     2   ar
    30    26    21    1
    31    15    10    1
@<TRIPOS>MOLECULE
*****
 28 31 0 0 0
SMALL
GASTEIGER

@<TRIPOS>ATOM
      1 O          -4.8413  -15.8935   24.6572 O.3     1  UNL1       -0.4673
      2 C          -6.2082  -15.7582   25.2598 C.ar    1  UNL1        0.1612
      3 C          -6.3571  -15.4811   26.7264 C.ar    1  UNL1        0.1359
      4 N          -7.7241  -15.3457   27.3292 N.ar    1  UNL1       -0.2360
      5 C          -8.9420  -15.4874   26.4652 C.ar    1  UNL1        0.1358
      6 C          -8.7931  -15.7644   24.9985 C.ar    1  UNL1        0.1607
      7 C          -7.4262  -15.8998   24.3959 C.ar    1  UNL1        0.0770
      8 O         -10.0110  -15.9061   24.1345 O.3     1  UNL1       -0.4738
      9 C         -10.4852  -17.2689   23.7243 C.3     1  UNL1        0.2055
     10 C         -10.3695  -17.7039   22.2934 C.3     1  UNL1        0.0487
     11 C          -9.2688  -18.6349   21.8792 C.3     1  UNL1        0.0359
     12 C          -9.1531  -19.0699   20.4484 C.3     1  UNL1        0.1423
     13 O         -10.1382  -18.5740   19.4317 O.3     1  UNL1       -0.3538
     14 C         -11.2390  -17.6430   19.8459 C.3     1  UNL1        0.1423
     15 C         -11.3547  -17.2080   21.2768 C.3     1  UNL1        0.0359
     16 C          -4.2665  -17.2550   24.4001 C.3     1  UNL1        0.2507
     17 C          -5.8392  -19.1236   22.6581 C.3     1  UNL1        0.0358
     18 C          -4.5476  -18.5441   22.1620 C.2     1  UNL1        0.0342
     19 C          -3.7612  -17.6098   23.0330 C.2     1  UNL1        0.1013
     20 N          -2.4696  -17.0304   22.5370 N.2     1  UNL1       -0.2501
     21 C          -1.9644  -17.3853   21.1699 C.2     1  UNL1        0.0661
     22 C          -0.6728  -16.8058   20.6739 C.3     1  UNL1        0.0718
     23 C          -0.1677  -17.1607   19.3069 C.2     1  UNL1       -0.0198
     24 C          -0.9541  -18.0950   18.4359 C.2     1  UNL1       -0.0040
     25 C          -2.2456  -18.6745   18.9319 C.2     1  UNL1        0.0040
     26 C          -2.7508  -18.3196   20.2989 C.2     1  UNL1        0.0525
     27 C          -4.0424  -18.8990   20.7950 C.2     1  UNL1        0.1940
     28 O          -4.8288  -19.8333   19.9240 O.2     1  UNL1       -0.2868
@<TRIPOS>BOND
     1    17    18    1
     2    18    19    2
     3    19    16    1
     4    16     1    1
     5     1     2    1
     6     2     3   ar
     7     3     4   ar
     8     4     5   ar
     9     5     6   ar
    10     6     8    1
    11     8     9    1
    12     9    10    1
    13    10    11    1
    14    11    12    1
    15    12    13    1
    16    13    14    1
    17    14    15    1
    18     6     7   ar
    19    19    20    1
    20    20    21    2
    21    21    22    1
    22    22    23    1
    23    23    24    2
    24    24    25    1
    25    25    26    2
    26    26    27    1
    27    27    28    2
    28    27    18    1
    29     7     2   ar
    30    26    21    1
    31    15    10    1
@<TRIPOS>MOLECULE
*****
 28 31 0 0 0
SMALL
GASTEIGER

@<TRIPOS>ATOM
      1 O         -16.5709   -5.3254   19.1504 O.3     1  UNL1       -0.4673
      2 C         -15.8690   -6.6044   18.8018 C.ar    1  UNL1        0.1612
      3 C         -16.2544   -7.8821   19.4865 C.ar    1  UNL1        0.1359
      4 N         -15.5525   -9.1611   19.1379 N.ar    1  UNL1       -0.2360
      5 C         -14.4652   -9.1624   18.1045 C.ar    1  UNL1        0.1358
      6 C         -14.0798   -7.8845   17.4198 C.ar    1  UNL1        0.1607
      7 C         -14.7817   -6.6056   17.7684 C.ar    1  UNL1        0.0770
      8 O         -12.9925   -7.8858   16.3864 O.3     1  UNL1       -0.4738
      9 C         -11.5553   -7.9567   16.8101 C.3     1  UNL1        0.2055
     10 C         -10.8888   -6.7522   17.4059 C.3     1  UNL1        0.0487
     11 C         -10.2521   -6.8409   18.7611 C.3     1  UNL1        0.0359
     12 C          -9.5855   -5.6364   19.3569 C.3     1  UNL1        0.1423
     13 O          -9.5557   -4.3432   18.5975 O.3     1  UNL1       -0.3538
     14 C         -10.1924   -4.2545   17.2421 C.3     1  UNL1        0.1423
     15 C         -10.8589   -5.4590   16.6463 C.3     1  UNL1        0.0359
     16 C         -15.9467   -4.3681   20.1220 C.3     1  UNL1        0.2507
     17 C         -12.9538   -4.2363   19.9625 C.3     1  UNL1        0.0358
     18 C         -13.7799   -3.0568   19.5423 C.2     1  UNL1        0.0342
     19 C         -15.2764   -3.1227   19.6221 C.2     1  UNL1        0.1013
     20 N         -16.1025   -1.9433   19.2020 N.2     1  UNL1       -0.2501
     21 C         -15.4322   -0.6979   18.7021 C.2     1  UNL1        0.0661
     22 C         -16.2583    0.4815   18.2820 C.3     1  UNL1        0.0718
     23 C         -15.5880    1.7267   17.7822 C.2     1  UNL1       -0.0198
     24 C         -14.0915    1.7926   17.7024 C.2     1  UNL1       -0.0040
     25 C         -13.2654    0.6133   18.1225 C.2     1  UNL1        0.0040
     26 C         -13.9357   -0.6320   18.6224 C.2     1  UNL1        0.0525
     27 C         -13.1096   -1.8115   19.0425 C.2     1  UNL1        0.1940
     28 O         -11.6132   -1.7456   18.9628 O.2     1  UNL1       -0.2868
@<TRIPOS>BOND
     1    17    18    1
     2    18    19    2
     3    19    16    1
     4    16     1    1
     5     1     2    1
     6     2     3   ar
     7     3     4   ar
     8     4     5   ar
     9     5     6   ar
    10     6     8    1
    11     8     9    1
    12     9    10    1
    13    10    11    1
    14    11    12    1
    15    12    13    1
    16    13    14    1
    17    14    15    1
    18     6     7   ar
    19    19    20    1
    20    20    21    2
    21    21    22    1
    22    22    23    1
    23    23    24    2
    24    24    25    1
    25    25    26    2
    26    26    27    1
    27    27    28    2
    28    27    18    1
    29     7     2   ar
    30    26    21    1
    31    15    10    1
@<TRIPOS>MOLECULE
*****
 28 31 0 0 0
SMALL
GASTEIGER

@<TRIPOS>ATOM
      1 O         -16.0160   -2.1074   19.0310 O.3     1  UNL1       -0.4673
      2 C         -17.3019   -2.8404   19.2744 C.ar    1  UNL1        0.1612
      3 C         -18.5004   -2.1009   19.7908 C.ar    1  UNL1        0.1359
      4 N         -19.7864   -2.8338   20.0342 N.ar    1  UNL1       -0.2360
      5 C         -19.8737   -4.3062   19.7614 C.ar    1  UNL1        0.1358
      6 C         -18.6751   -5.0457   19.2450 C.ar    1  UNL1        0.1607
      7 C         -17.3892   -4.3127   19.0016 C.ar    1  UNL1        0.0770
      8 O         -18.7624   -6.5180   18.9721 O.3     1  UNL1       -0.4738
      9 C         -18.0654   -7.4910   19.8763 C.3     1  UNL1        0.2055
     10 C         -17.1441   -8.5242   19.2986 C.3     1  UNL1        0.0487
     11 C         -15.7445   -8.1486   18.9116 C.3     1  UNL1        0.0359
     12 C         -14.8232   -9.1818   18.3338 C.3     1  UNL1        0.1423
     13 O         -15.3016  -10.5906   18.1430 O.3     1  UNL1       -0.3538
     14 C         -16.7014  -10.9662   18.5300 C.3     1  UNL1        0.1423
     15 C         -17.6226   -9.9331   19.1078 C.3     1  UNL1        0.0359
     16 C         -14.8388   -2.3389   19.9313 C.3     1  UNL1        0.2507
     17 C         -12.8439   -0.6491   18.4598 C.3     1  UNL1        0.0358
     18 C         -12.5901   -2.1153   18.6492 C.2     1  UNL1        0.0342
     19 C         -13.5875   -2.9602   19.3849 C.2     1  UNL1        0.1013
     20 N         -13.3338   -4.4264   19.5743 N.2     1  UNL1       -0.2501
     21 C         -12.0825   -5.0477   19.0279 C.2     1  UNL1        0.0661
     22 C         -11.8288   -6.5139   19.2173 C.3     1  UNL1        0.0718
     23 C         -10.5776   -7.1351   18.6709 C.2     1  UNL1       -0.0198
     24 C          -9.5802   -6.2902   17.9352 C.2     1  UNL1       -0.0040
     25 C          -9.8339   -4.8241   17.7458 C.2     1  UNL1        0.0040
     26 C         -11.0851   -4.2028   18.2922 C.2     1  UNL1        0.0525
     27 C         -11.3389   -2.7366   18.1028 C.2     1  UNL1        0.1940
     28 O         -10.3415   -1.8917   17.3671 O.2     1  UNL1       -0.2868
@<TRIPOS>BOND
     1    17    18    1
     2    18    19    2
     3    19    16    1
     4    16     1    1
     5     1     2    1
     6     2     3   ar
     7     3     4   ar
     8     4     5   ar
     9     5     6   ar
    10     6     8    1
    11     8     9    1
    12     9    10    1
    13    10    11    1
    14    11    12    1
    15    12    13    1
    16    13    14    1
    17    14    15    1
    18     6     7   ar
    19    19    20    1
    20    20    21    2
    21    21    22    1
    22    22    23    1
    23    23    24    2
    24    24    25    1
    25    25    26    2
    26    26    27    1
    27    27    28    2
    28    27    18    1
    29     7     2   ar
    30    26    21    1
    31    15    10    1
