@<TRIPOS>MOLECULE
*****
 38 41 0 0 0
SMALL
GASTEIGER

@<TRIPOS>ATOM
      1 C           6.4570   -0.8533   24.0057 C.3     1  UNL1        0.1323
      2 C           6.7211   -2.2727   24.4128 C.ar    1  UNL1        0.1416
      3 N           6.5079   -2.6969   25.8356 N.ar    1  UNL1       -0.2225
      4 C           6.7720   -4.1162   26.2427 C.ar    1  UNL1        0.1352
      5 S           6.6524   -4.8209   27.5614 S.2     1  UNL1        0.0322
      6 N           7.0558   -6.2516   27.3607 N.ar    1  UNL1       -0.2118
      7 C           7.4247   -6.4311   25.9179 C.ar    1  UNL1        0.0738
      8 C           7.8878   -7.7065   25.2783 C.3     1  UNL1        0.0530
      9 C           7.2493   -5.1113   25.2269 C.ar    1  UNL1        0.0955
     10 C           7.4625   -4.6872   23.8041 C.ar    1  UNL1        0.2651
     11 O           7.9399   -5.6823   22.7883 O.2     1  UNL1       -0.2668
     12 N           7.1985   -3.2679   23.3969 N.ar    1  UNL1       -0.2784
     13 C           7.4117   -2.8436   21.9740 C.3     1  UNL1        0.1369
     14 C           6.3852   -3.1735   20.9313 C.ar    1  UNL1        0.0005
     15 C           5.0842   -3.8032   21.3324 C.ar    1  UNL1       -0.0024
     16 C           4.0577   -4.1331   20.2896 C.ar    1  UNL1       -0.0003
     17 C           4.3321   -3.8333   18.8457 C.ar    1  UNL1       -0.0000
     18 C           5.6331   -3.2036   18.4446 C.ar    1  UNL1       -0.0003
     19 C           6.6596   -2.8737   19.4874 C.ar    1  UNL1       -0.0024
     20 C           5.4639    0.2152   21.8558 C.2     1  UNL1        0.2493
     21 O           6.8394    0.6331   21.4279 O.2     1  UNL1       -0.2699
     22 N           5.2726   -0.5280   23.1447 N.am    1  UNL1       -0.2708
     23 C           0.7262    1.5162   18.4117 C.3     1  UNL1        0.0310
     24 C           1.9106    1.1910   19.2727 C.ar    1  UNL1       -0.0218
     25 C           2.6565   -0.0941   19.0678 C.ar    1  UNL1       -0.0041
     26 C           3.8409   -0.4194   19.9288 C.ar    1  UNL1        0.0042
     27 C           4.2794    0.5405   20.9948 C.ar    1  UNL1        0.0536
     28 C           3.5335    1.8257   21.1998 C.ar    1  UNL1        0.0042
     29 C           2.3491    2.1508   20.3387 C.ar    1  UNL1       -0.0041
     30 C           3.8970   -0.9459   23.5725 C.3     1  UNL1        0.0955
     31 C           3.1708   -0.1663   24.6285 C.3     1  UNL1        0.0383
     32 C           3.4616   -0.4167   26.0786 C.3     1  UNL1        0.0669
     33 N           3.6412   -1.8204   26.5760 N.3     1  UNL1       -0.3211
     34 H           2.7604   -2.3274   26.4884 H       1  UNL1        0.1189
     35 H           3.9260   -1.8003   27.5552 H       1  UNL1        0.1189
     36 C           7.3773    0.2408   24.4596 C.3     1  UNL1        0.0255
     37 C           8.8605    0.0903   24.2935 C.3     1  UNL1        0.0022
     38 C           6.8145    1.4853   25.0796 C.3     1  UNL1        0.0022
@<TRIPOS>BOND
     1    23    24    1
     2    24    25   ar
     3    25    26   ar
     4    26    27   ar
     5    27    20    1
     6    20    21    2
     7    20    22   am
     8    22    30    1
     9    30    31    1
    10    31    32    1
    11    32    33    1
    12    22     1    1
    13     1     2    1
    14     2     3   ar
    15     3     4   ar
    16     4     5   ar
    17     5     6   ar
    18     6     7   ar
    19     7     8    1
    20     7     9   ar
    21     9    10   ar
    22    10    11    2
    23    10    12   ar
    24    12    13    1
    25    13    14    1
    26    14    15   ar
    27    15    16   ar
    28    16    17   ar
    29    17    18   ar
    30    18    19   ar
    31     1    36    1
    32    36    37    1
    33    36    38    1
    34    27    28   ar
    35    28    29   ar
    36    29    24   ar
    37    12     2   ar
    38    19    14   ar
    39     9     4   ar
    40    33    34    1
    41    33    35    1
@<TRIPOS>MOLECULE
*****
 38 41 0 0 0
SMALL
GASTEIGER

@<TRIPOS>ATOM
      1 C           5.5361   -1.1266   20.9747 C.3     1  UNL1        0.1323
      2 C           4.2825   -0.3491   21.2468 C.ar    1  UNL1        0.1416
      3 N           3.1079   -0.4726   20.3223 N.ar    1  UNL1       -0.2225
      4 C           1.8543    0.3049   20.5943 C.ar    1  UNL1        0.1352
      5 S           0.5453    0.3856   19.8662 S.2     1  UNL1        0.0322
      6 N          -0.3426    1.3364   20.6129 N.ar    1  UNL1       -0.2118
      7 C           0.4176    1.8434   21.8025 C.ar    1  UNL1        0.0738
      8 C          -0.0907    2.8169   22.8242 C.3     1  UNL1        0.0530
      9 C           1.7753    1.2058   21.7910 C.ar    1  UNL1        0.0955
     10 C           2.9500    1.3293   22.7156 C.ar    1  UNL1        0.2651
     11 O           2.8711    2.2303   23.9123 O.2     1  UNL1       -0.2668
     12 N           4.2036    0.5519   22.4436 N.ar    1  UNL1       -0.2784
     13 C           5.3783    0.6753   23.3682 C.3     1  UNL1        0.1369
     14 C           5.4049   -0.0965   24.6541 C.ar    1  UNL1        0.0005
     15 C           4.2216   -0.9265   25.0552 C.ar    1  UNL1       -0.0024
     16 C           4.2481   -1.6983   26.3412 C.ar    1  UNL1       -0.0003
     17 C           5.4579   -1.6399   27.2260 C.ar    1  UNL1       -0.0000
     18 C           6.6412   -0.8099   26.8250 C.ar    1  UNL1       -0.0003
     19 C           6.6146   -0.0381   25.5390 C.ar    1  UNL1       -0.0024
     20 C           7.0427   -2.5496   22.5417 C.2     1  UNL1        0.2493
     21 O           8.0200   -1.4153   22.6323 O.2     1  UNL1       -0.2699
     22 N           5.8007   -2.4053   21.7129 N.am    1  UNL1       -0.2708
     23 C           8.1010   -7.6644   25.4946 C.3     1  UNL1        0.0310
     24 C           7.8364   -6.3857   24.7563 C.ar    1  UNL1       -0.0218
     25 C           7.0099   -5.3086   25.3942 C.ar    1  UNL1       -0.0041
     26 C           6.7453   -4.0300   24.6560 C.ar    1  UNL1        0.0042
     27 C           7.3072   -3.8283   23.2799 C.ar    1  UNL1        0.0536
     28 C           8.1338   -4.9054   22.6420 C.ar    1  UNL1        0.0042
     29 C           8.3983   -6.1841   23.3803 C.ar    1  UNL1       -0.0041
     30 C           4.8234   -3.5396   21.6224 C.3     1  UNL1        0.0955
     31 C           4.6626   -4.2898   20.3334 C.3     1  UNL1        0.0383
     32 C           3.5993   -3.8832   19.3566 C.3     1  UNL1        0.0669
     33 N           3.9095   -2.8810   18.2845 N.3     1  UNL1       -0.3211
     34 H           4.1042   -1.9754   18.7117 H       1  UNL1        0.1189
     35 H           3.1099   -2.7959   17.6570 H       1  UNL1        0.1189
     36 C           6.5251   -0.6254   19.9645 C.3     1  UNL1        0.0255
     37 C           6.8703    0.8334   19.9125 C.3     1  UNL1        0.0022
     38 C           7.1690   -1.5830   19.0061 C.3     1  UNL1        0.0022
@<TRIPOS>BOND
     1    23    24    1
     2    24    25   ar
     3    25    26   ar
     4    26    27   ar
     5    27    20    1
     6    20    21    2
     7    20    22   am
     8    22    30    1
     9    30    31    1
    10    31    32    1
    11    32    33    1
    12    22     1    1
    13     1     2    1
    14     2     3   ar
    15     3     4   ar
    16     4     5   ar
    17     5     6   ar
    18     6     7   ar
    19     7     8    1
    20     7     9   ar
    21     9    10   ar
    22    10    11    2
    23    10    12   ar
    24    12    13    1
    25    13    14    1
    26    14    15   ar
    27    15    16   ar
    28    16    17   ar
    29    17    18   ar
    30    18    19   ar
    31     1    36    1
    32    36    37    1
    33    36    38    1
    34    27    28   ar
    35    28    29   ar
    36    29    24   ar
    37    12     2   ar
    38    19    14   ar
    39     9     4   ar
    40    33    34    1
    41    33    35    1
@<TRIPOS>MOLECULE
*****
 38 41 0 0 0
SMALL
GASTEIGER

@<TRIPOS>ATOM
      1 C           5.4117   -2.7703   20.0680 C.3     1  UNL1        0.1323
      2 C           5.3675   -1.3914   19.4791 C.ar    1  UNL1        0.1416
      3 N           6.2637   -1.0377   18.3296 N.ar    1  UNL1       -0.2225
      4 C           6.2195    0.3412   17.7407 C.ar    1  UNL1        0.1352
      5 S           6.9780    0.9757   16.6129 S.2     1  UNL1        0.0322
      6 N           6.5063    2.3930   16.4765 N.ar    1  UNL1       -0.2118
      7 C           5.4562    2.6344   17.5201 C.ar    1  UNL1        0.0738
      8 C           4.7137    3.9186   17.7432 C.3     1  UNL1        0.0530
      9 C           5.2790    1.3663   18.3014 C.ar    1  UNL1        0.0955
     10 C           4.3826    1.0127   19.4510 C.ar    1  UNL1        0.2651
     11 O           3.4421    2.0378   20.0117 O.2     1  UNL1       -0.2668
     12 N           4.4269   -0.3662   20.0398 N.ar    1  UNL1       -0.2784
     13 C           3.5305   -0.7200   21.1895 C.3     1  UNL1        0.1369
     14 C           3.9268   -0.3548   22.5893 C.ar    1  UNL1        0.0005
     15 C           5.2774    0.2412   22.8551 C.ar    1  UNL1       -0.0024
     16 C           5.6737    0.6064   24.2550 C.ar    1  UNL1       -0.0003
     17 C           4.7193    0.3756   25.3890 C.ar    1  UNL1       -0.0000
     18 C           3.3688   -0.2204   25.1232 C.ar    1  UNL1       -0.0003
     19 C           2.9725   -0.5856   23.7233 C.ar    1  UNL1       -0.0024
     20 C           5.5752   -3.5797   22.5313 C.2     1  UNL1        0.2493
     21 O           4.1015   -3.8594   22.5373 O.2     1  UNL1       -0.2699
     22 N           6.2303   -3.0352   21.2966 N.am    1  UNL1       -0.2708
     23 C           8.8498   -4.6394   27.4460 C.3     1  UNL1        0.0310
     24 C           8.0311   -4.3744   26.2173 C.ar    1  UNL1       -0.0218
     25 C           8.0599   -5.3443   25.0735 C.ar    1  UNL1       -0.0041
     26 C           7.2412   -5.0795   23.8448 C.ar    1  UNL1        0.0042
     27 C           6.3938   -3.8446   23.7600 C.ar    1  UNL1        0.0536
     28 C           6.3651   -2.8747   24.9039 C.ar    1  UNL1        0.0042
     29 C           7.1838   -3.1397   26.1325 C.ar    1  UNL1       -0.0041
     30 C           7.7040   -2.7556   21.2906 C.3     1  UNL1        0.0955
     31 C           8.6138   -3.5464   20.3978 C.3     1  UNL1        0.0383
     32 C           9.3456   -4.7385   20.9395 C.3     1  UNL1        0.0669
     33 N           8.7232   -6.1008   20.8591 N.3     1  UNL1       -0.3211
     34 H           7.8907   -6.1296   21.4478 H       1  UNL1        0.1189
     35 H           9.3922   -6.7999   21.1818 H       1  UNL1        0.1189
     36 C           4.6373   -3.8843   19.4282 C.3     1  UNL1        0.0255
     37 C           3.1703   -3.7210   19.1611 C.3     1  UNL1        0.0022
     38 C           5.3298   -5.1616   19.0554 C.3     1  UNL1        0.0022
@<TRIPOS>BOND
     1    23    24    1
     2    24    25   ar
     3    25    26   ar
     4    26    27   ar
     5    27    20    1
     6    20    21    2
     7    20    22   am
     8    22    30    1
     9    30    31    1
    10    31    32    1
    11    32    33    1
    12    22     1    1
    13     1     2    1
    14     2     3   ar
    15     3     4   ar
    16     4     5   ar
    17     5     6   ar
    18     6     7   ar
    19     7     8    1
    20     7     9   ar
    21     9    10   ar
    22    10    11    2
    23    10    12   ar
    24    12    13    1
    25    13    14    1
    26    14    15   ar
    27    15    16   ar
    28    16    17   ar
    29    17    18   ar
    30    18    19   ar
    31     1    36    1
    32    36    37    1
    33    36    38    1
    34    27    28   ar
    35    28    29   ar
    36    29    24   ar
    37    12     2   ar
    38    19    14   ar
    39     9     4   ar
    40    33    34    1
    41    33    35    1
@<TRIPOS>MOLECULE
*****
 38 41 0 0 0
SMALL
GASTEIGER

@<TRIPOS>ATOM
      1 C          -0.6370    4.0153   23.3880 C.3     1  UNL1        0.1323
      2 C          -2.1297    4.1016   23.2665 C.ar    1  UNL1        0.1416
      3 N          -2.7537    4.5161   21.9670 N.ar    1  UNL1       -0.2225
      4 C          -4.2463    4.6024   21.8455 C.ar    1  UNL1        0.1352
      5 S          -5.1401    4.9789   20.7013 S.2     1  UNL1        0.0322
      6 N          -6.5610    4.8833   21.1721 N.ar    1  UNL1       -0.2118
      7 C          -6.5454    4.4476   22.6074 C.ar    1  UNL1        0.0738
      8 C          -7.7492    4.2247   23.4742 C.3     1  UNL1        0.0530
      9 C          -5.1148    4.2741   23.0236 C.ar    1  UNL1        0.0955
     10 C          -4.4908    3.8595   24.3231 C.ar    1  UNL1        0.2651
     11 O          -5.3594    3.5311   25.5011 O.2     1  UNL1       -0.2668
     12 N          -2.9983    3.7732   24.4446 N.ar    1  UNL1       -0.2784
     13 C          -2.3742    3.3586   25.7441 C.3     1  UNL1        0.1369
     14 C          -1.9777    4.3975   26.7508 C.ar    1  UNL1        0.0005
     15 C          -0.6240    4.3401   27.3944 C.ar    1  UNL1       -0.0024
     16 C          -0.2275    5.3790   28.4011 C.ar    1  UNL1       -0.0003
     17 C          -1.1847    6.4753   28.7642 C.ar    1  UNL1       -0.0000
     18 C          -2.5384    6.5328   28.1206 C.ar    1  UNL1       -0.0003
     19 C          -2.9349    5.4939   27.1139 C.ar    1  UNL1       -0.0024
     20 C           0.6835    2.6537   21.6125 C.2     1  UNL1        0.2493
     21 O           0.5754    3.8009   20.6522 O.2     1  UNL1       -0.2699
     22 N           0.0773    2.7609   22.9804 N.am    1  UNL1       -0.2708
     23 C           3.5412   -2.3640   19.9825 C.3     1  UNL1        0.0310
     24 C           2.8267   -1.1095   20.3900 C.ar    1  UNL1       -0.0218
     25 C           3.5830    0.0017   21.0558 C.ar    1  UNL1       -0.0041
     26 C           2.8686    1.2561   21.4634 C.ar    1  UNL1        0.0042
     27 C           1.3979    1.3993   21.2050 C.ar    1  UNL1        0.0536
     28 C           0.6416    0.2881   20.5391 C.ar    1  UNL1        0.0042
     29 C           1.3562   -0.9663   20.1317 C.ar    1  UNL1       -0.0041
     30 C           0.1855    1.6137   23.9408 C.3     1  UNL1        0.0955
     31 C           1.0022    1.7566   25.1909 C.3     1  UNL1        0.0383
     32 C           2.2606    0.9579   25.3599 C.3     1  UNL1        0.0669
     33 N           2.4338   -0.3346   24.6187 N.3     1  UNL1       -0.3211
     34 H           1.7532   -1.0146   24.9575 H       1  UNL1        0.1189
     35 H           3.3767   -0.6914   24.7732 H       1  UNL1        0.1189
     36 C           0.1411    5.1835   23.9170 C.3     1  UNL1        0.0255
     37 C          -0.5416    6.5003   24.1401 C.3     1  UNL1        0.0022
     38 C           1.6021    5.0348   24.2228 C.3     1  UNL1        0.0022
@<TRIPOS>BOND
     1    23    24    1
     2    24    25   ar
     3    25    26   ar
     4    26    27   ar
     5    27    20    1
     6    20    21    2
     7    20    22   am
     8    22    30    1
     9    30    31    1
    10    31    32    1
    11    32    33    1
    12    22     1    1
    13     1     2    1
    14     2     3   ar
    15     3     4   ar
    16     4     5   ar
    17     5     6   ar
    18     6     7   ar
    19     7     8    1
    20     7     9   ar
    21     9    10   ar
    22    10    11    2
    23    10    12   ar
    24    12    13    1
    25    13    14    1
    26    14    15   ar
    27    15    16   ar
    28    16    17   ar
    29    17    18   ar
    30    18    19   ar
    31     1    36    1
    32    36    37    1
    33    36    38    1
    34    27    28   ar
    35    28    29   ar
    36    29    24   ar
    37    12     2   ar
    38    19    14   ar
    39     9     4   ar
    40    33    34    1
    41    33    35    1
@<TRIPOS>MOLECULE
*****
 38 41 0 0 0
SMALL
GASTEIGER

@<TRIPOS>ATOM
      1 C           0.4059    3.5133   23.9041 C.3     1  UNL1        0.1323
      2 C          -0.9294    3.5375   23.2210 C.ar    1  UNL1        0.1416
      3 N          -2.1888    3.5365   24.0357 N.ar    1  UNL1       -0.2225
      4 C          -3.5240    3.5607   23.3527 C.ar    1  UNL1        0.1352
      5 S          -4.9252    3.5656   23.8879 S.2     1  UNL1        0.0322
      6 N          -5.8671    3.5940   22.7208 N.ar    1  UNL1       -0.2118
      7 C          -5.0479    3.6066   21.4643 C.ar    1  UNL1        0.0738
      8 C          -5.5830    3.6348   20.0632 C.3     1  UNL1        0.0530
      9 C          -3.5998    3.5860   21.8548 C.ar    1  UNL1        0.0955
     10 C          -2.3404    3.5871   21.0400 C.ar    1  UNL1        0.2651
     11 O          -2.4162    3.6124   19.5422 O.2     1  UNL1       -0.2668
     12 N          -1.0052    3.5628   21.7231 N.ar    1  UNL1       -0.2784
     13 C           0.2543    3.5639   20.9083 C.3     1  UNL1        0.1369
     14 C           0.7534    2.2880   20.2975 C.ar    1  UNL1        0.0005
     15 C           0.1628    0.9745   20.7168 C.ar    1  UNL1       -0.0024
     16 C           0.6619   -0.3013   20.1061 C.ar    1  UNL1       -0.0003
     17 C           1.7517   -0.2637   19.0761 C.ar    1  UNL1       -0.0000
     18 C           2.3424    1.0498   18.6568 C.ar    1  UNL1       -0.0003
     19 C           1.8432    2.3257   19.2675 C.ar    1  UNL1       -0.0024
     20 C           2.4907    2.0285   23.4582 C.2     1  UNL1        0.2493
     21 O           3.1138    3.1406   22.6678 O.2     1  UNL1       -0.2699
     22 N           1.1367    2.2148   24.0764 N.am    1  UNL1       -0.2708
     23 C           5.4140   -3.1657   24.1475 C.3     1  UNL1        0.0310
     24 C           4.6831   -1.8671   23.9751 C.ar    1  UNL1       -0.0218
     25 C           4.8183   -0.7877   25.0078 C.ar    1  UNL1       -0.0041
     26 C           4.0875    0.5109   24.8355 C.ar    1  UNL1        0.0042
     27 C           3.2215    0.7299   23.6305 C.ar    1  UNL1        0.0536
     28 C           3.0863   -0.3496   22.5978 C.ar    1  UNL1        0.0042
     29 C           3.8172   -1.6481   22.7702 C.ar    1  UNL1       -0.0041
     30 C           0.5136    1.1026   24.8668 C.3     1  UNL1        0.0955
     31 C           0.6115    1.1001   26.3637 C.3     1  UNL1        0.0383
     32 C          -0.5916    1.4354   27.1945 C.3     1  UNL1        0.0669
     33 N          -1.4247    2.6364   26.8574 N.3     1  UNL1       -0.3211
     34 H          -0.8752    3.4832   27.0032 H       1  UNL1        0.1189
     35 H          -2.2487    2.6581   27.4582 H       1  UNL1        0.1189
     36 C           1.0103    4.7876   24.4148 C.3     1  UNL1        0.0255
     37 C           1.7373    4.7998   25.7268 C.3     1  UNL1        0.0022
     38 C           0.8876    6.0497   23.6136 C.3     1  UNL1        0.0022
@<TRIPOS>BOND
     1    23    24    1
     2    24    25   ar
     3    25    26   ar
     4    26    27   ar
     5    27    20    1
     6    20    21    2
     7    20    22   am
     8    22    30    1
     9    30    31    1
    10    31    32    1
    11    32    33    1
    12    22     1    1
    13     1     2    1
    14     2     3   ar
    15     3     4   ar
    16     4     5   ar
    17     5     6   ar
    18     6     7   ar
    19     7     8    1
    20     7     9   ar
    21     9    10   ar
    22    10    11    2
    23    10    12   ar
    24    12    13    1
    25    13    14    1
    26    14    15   ar
    27    15    16   ar
    28    16    17   ar
    29    17    18   ar
    30    18    19   ar
    31     1    36    1
    32    36    37    1
    33    36    38    1
    34    27    28   ar
    35    28    29   ar
    36    29    24   ar
    37    12     2   ar
    38    19    14   ar
    39     9     4   ar
    40    33    34    1
    41    33    35    1
@<TRIPOS>MOLECULE
*****
 38 41 0 0 0
SMALL
GASTEIGER

@<TRIPOS>ATOM
      1 C           6.0189   -1.0031   23.3814 C.3     1  UNL1        0.1323
      2 C           6.4004   -2.3263   23.9762 C.ar    1  UNL1        0.1416
      3 N           6.2298   -2.5645   25.4472 N.ar    1  UNL1       -0.2225
      4 C           6.6113   -3.8876   26.0420 C.ar    1  UNL1        0.1352
      5 S           6.5565   -4.4097   27.4471 S.2     1  UNL1        0.0322
      6 N           7.0747   -5.8173   27.4392 N.ar    1  UNL1       -0.2118
      7 C           7.4498   -6.1652   26.0291 C.ar    1  UNL1        0.0738
      8 C           8.0125   -7.4757   25.5642 C.3     1  UNL1        0.0530
      9 C           7.1634   -4.9726   25.1656 C.ar    1  UNL1        0.0955
     10 C           7.3340   -4.7344   23.6945 C.ar    1  UNL1        0.2651
     11 O           7.8861   -5.8194   22.8181 O.2     1  UNL1       -0.2668
     12 N           6.9525   -3.4113   23.0997 N.ar    1  UNL1       -0.2784
     13 C           7.1231   -3.1730   21.6286 C.3     1  UNL1        0.1369
     14 C           5.9818   -3.4302   20.6899 C.ar    1  UNL1        0.0005
     15 C           6.0127   -2.8679   19.2997 C.ar    1  UNL1       -0.0024
     16 C           4.8714   -3.1251   18.3610 C.ar    1  UNL1       -0.0003
     17 C           3.6990   -3.9447   18.8126 C.ar    1  UNL1       -0.0000
     18 C           3.6681   -4.5070   20.2028 C.ar    1  UNL1       -0.0003
     19 C           4.8094   -4.2498   21.1415 C.ar    1  UNL1       -0.0024
     20 C           4.3617    0.7455   24.3541 C.2     1  UNL1        0.2493
     21 O           5.5033    1.4602   25.0144 O.2     1  UNL1       -0.2699
     22 N           4.6195   -0.4861   23.5376 N.am    1  UNL1       -0.2708
     23 C          -1.2360    2.8133   24.9788 C.3     1  UNL1        0.0310
     24 C           0.1635    2.2963   24.8226 C.ar    1  UNL1       -0.0218
     25 C           0.7101    1.3031   25.8048 C.ar    1  UNL1       -0.0041
     26 C           2.1095    0.7862   25.6486 C.ar    1  UNL1        0.0042
     27 C           2.9623    1.2624   24.5103 C.ar    1  UNL1        0.0536
     28 C           2.4156    2.2557   23.5280 C.ar    1  UNL1        0.0042
     29 C           1.0162    2.7726   23.6843 C.ar    1  UNL1       -0.0041
     30 C           3.4779   -1.2008   22.8772 C.3     1  UNL1        0.0955
     31 C           3.1807   -0.9598   21.4268 C.3     1  UNL1        0.0383
     32 C           1.9490   -0.2013   21.0296 C.3     1  UNL1        0.0669
     33 N           0.9318   -0.8403   20.1314 N.3     1  UNL1       -0.3211
     34 H           1.3413   -0.9953   19.2101 H       1  UNL1        0.1189
     35 H           0.1217   -0.2266   20.0445 H       1  UNL1        0.1189
     36 C           7.0368   -0.1969   22.6305 C.3     1  UNL1        0.0255
     37 C           6.6696    0.4483   21.3271 C.3     1  UNL1        0.0022
     38 C           8.4220   -0.0359   23.1830 C.3     1  UNL1        0.0022
@<TRIPOS>BOND
     1    23    24    1
     2    24    25   ar
     3    25    26   ar
     4    26    27   ar
     5    27    20    1
     6    20    21    2
     7    20    22   am
     8    22    30    1
     9    30    31    1
    10    31    32    1
    11    32    33    1
    12    22     1    1
    13     1     2    1
    14     2     3   ar
    15     3     4   ar
    16     4     5   ar
    17     5     6   ar
    18     6     7   ar
    19     7     8    1
    20     7     9   ar
    21     9    10   ar
    22    10    11    2
    23    10    12   ar
    24    12    13    1
    25    13    14    1
    26    14    15   ar
    27    15    16   ar
    28    16    17   ar
    29    17    18   ar
    30    18    19   ar
    31     1    36    1
    32    36    37    1
    33    36    38    1
    34    27    28   ar
    35    28    29   ar
    36    29    24   ar
    37    12     2   ar
    38    19    14   ar
    39     9     4   ar
    40    33    34    1
    41    33    35    1
@<TRIPOS>MOLECULE
*****
 38 41 0 0 0
SMALL
GASTEIGER

@<TRIPOS>ATOM
      1 C           3.9335    1.0699   23.9900 C.3     1  UNL1        0.1323
      2 C           2.6136    1.4906   24.5655 C.ar    1  UNL1        0.1416
      3 N           2.1986    1.0058   25.9229 N.ar    1  UNL1       -0.2225
      4 C           0.8788    1.4264   26.4984 C.ar    1  UNL1        0.1352
      5 S           0.2058    1.1113   27.8014 S.2     1  UNL1        0.0322
      6 N          -1.1149    1.8220   27.8248 N.ar    1  UNL1       -0.2118
      7 C          -1.2582    2.5764   26.5362 C.ar    1  UNL1        0.0738
      8 C          -2.4282    3.4261   26.1373 C.3     1  UNL1        0.0530
      9 C          -0.0260    2.3318   25.7165 C.ar    1  UNL1        0.0955
     10 C           0.3890    2.8167   24.3590 C.ar    1  UNL1        0.2651
     11 O          -0.5158    3.7222   23.5770 O.2     1  UNL1       -0.2668
     12 N           1.7088    2.3961   23.7835 N.ar    1  UNL1       -0.2784
     13 C           2.1239    2.8809   22.4260 C.3     1  UNL1        0.1369
     14 C           1.7196    2.1161   21.2006 C.ar    1  UNL1        0.0005
     15 C           2.0940    2.6264   19.8406 C.ar    1  UNL1       -0.0024
     16 C           1.6898    1.8616   18.6152 C.ar    1  UNL1       -0.0003
     17 C           0.9110    0.5866   18.7497 C.ar    1  UNL1       -0.0000
     18 C           0.5366    0.0764   20.1097 C.ar    1  UNL1       -0.0003
     19 C           0.9409    0.8412   21.3351 C.ar    1  UNL1       -0.0024
     20 C           4.4877   -0.1597   21.7695 C.2     1  UNL1        0.2493
     21 O           4.8365    1.1516   21.1303 O.2     1  UNL1       -0.2699
     22 N           4.0362   -0.2006   23.1994 N.am    1  UNL1       -0.2708
     23 C           4.8987   -5.2421   18.6071 C.3     1  UNL1        0.0310
     24 C           4.7959   -3.9715   19.3977 C.ar    1  UNL1       -0.0218
     25 C           5.9546   -3.5113   20.2317 C.ar    1  UNL1       -0.0041
     26 C           5.8519   -2.2408   21.0223 C.ar    1  UNL1        0.0042
     27 C           4.5904   -1.4303   20.9789 C.ar    1  UNL1        0.0536
     28 C           3.4316   -1.8905   20.1449 C.ar    1  UNL1        0.0042
     29 C           3.5345   -3.1611   19.3543 C.ar    1  UNL1       -0.0041
     30 C           3.6874   -1.5120   23.8387 C.3     1  UNL1        0.0955
     31 C           4.5176   -2.0383   24.9718 C.3     1  UNL1        0.0383
     32 C           5.8029   -2.7578   24.6886 C.3     1  UNL1        0.0669
     33 N           6.1614   -3.9879   25.4686 N.3     1  UNL1       -0.3211
     34 H           6.3173   -3.7378   26.4451 H       1  UNL1        0.1189
     35 H           7.0114   -4.3992   25.0831 H       1  UNL1        0.1189
     36 C           5.1505    1.9199   24.2051 C.3     1  UNL1        0.0255
     37 C           6.4954    1.2762   24.3695 C.3     1  UNL1        0.0022
     38 C           5.0228    3.4136   24.2559 C.3     1  UNL1        0.0022
@<TRIPOS>BOND
     1    23    24    1
     2    24    25   ar
     3    25    26   ar
     4    26    27   ar
     5    27    20    1
     6    20    21    2
     7    20    22   am
     8    22    30    1
     9    30    31    1
    10    31    32    1
    11    32    33    1
    12    22     1    1
    13     1     2    1
    14     2     3   ar
    15     3     4   ar
    16     4     5   ar
    17     5     6   ar
    18     6     7   ar
    19     7     8    1
    20     7     9   ar
    21     9    10   ar
    22    10    11    2
    23    10    12   ar
    24    12    13    1
    25    13    14    1
    26    14    15   ar
    27    15    16   ar
    28    16    17   ar
    29    17    18   ar
    30    18    19   ar
    31     1    36    1
    32    36    37    1
    33    36    38    1
    34    27    28   ar
    35    28    29   ar
    36    29    24   ar
    37    12     2   ar
    38    19    14   ar
    39     9     4   ar
    40    33    34    1
    41    33    35    1
@<TRIPOS>MOLECULE
*****
 38 41 0 0 0
SMALL
GASTEIGER

@<TRIPOS>ATOM
      1 C           1.3512    3.6861   19.7170 C.3     1  UNL1        0.1323
      2 C           0.0605    3.6490   20.4806 C.ar    1  UNL1        0.1416
      3 N          -1.2441    3.5676   19.7449 N.ar    1  UNL1       -0.2225
      4 C          -2.5347    3.5304   20.5084 C.ar    1  UNL1        0.1352
      5 S          -3.9640    3.4516   20.0604 S.2     1  UNL1        0.0322
      6 N          -4.8334    3.4472   21.2827 N.ar    1  UNL1       -0.2118
      7 C          -3.9413    3.5232   22.4862 C.ar    1  UNL1        0.0738
      8 C          -4.3910    3.5442   23.9171 C.3     1  UNL1        0.0530
      9 C          -2.5206    3.5747   22.0076 C.ar    1  UNL1        0.0955
     10 C          -1.2160    3.6561   22.7434 C.ar    1  UNL1        0.2651
     11 O          -1.2020    3.7004   24.2427 O.2     1  UNL1       -0.2668
     12 N           0.0746    3.6933   21.9799 N.ar    1  UNL1       -0.2784
     13 C           1.3793    3.7747   22.7156 C.3     1  UNL1        0.1369
     14 C           1.8873    2.5853   23.4753 C.ar    1  UNL1        0.0005
     15 C           2.6312    2.7799   24.7632 C.ar    1  UNL1       -0.0024
     16 C           3.1392    1.5905   25.5230 C.ar    1  UNL1       -0.0003
     17 C           2.9034    0.2065   24.9948 C.ar    1  UNL1       -0.0000
     18 C           2.1595    0.0119   23.7068 C.ar    1  UNL1       -0.0003
     19 C           1.6515    1.2013   22.9471 C.ar    1  UNL1       -0.0024
     20 C           1.7093    1.2496   18.8893 C.2     1  UNL1        0.2493
     21 O           0.3580    1.2720   18.2386 O.2     1  UNL1       -0.2699
     22 N           2.2059    2.4567   19.6285 N.am    1  UNL1       -0.2708
     23 C           5.1283   -3.6683   18.5356 C.3     1  UNL1        0.0310
     24 C           4.2735   -2.4387   18.6240 C.ar    1  UNL1       -0.0218
     25 C           3.3637   -2.2409   19.8000 C.ar    1  UNL1       -0.0041
     26 C           2.5090   -1.0114   19.8885 C.ar    1  UNL1        0.0042
     27 C           2.5640    0.0202   18.8009 C.ar    1  UNL1        0.0536
     28 C           3.4739   -0.1777   17.6248 C.ar    1  UNL1        0.0042
     29 C           4.3286   -1.4072   17.5365 C.ar    1  UNL1       -0.0041
     30 C           3.5572    2.4343   20.2793 C.3     1  UNL1        0.0955
     31 C           4.7769    2.8034   19.4879 C.3     1  UNL1        0.0383
     32 C           5.9931    1.9267   19.5320 C.3     1  UNL1        0.0669
     33 N           5.9269    0.5853   20.2001 N.3     1  UNL1       -0.3211
     34 H           5.7707    0.7110   21.2002 H       1  UNL1        0.1189
     35 H           6.8055    0.0884   20.0530 H       1  UNL1        0.1189
     36 C           1.7870    4.9528   19.0419 C.3     1  UNL1        0.0255
     37 C           2.0339    6.1891   19.8546 C.3     1  UNL1        0.0022
     38 C           1.9759    4.9830   17.5542 C.3     1  UNL1        0.0022
@<TRIPOS>BOND
     1    23    24    1
     2    24    25   ar
     3    25    26   ar
     4    26    27   ar
     5    27    20    1
     6    20    21    2
     7    20    22   am
     8    22    30    1
     9    30    31    1
    10    31    32    1
    11    32    33    1
    12    22     1    1
    13     1     2    1
    14     2     3   ar
    15     3     4   ar
    16     4     5   ar
    17     5     6   ar
    18     6     7   ar
    19     7     8    1
    20     7     9   ar
    21     9    10   ar
    22    10    11    2
    23    10    12   ar
    24    12    13    1
    25    13    14    1
    26    14    15   ar
    27    15    16   ar
    28    16    17   ar
    29    17    18   ar
    30    18    19   ar
    31     1    36    1
    32    36    37    1
    33    36    38    1
    34    27    28   ar
    35    28    29   ar
    36    29    24   ar
    37    12     2   ar
    38    19    14   ar
    39     9     4   ar
    40    33    34    1
    41    33    35    1
@<TRIPOS>MOLECULE
*****
 38 41 0 0 0
SMALL
GASTEIGER

@<TRIPOS>ATOM
      1 C           0.8442    3.5709   23.6279 C.3     1  UNL1        0.1323
      2 C          -0.6511    3.6688   23.6966 C.ar    1  UNL1        0.1416
      3 N          -1.4761    3.4214   22.4687 N.ar    1  UNL1       -0.2225
      4 C          -2.9713    3.5193   22.5374 C.ar    1  UNL1        0.1352
      5 S          -4.0383    3.3305   21.5002 S.2     1  UNL1        0.0322
      6 N          -5.3679    3.5590   22.1559 N.ar    1  UNL1       -0.2118
      7 C          -5.1226    3.8891   23.5984 C.ar    1  UNL1        0.0738
      8 C          -6.1740    4.1908   24.6250 C.3     1  UNL1        0.0530
      9 C          -3.6415    3.8645   23.8342 C.ar    1  UNL1        0.0955
     10 C          -2.8164    4.1119   25.0623 C.ar    1  UNL1        0.2651
     11 O          -3.4866    4.4571   26.3591 O.2     1  UNL1       -0.2668
     12 N          -1.3212    4.0140   24.9935 N.ar    1  UNL1       -0.2784
     13 C          -0.4961    4.2614   26.2216 C.3     1  UNL1        0.1369
     14 C          -0.3479    3.1844   27.2550 C.ar    1  UNL1        0.0005
     15 C          -0.9653    1.8365   27.0273 C.ar    1  UNL1       -0.0024
     16 C          -0.8171    0.7594   28.0607 C.ar    1  UNL1       -0.0003
     17 C          -0.0515    1.0303   29.3218 C.ar    1  UNL1       -0.0000
     18 C           0.5660    2.3782   29.5495 C.ar    1  UNL1       -0.0003
     19 C           0.4178    3.4552   28.5161 C.ar    1  UNL1       -0.0024
     20 C           2.5736    2.5215   25.2582 C.2     1  UNL1        0.2493
     21 O           2.9054    3.8862   25.7848 O.2     1  UNL1       -0.2699
     22 N           1.5430    2.3638   24.1797 N.am    1  UNL1       -0.2708
     23 C           5.3686   -2.3071   27.4656 C.3     1  UNL1        0.0310
     24 C           4.6698   -1.0999   26.9137 C.ar    1  UNL1       -0.0218
     25 C           3.4096   -0.6031   27.5578 C.ar    1  UNL1       -0.0041
     26 C           2.7108    0.6040   27.0060 C.ar    1  UNL1        0.0042
     27 C           3.2723    1.3143   25.8100 C.ar    1  UNL1        0.0536
     28 C           4.5327    0.8174   25.1659 C.ar    1  UNL1        0.0042
     29 C           5.2313   -0.3897   25.7179 C.ar    1  UNL1       -0.0041
     30 C           1.2112    0.9990   23.6531 C.3     1  UNL1        0.0955
     31 C           1.6759    0.5889   22.2871 C.3     1  UNL1        0.0383
     32 C           0.8659    0.9538   21.0785 C.3     1  UNL1        0.0669
     33 N          -0.0974   -0.0364   20.4942 N.3     1  UNL1       -0.3211
     34 H           0.4188   -0.8326   20.1197 H       1  UNL1        0.1189
     35 H          -0.6284    0.4073   19.7449 H       1  UNL1        0.1189
     36 C           1.6407    4.6802   23.0072 C.3     1  UNL1        0.0255
     37 C           1.3826    6.1029   23.4063 C.3     1  UNL1        0.0022
     38 C           2.6952    4.3667   21.9876 C.3     1  UNL1        0.0022
@<TRIPOS>BOND
     1    23    24    1
     2    24    25   ar
     3    25    26   ar
     4    26    27   ar
     5    27    20    1
     6    20    21    2
     7    20    22   am
     8    22    30    1
     9    30    31    1
    10    31    32    1
    11    32    33    1
    12    22     1    1
    13     1     2    1
    14     2     3   ar
    15     3     4   ar
    16     4     5   ar
    17     5     6   ar
    18     6     7   ar
    19     7     8    1
    20     7     9   ar
    21     9    10   ar
    22    10    11    2
    23    10    12   ar
    24    12    13    1
    25    13    14    1
    26    14    15   ar
    27    15    16   ar
    28    16    17   ar
    29    17    18   ar
    30    18    19   ar
    31     1    36    1
    32    36    37    1
    33    36    38    1
    34    27    28   ar
    35    28    29   ar
    36    29    24   ar
    37    12     2   ar
    38    19    14   ar
    39     9     4   ar
    40    33    34    1
    41    33    35    1
