@<TRIPOS>MOLECULE
*****
 33 36 0 0 0
SMALL
GASTEIGER

@<TRIPOS>ATOM
      1 C          -9.0306  -18.7376   20.7166 C.ar    1  UNL1        0.0678
      2 C          -9.6972  -19.3048   19.4985 C.ar    1  UNL1        0.0055
      3 C          -8.9797  -20.3141   18.6521 C.ar    1  UNL1        0.0016
      4 C          -7.5954  -20.7563   19.0238 C.ar    1  UNL1        0.0181
      5 C          -6.9287  -20.1890   20.2420 C.ar    1  UNL1        0.0922
      6 C          -7.6463  -19.1797   21.0884 C.ar    1  UNL1        0.1576
      7 F          -6.9795  -18.6126   22.3065 F       1  UNL1       -0.2027
      8 C          -9.7482  -17.7283   21.5630 C.2     1  UNL1        0.2014
      9 O         -10.1674  -16.4153   20.9710 O.2     1  UNL1       -0.2864
     10 C          -7.5589  -16.2427   25.6516 C.2     1  UNL1        0.0974
     11 C          -8.1977  -16.7995   26.8893 C.2     1  UNL1        0.2421
     12 N          -9.3837  -17.7109   26.7762 N.2     1  UNL1       -0.0304
     13 C          -9.9309  -18.0655   25.4254 C.2     1  UNL1        0.3721
     14 N         -11.0800  -18.9327   25.0040 N.2     1  UNL1       -0.0307
     15 C         -11.1514  -18.9120   23.5058 C.2     1  UNL1        0.2390
     16 C         -10.0465  -18.0319   23.0013 C.2     1  UNL1        0.0895
     17 C          -9.2921  -17.5088   24.1877 C.2     1  UNL1        0.0782
     18 C          -8.1062  -16.5974   24.3008 C.3     1  UNL1        0.0751
     19 N          -5.1870  -14.4199   25.8777 N.1     1  UNL1       -0.1910
     20 C          -6.3730  -15.3313   25.7647 C.1     1  UNL1        0.1003
     21 N          -5.5444  -20.6312   20.6138 N.pl3   1  UNL1       -0.2127
     22 H          -5.3611  -21.5832   20.7851 H       1  UNL1        0.1738
     23 S          -4.4393  -19.6230   20.7244 S.O2    1  UNL1        0.0759
     24 O          -4.7462  -19.1345   19.3399 O.2     1  UNL1       -0.1499
     25 O          -4.1324  -20.1113   22.1091 O.2     1  UNL1       -0.1499
     26 C          -3.3342  -18.6147   20.8352 C.ar    1  UNL1        0.1547
     27 C          -2.1893  -18.6475   19.8667 C.ar    1  UNL1        0.0521
     28 C          -1.0842  -17.6392   19.9774 C.ar    1  UNL1        0.1416
     29 F           0.0607  -17.6720   19.0089 F       1  UNL1       -0.2041
     30 C          -1.1241  -16.5982   21.0566 C.ar    1  UNL1        0.0320
     31 C          -2.2690  -16.5654   22.0251 C.ar    1  UNL1        0.0333
     32 C          -3.3741  -17.5736   21.9144 C.ar    1  UNL1        0.1590
     33 F          -4.5191  -17.5409   22.8829 F       1  UNL1       -0.2027
@<TRIPOS>BOND
     1    19    20    3
     2    20    10    1
     3    10    11    2
     4    11    12    1
     5    12    13    2
     6    13    14    1
     7    14    15    2
     8    15    16    1
     9    16     8    1
    10     8     9    2
    11     8     1    1
    12     1     2   ar
    13     2     3   ar
    14     3     4   ar
    15     4     5   ar
    16     5    21    1
    17    21    23    1
    18    23    24    2
    19    23    25    2
    20    23    26    1
    21    26    27   ar
    22    27    28   ar
    23    28    29    1
    24    28    30   ar
    25    30    31   ar
    26    31    32   ar
    27    32    33    1
    28     5     6   ar
    29     6     7    1
    30    16    17    2
    31    17    18    1
    32    18    10    1
    33    17    13    1
    34     6     1   ar
    35    32    26   ar
    36    21    22    1
@<TRIPOS>MOLECULE
*****
 33 36 0 0 0
SMALL
GASTEIGER

@<TRIPOS>ATOM
      1 C          -9.8588  -18.3157   20.7202 C.ar    1  UNL1        0.0678
      2 C         -10.7529  -18.6717   19.5696 C.ar    1  UNL1        0.0055
      3 C         -10.2849  -19.6459   18.5295 C.ar    1  UNL1        0.0016
      4 C          -8.9227  -20.2641   18.6399 C.ar    1  UNL1        0.0181
      5 C          -8.0285  -19.9081   19.7905 C.ar    1  UNL1        0.0922
      6 C          -8.4966  -18.9339   20.8306 C.ar    1  UNL1        0.1576
      7 F          -7.6024  -18.5780   21.9812 F       1  UNL1       -0.2027
      8 C         -10.3268  -17.3415   21.7603 C.2     1  UNL1        0.2014
      9 O         -10.6729  -15.9354   21.3692 O.2     1  UNL1       -0.2864
     10 C          -7.6213  -16.2463   25.6586 C.2     1  UNL1        0.0974
     11 C          -8.1101  -16.9103   26.9117 C.2     1  UNL1        0.2421
     12 N          -9.3159  -17.8014   26.8669 N.2     1  UNL1       -0.0304
     13 C         -10.0328  -18.0286   25.5691 C.2     1  UNL1        0.3721
     14 N         -11.2396  -18.8478   25.2191 N.2     1  UNL1       -0.0307
     15 C         -11.4966  -18.6901   23.7497 C.2     1  UNL1        0.2390
     16 C         -10.4487  -17.7735   23.1916 C.2     1  UNL1        0.0895
     17 C          -9.5440  -17.3646   24.3161 C.2     1  UNL1        0.0782
     18 C          -8.3382  -16.4735   24.3608 C.3     1  UNL1        0.0751
     19 N          -5.2097  -14.4641   25.7481 N.1     1  UNL1       -0.1910
     20 C          -6.4155  -15.3552   25.7034 C.1     1  UNL1        0.1003
     21 N          -6.6663  -20.5264   19.9009 N.pl3   1  UNL1       -0.2127
     22 H          -6.4909  -21.4064   19.4959 H       1  UNL1        0.1738
     23 S          -5.5714  -19.8038   20.6282 S.O2    1  UNL1        0.0759
     24 O          -5.5735  -18.7381   19.5727 O.2     1  UNL1       -0.1499
     25 O          -5.5693  -20.8695   21.6838 O.2     1  UNL1       -0.1499
     26 C          -4.4765  -19.0812   21.3556 C.ar    1  UNL1        0.1547
     27 C          -4.7180  -18.5490   22.7370 C.ar    1  UNL1        0.0521
     28 C          -3.6232  -17.8265   23.4645 C.ar    1  UNL1        0.1416
     29 F          -3.8647  -17.2943   24.8459 F       1  UNL1       -0.2041
     30 C          -2.2867  -17.6361   22.8104 C.ar    1  UNL1        0.0320
     31 C          -2.0452  -18.1682   21.4290 C.ar    1  UNL1        0.0333
     32 C          -3.1401  -18.8908   20.7016 C.ar    1  UNL1        0.1590
     33 F          -2.8986  -19.4230   19.3201 F       1  UNL1       -0.2027
@<TRIPOS>BOND
     1    19    20    3
     2    20    10    1
     3    10    11    2
     4    11    12    1
     5    12    13    2
     6    13    14    1
     7    14    15    2
     8    15    16    1
     9    16     8    1
    10     8     9    2
    11     8     1    1
    12     1     2   ar
    13     2     3   ar
    14     3     4   ar
    15     4     5   ar
    16     5    21    1
    17    21    23    1
    18    23    24    2
    19    23    25    2
    20    23    26    1
    21    26    27   ar
    22    27    28   ar
    23    28    29    1
    24    28    30   ar
    25    30    31   ar
    26    31    32   ar
    27    32    33    1
    28     5     6   ar
    29     6     7    1
    30    16    17    2
    31    17    18    1
    32    18    10    1
    33    17    13    1
    34     6     1   ar
    35    32    26   ar
    36    21    22    1
@<TRIPOS>MOLECULE
*****
 33 36 0 0 0
SMALL
GASTEIGER

@<TRIPOS>ATOM
      1 C          -4.7945  -19.5827   20.4963 C.ar    1  UNL1        0.0678
      2 C          -3.8049  -19.4825   19.3735 C.ar    1  UNL1        0.0055
      3 C          -2.6177  -18.5743   19.4990 C.ar    1  UNL1        0.0016
      4 C          -2.4200  -17.7664   20.7473 C.ar    1  UNL1        0.0181
      5 C          -3.4097  -17.8667   21.8701 C.ar    1  UNL1        0.0922
      6 C          -4.5969  -18.7748   21.7446 C.ar    1  UNL1        0.1576
      7 F          -5.5865  -18.8750   22.8674 F       1  UNL1       -0.2027
      8 C          -5.9818  -20.4908   20.3708 C.2     1  UNL1        0.2014
      9 O          -5.8323  -21.9608   20.6291 O.2     1  UNL1       -0.2864
     10 C          -9.6325  -18.8006   23.1152 C.2     1  UNL1        0.0974
     11 C         -10.8016  -18.3288   22.3025 C.2     1  UNL1        0.2421
     12 N         -10.7559  -18.4100   20.8054 N.2     1  UNL1       -0.0304
     13 C          -9.5411  -18.9630   20.1210 C.2     1  UNL1        0.3721
     14 N          -9.2103  -19.1654   18.6721 N.2     1  UNL1       -0.0307
     15 C          -7.8366  -19.7624   18.5892 C.2     1  UNL1        0.2390
     16 C          -7.3186  -19.9289   19.9870 C.2     1  UNL1        0.0895
     17 C          -8.3720  -19.4348   20.9337 C.2     1  UNL1        0.0782
     18 C          -8.4177  -19.3537   22.4308 C.3     1  UNL1        0.0751
     19 N          -9.7239  -18.6383   26.1094 N.1     1  UNL1       -0.1910
     20 C          -9.6782  -18.7195   24.6123 C.1     1  UNL1        0.1003
     21 N          -3.2120  -17.0587   23.1183 N.pl3   1  UNL1       -0.2127
     22 H          -2.3020  -16.8453   23.4276 H       1  UNL1        0.1738
     23 S          -4.4007  -16.5760   23.8954 S.O2    1  UNL1        0.0759
     24 O          -4.2372  -17.7174   24.8547 O.2     1  UNL1       -0.1499
     25 O          -4.5643  -15.4346   22.9361 O.2     1  UNL1       -0.1499
     26 C          -5.5895  -16.0932   24.6725 C.ar    1  UNL1        0.1547
     27 C          -5.4242  -15.6441   26.0941 C.ar    1  UNL1        0.0521
     28 C          -6.6129  -15.1613   26.8712 C.ar    1  UNL1        0.1416
     29 F          -6.4475  -14.7122   28.2928 F       1  UNL1       -0.2041
     30 C          -7.9670  -15.1276   26.2267 C.ar    1  UNL1        0.0320
     31 C          -8.1323  -15.5767   24.8051 C.ar    1  UNL1        0.0333
     32 C          -6.9436  -16.0595   24.0280 C.ar    1  UNL1        0.1590
     33 F          -7.1089  -16.5086   22.6064 F       1  UNL1       -0.2027
@<TRIPOS>BOND
     1    19    20    3
     2    20    10    1
     3    10    11    2
     4    11    12    1
     5    12    13    2
     6    13    14    1
     7    14    15    2
     8    15    16    1
     9    16     8    1
    10     8     9    2
    11     8     1    1
    12     1     2   ar
    13     2     3   ar
    14     3     4   ar
    15     4     5   ar
    16     5    21    1
    17    21    23    1
    18    23    24    2
    19    23    25    2
    20    23    26    1
    21    26    27   ar
    22    27    28   ar
    23    28    29    1
    24    28    30   ar
    25    30    31   ar
    26    31    32   ar
    27    32    33    1
    28     5     6   ar
    29     6     7    1
    30    16    17    2
    31    17    18    1
    32    18    10    1
    33    17    13    1
    34     6     1   ar
    35    32    26   ar
    36    21    22    1
@<TRIPOS>MOLECULE
*****
 33 36 0 0 0
SMALL
GASTEIGER

@<TRIPOS>ATOM
      1 C          -5.0542  -15.9493   24.1799 C.ar    1  UNL1        0.0678
      2 C          -4.5755  -16.0423   25.5984 C.ar    1  UNL1        0.0055
      3 C          -5.5579  -15.9559   26.7287 C.ar    1  UNL1        0.0016
      4 C          -7.0190  -15.7765   26.4405 C.ar    1  UNL1        0.0181
      5 C          -7.4976  -15.6835   25.0219 C.ar    1  UNL1        0.0922
      6 C          -6.5153  -15.7699   23.8916 C.ar    1  UNL1        0.1576
      7 F          -6.9940  -15.6769   22.4731 F       1  UNL1       -0.2027
      8 C          -4.0719  -16.0358   23.0497 C.2     1  UNL1        0.2014
      9 O          -3.6246  -14.7879   22.3476 O.2     1  UNL1       -0.2864
     10 C          -6.0736  -19.5466   20.3325 C.2     1  UNL1        0.0974
     11 C          -5.1700  -20.7303   20.1528 C.2     1  UNL1        0.2421
     12 N          -3.8092  -20.7376   20.7837 N.2     1  UNL1       -0.0304
     13 C          -3.3520  -19.5614   21.5945 C.2     1  UNL1        0.3721
     14 N          -2.0746  -19.2853   22.3306 N.2     1  UNL1       -0.0307
     15 C          -2.1887  -17.9309   22.9653 C.2     1  UNL1        0.2390
     16 C          -3.5367  -17.3700   22.6215 C.2     1  UNL1        0.0895
     17 C          -4.2557  -18.3777   21.7742 C.2     1  UNL1        0.0782
     18 C          -5.6165  -18.3704   21.1433 C.3     1  UNL1        0.0751
     19 N          -8.7953  -19.5319   19.0705 N.1     1  UNL1       -0.1910
     20 C          -7.4345  -19.5393   19.7015 C.1     1  UNL1        0.1003
     21 N          -8.9587  -15.5041   24.7337 N.pl3   1  UNL1       -0.2127
     22 H          -9.4344  -14.7130   25.0758 H       1  UNL1        0.1738
     23 S          -9.6950  -16.5300   23.9241 S.O2    1  UNL1        0.0759
     24 O          -9.6328  -17.4857   25.0785 O.2     1  UNL1       -0.1499
     25 O          -9.7572  -15.5743   22.7697 O.2     1  UNL1       -0.1499
     26 C         -10.4313  -17.5559   23.1145 C.ar    1  UNL1        0.1547
     27 C         -11.8517  -17.3072   22.7016 C.ar    1  UNL1        0.0521
     28 C         -12.5880  -18.3330   21.8921 C.ar    1  UNL1        0.1416
     29 F         -14.0085  -18.0843   21.4792 F       1  UNL1       -0.2041
     30 C         -11.9039  -19.6076   21.4953 C.ar    1  UNL1        0.0320
     31 C         -10.4835  -19.8564   21.9081 C.ar    1  UNL1        0.0333
     32 C          -9.7472  -18.8305   22.7177 C.ar    1  UNL1        0.1590
     33 F          -8.3268  -19.0792   23.1306 F       1  UNL1       -0.2027
@<TRIPOS>BOND
     1    19    20    3
     2    20    10    1
     3    10    11    2
     4    11    12    1
     5    12    13    2
     6    13    14    1
     7    14    15    2
     8    15    16    1
     9    16     8    1
    10     8     9    2
    11     8     1    1
    12     1     2   ar
    13     2     3   ar
    14     3     4   ar
    15     4     5   ar
    16     5    21    1
    17    21    23    1
    18    23    24    2
    19    23    25    2
    20    23    26    1
    21    26    27   ar
    22    27    28   ar
    23    28    29    1
    24    28    30   ar
    25    30    31   ar
    26    31    32   ar
    27    32    33    1
    28     5     6   ar
    29     6     7    1
    30    16    17    2
    31    17    18    1
    32    18    10    1
    33    17    13    1
    34     6     1   ar
    35    32    26   ar
    36    21    22    1
@<TRIPOS>MOLECULE
*****
 33 36 0 0 0
SMALL
GASTEIGER

@<TRIPOS>ATOM
      1 C          -7.4558  -19.8494   20.3502 C.ar    1  UNL1        0.0678
      2 C          -8.2074  -19.8867   19.0526 C.ar    1  UNL1        0.0055
      3 C          -9.5873  -19.3048   18.9681 C.ar    1  UNL1        0.0016
      4 C         -10.2158  -18.6856   20.1812 C.ar    1  UNL1        0.0181
      5 C          -9.4641  -18.6483   21.4788 C.ar    1  UNL1        0.0922
      6 C          -8.0842  -19.2302   21.5633 C.ar    1  UNL1        0.1576
      7 F          -7.3327  -19.1928   22.8610 F       1  UNL1       -0.2027
      8 C          -6.0759  -20.4313   20.4347 C.2     1  UNL1        0.2014
      9 O          -5.8943  -21.8920   20.7237 O.2     1  UNL1       -0.2864
     10 C          -3.3451  -17.9751   23.6325 C.2     1  UNL1        0.0974
     11 C          -2.2290  -17.2137   22.9811 C.2     1  UNL1        0.2421
     12 N          -2.0542  -17.2662   21.4922 N.2     1  UNL1       -0.0304
     13 C          -2.9955  -18.0801   20.6548 C.2     1  UNL1        0.3721
     14 N          -3.0716  -18.3205   19.1761 N.2     1  UNL1       -0.0307
     15 C          -4.2348  -19.2306   18.9137 C.2     1  UNL1        0.2390
     16 C          -4.8776  -19.5526   20.2301 C.2     1  UNL1        0.0895
     17 C          -4.1117  -18.8415   21.3062 C.2     1  UNL1        0.0782
     18 C          -4.2865  -18.7890   22.7951 C.3     1  UNL1        0.0751
     19 N          -3.6947  -17.8701   26.6102 N.1     1  UNL1       -0.1910
     20 C          -3.5199  -17.9226   25.1213 C.1     1  UNL1        0.1003
     21 N         -10.0926  -18.0290   22.6919 N.pl3   1  UNL1       -0.2127
     22 H         -11.0584  -18.1317   22.8527 H       1  UNL1        0.1738
     23 S          -9.2494  -17.2534   23.6601 S.O2    1  UNL1        0.0759
     24 O          -9.4487  -18.3240   24.6915 O.2     1  UNL1       -0.1499
     25 O          -9.0501  -16.1826   22.6288 O.2     1  UNL1       -0.1499
     26 C          -8.4063  -16.4776   24.6284 C.ar    1  UNL1        0.1547
     27 C          -8.9883  -16.0253   25.9347 C.ar    1  UNL1        0.0521
     28 C          -8.1452  -15.2496   26.9029 C.ar    1  UNL1        0.1416
     29 F          -8.7273  -14.7973   28.2093 F       1  UNL1       -0.2041
     30 C          -6.7201  -14.9261   26.5647 C.ar    1  UNL1        0.0320
     31 C          -6.1380  -15.3784   25.2584 C.ar    1  UNL1        0.0333
     32 C          -6.9811  -16.1541   24.2902 C.ar    1  UNL1        0.1590
     33 F          -6.3992  -16.6064   22.9838 F       1  UNL1       -0.2027
@<TRIPOS>BOND
     1    19    20    3
     2    20    10    1
     3    10    11    2
     4    11    12    1
     5    12    13    2
     6    13    14    1
     7    14    15    2
     8    15    16    1
     9    16     8    1
    10     8     9    2
    11     8     1    1
    12     1     2   ar
    13     2     3   ar
    14     3     4   ar
    15     4     5   ar
    16     5    21    1
    17    21    23    1
    18    23    24    2
    19    23    25    2
    20    23    26    1
    21    26    27   ar
    22    27    28   ar
    23    28    29    1
    24    28    30   ar
    25    30    31   ar
    26    31    32   ar
    27    32    33    1
    28     5     6   ar
    29     6     7    1
    30    16    17    2
    31    17    18    1
    32    18    10    1
    33    17    13    1
    34     6     1   ar
    35    32    26   ar
    36    21    22    1
@<TRIPOS>MOLECULE
*****
 33 36 0 0 0
SMALL
GASTEIGER

@<TRIPOS>ATOM
      1 C          -5.6264  -19.6055   20.8999 C.ar    1  UNL1        0.0678
      2 C          -4.4583  -20.3109   20.2771 C.ar    1  UNL1        0.0055
      3 C          -3.0639  -19.8181   20.5278 C.ar    1  UNL1        0.0016
      4 C          -2.8376  -18.6200   21.4015 C.ar    1  UNL1        0.0181
      5 C          -4.0058  -17.9146   22.0243 C.ar    1  UNL1        0.0922
      6 C          -5.4002  -18.4074   21.7736 C.ar    1  UNL1        0.1576
      7 F          -6.5682  -17.7020   22.3964 F       1  UNL1       -0.2027
      8 C          -7.0208  -20.0983   20.6491 C.2     1  UNL1        0.2014
      9 O          -7.3859  -20.6667   19.3099 O.2     1  UNL1       -0.2864
     10 C         -11.0917  -17.4492   21.0037 C.2     1  UNL1        0.0974
     11 C         -11.8334  -17.6902   22.2850 C.2     1  UNL1        0.2421
     12 N         -11.2965  -18.6654   23.2904 N.2     1  UNL1       -0.0304
     13 C         -10.0179  -19.3995   23.0144 C.2     1  UNL1        0.3721
     14 N          -9.2501  -20.4126   23.8108 N.2     1  UNL1       -0.0307
     15 C          -8.0340  -20.7977   23.0217 C.2     1  UNL1        0.2390
     16 C          -8.0500  -20.0226   21.7376 C.2     1  UNL1        0.0895
     17 C          -9.2762  -19.1585   21.7331 C.2     1  UNL1        0.0782
     18 C          -9.8131  -18.1833   20.7278 C.3     1  UNL1        0.0751
     19 N         -12.1656  -15.4988   18.9930 N.1     1  UNL1       -0.1910
     20 C         -11.6286  -16.4740   19.9984 C.1     1  UNL1        0.1003
     21 N          -3.7795  -16.7165   22.8980 N.pl3   1  UNL1       -0.2127
     22 H          -2.9470  -16.1974   22.8157 H       1  UNL1        0.1738
     23 S          -4.8216  -16.3091   23.8970 S.O2    1  UNL1        0.0759
     24 O          -5.1667  -15.1190   23.0518 O.2     1  UNL1       -0.1499
     25 O          -4.4765  -17.4992   24.7423 O.2     1  UNL1       -0.1499
     26 C          -5.8637  -15.9018   24.8961 C.ar    1  UNL1        0.1547
     27 C          -7.2876  -15.7175   24.4617 C.ar    1  UNL1        0.0521
     28 C          -8.3297  -15.3102   25.4607 C.ar    1  UNL1        0.1416
     29 F          -9.7535  -15.1258   25.0263 F       1  UNL1       -0.2041
     30 C          -7.9480  -15.0872   26.8941 C.ar    1  UNL1        0.0320
     31 C          -6.5242  -15.2716   27.3285 C.ar    1  UNL1        0.0333
     32 C          -5.4820  -15.6788   26.3295 C.ar    1  UNL1        0.1590
     33 F          -4.0582  -15.8632   26.7638 F       1  UNL1       -0.2027
@<TRIPOS>BOND
     1    19    20    3
     2    20    10    1
     3    10    11    2
     4    11    12    1
     5    12    13    2
     6    13    14    1
     7    14    15    2
     8    15    16    1
     9    16     8    1
    10     8     9    2
    11     8     1    1
    12     1     2   ar
    13     2     3   ar
    14     3     4   ar
    15     4     5   ar
    16     5    21    1
    17    21    23    1
    18    23    24    2
    19    23    25    2
    20    23    26    1
    21    26    27   ar
    22    27    28   ar
    23    28    29    1
    24    28    30   ar
    25    30    31   ar
    26    31    32   ar
    27    32    33    1
    28     5     6   ar
    29     6     7    1
    30    16    17    2
    31    17    18    1
    32    18    10    1
    33    17    13    1
    34     6     1   ar
    35    32    26   ar
    36    21    22    1
@<TRIPOS>MOLECULE
*****
 33 36 0 0 0
SMALL
GASTEIGER

@<TRIPOS>ATOM
      1 C           4.8182   -3.3326   22.3319 C.ar    1  UNL1        0.0678
      2 C           3.9773   -2.2945   23.0139 C.ar    1  UNL1        0.0055
      3 C           4.3973   -1.7450   24.3449 C.ar    1  UNL1        0.0016
      4 C           5.6584   -2.2336   24.9939 C.ar    1  UNL1        0.0181
      5 C           6.4993   -3.2717   24.3118 C.ar    1  UNL1        0.0922
      6 C           6.0792   -3.8212   22.9808 C.ar    1  UNL1        0.1576
      7 F           6.9202   -4.8593   22.2988 F       1  UNL1       -0.2027
      8 C           4.3981   -3.8821   21.0009 C.2     1  UNL1        0.2014
      9 O           3.8210   -5.2636   20.9081 O.2     1  UNL1       -0.2864
     10 C           1.8383   -0.0695   19.3801 C.2     1  UNL1        0.0974
     11 C           2.3516    0.4643   18.0757 C.2     1  UNL1        0.2421
     12 N           3.5364   -0.1777   17.4168 N.2     1  UNL1       -0.0304
     13 C           4.2079   -1.3534   18.0624 C.2     1  UNL1        0.3721
     14 N           5.3857   -2.1866   17.6520 N.2     1  UNL1       -0.0307
     15 C           5.6004   -3.2352   18.7028 C.2     1  UNL1        0.2390
     16 C           4.5552   -3.0502   19.7626 C.2     1  UNL1        0.0895
     17 C           3.6945   -1.8871   19.3668 C.2     1  UNL1        0.0782
     18 C           2.5097   -1.2452   20.0257 C.3     1  UNL1        0.0751
     19 N          -0.5314    1.2145   20.6979 N.1     1  UNL1       -0.1910
     20 C           0.6534    0.5725   20.0390 C.1     1  UNL1        0.1003
     21 N           7.7603   -3.7602   24.9608 N.pl3   1  UNL1       -0.2127
     22 H           8.6117   -3.7296   24.4674 H       1  UNL1        0.1738
     23 S           7.7241   -4.2955   26.3616 S.O2    1  UNL1        0.0759
     24 O           8.5995   -3.1655   26.8160 O.2     1  UNL1       -0.1499
     25 O           6.8487   -5.4256   25.9071 O.2     1  UNL1       -0.1499
     26 C           7.6879   -4.8309   27.7624 C.ar    1  UNL1        0.1547
     27 C           8.5755   -5.9760   28.1507 C.ar    1  UNL1        0.0521
     28 C           8.5394   -6.5114   29.5514 C.ar    1  UNL1        0.1416
     29 F           9.4270   -7.6565   29.9398 F       1  UNL1       -0.2041
     30 C           7.6157   -5.9017   30.5638 C.ar    1  UNL1        0.0320
     31 C           6.7280   -4.7565   30.1755 C.ar    1  UNL1        0.0333
     32 C           6.7642   -4.2212   28.7748 C.ar    1  UNL1        0.1590
     33 F           5.8766   -3.0761   28.3863 F       1  UNL1       -0.2027
@<TRIPOS>BOND
     1    19    20    3
     2    20    10    1
     3    10    11    2
     4    11    12    1
     5    12    13    2
     6    13    14    1
     7    14    15    2
     8    15    16    1
     9    16     8    1
    10     8     9    2
    11     8     1    1
    12     1     2   ar
    13     2     3   ar
    14     3     4   ar
    15     4     5   ar
    16     5    21    1
    17    21    23    1
    18    23    24    2
    19    23    25    2
    20    23    26    1
    21    26    27   ar
    22    27    28   ar
    23    28    29    1
    24    28    30   ar
    25    30    31   ar
    26    31    32   ar
    27    32    33    1
    28     5     6   ar
    29     6     7    1
    30    16    17    2
    31    17    18    1
    32    18    10    1
    33    17    13    1
    34     6     1   ar
    35    32    26   ar
    36    21    22    1
@<TRIPOS>MOLECULE
*****
 33 36 0 0 0
SMALL
GASTEIGER

@<TRIPOS>ATOM
      1 C         -11.3425   -5.1383   18.2479 C.ar    1  UNL1        0.0678
      2 C         -10.0249   -5.8076   18.5045 C.ar    1  UNL1        0.0055
      3 C          -9.8283   -7.2460   18.1272 C.ar    1  UNL1        0.0016
      4 C         -10.9493   -8.0151   17.4933 C.ar    1  UNL1        0.0181
      5 C         -12.2669   -7.3457   17.2367 C.ar    1  UNL1        0.0922
      6 C         -12.4636   -5.9073   17.6140 C.ar    1  UNL1        0.1576
      7 F         -13.7813   -5.2381   17.3574 F       1  UNL1       -0.2027
      8 C         -11.5392   -3.6999   18.6252 C.2     1  UNL1        0.2014
      9 O         -10.5012   -2.6802   18.2607 O.2     1  UNL1       -0.2864
     10 C         -14.3834    0.2204   18.1174 C.2     1  UNL1        0.0974
     11 C         -15.5296    0.2373   19.0848 C.2     1  UNL1        0.2421
     12 N         -15.6976   -0.8827   20.0683 N.2     1  UNL1       -0.0304
     13 C         -14.7193   -2.0197   20.0844 C.2     1  UNL1        0.3721
     14 N         -14.6285   -3.2538   20.9322 N.2     1  UNL1       -0.0307
     15 C         -13.4262   -4.0334   20.4888 C.2     1  UNL1        0.2390
     16 C         -12.7739   -3.2812   19.3669 C.2     1  UNL1        0.0895
     17 C         -13.5731   -2.0366   19.1170 C.2     1  UNL1        0.0782
     18 C         -13.4052   -0.9165   18.1335 C.3     1  UNL1        0.0751
     19 N         -14.0475    2.4605   16.1504 N.1     1  UNL1       -0.1910
     20 C         -14.2155    1.3405   17.1339 C.1     1  UNL1        0.1003
     21 N         -13.3879   -8.1149   16.6028 N.pl3   1  UNL1       -0.2127
     22 H         -13.2674   -8.5163   15.7120 H       1  UNL1        0.1738
     23 S         -14.6925   -8.2723   17.3262 S.O2    1  UNL1        0.0759
     24 O         -13.9725   -8.8817   18.4923 O.2     1  UNL1       -0.1499
     25 O         -15.4127   -7.6629   16.1600 O.2     1  UNL1       -0.1499
     26 C         -15.9972   -8.4298   18.0495 C.ar    1  UNL1        0.1547
     27 C         -16.9350   -9.5380   17.6720 C.ar    1  UNL1        0.0521
     28 C         -18.2396   -9.6954   18.3953 C.ar    1  UNL1        0.1416
     29 F         -19.1774  -10.8036   18.0178 F       1  UNL1       -0.2041
     30 C         -18.6065   -8.7447   19.4960 C.ar    1  UNL1        0.0320
     31 C         -17.6688   -7.6365   19.8734 C.ar    1  UNL1        0.0333
     32 C         -16.3641   -7.4790   19.1502 C.ar    1  UNL1        0.1590
     33 F         -15.4263   -6.3709   19.5276 F       1  UNL1       -0.2027
@<TRIPOS>BOND
     1    19    20    3
     2    20    10    1
     3    10    11    2
     4    11    12    1
     5    12    13    2
     6    13    14    1
     7    14    15    2
     8    15    16    1
     9    16     8    1
    10     8     9    2
    11     8     1    1
    12     1     2   ar
    13     2     3   ar
    14     3     4   ar
    15     4     5   ar
    16     5    21    1
    17    21    23    1
    18    23    24    2
    19    23    25    2
    20    23    26    1
    21    26    27   ar
    22    27    28   ar
    23    28    29    1
    24    28    30   ar
    25    30    31   ar
    26    31    32   ar
    27    32    33    1
    28     5     6   ar
    29     6     7    1
    30    16    17    2
    31    17    18    1
    32    18    10    1
    33    17    13    1
    34     6     1   ar
    35    32    26   ar
    36    21    22    1
@<TRIPOS>MOLECULE
*****
 33 36 0 0 0
SMALL
GASTEIGER

@<TRIPOS>ATOM
      1 C         -11.8896   -4.8359   18.6600 C.ar    1  UNL1        0.0678
      2 C         -10.5504   -5.4367   18.9688 C.ar    1  UNL1        0.0055
      3 C         -10.2606   -6.8586   18.5892 C.ar    1  UNL1        0.0016
      4 C         -11.3102   -7.6798   17.9007 C.ar    1  UNL1        0.0181
      5 C         -12.6496   -7.0790   17.5919 C.ar    1  UNL1        0.0922
      6 C         -12.9393   -5.6570   17.9715 C.ar    1  UNL1        0.1576
      7 F         -14.2786   -5.0563   17.6627 F       1  UNL1       -0.2027
      8 C         -12.1793   -3.4139   19.0396 C.2     1  UNL1        0.2014
      9 O         -12.9636   -3.1144   20.2826 O.2     1  UNL1       -0.2864
     10 C         -13.9960    1.0350   18.2501 C.2     1  UNL1        0.0974
     11 C         -13.1650    1.8426   17.2976 C.2     1  UNL1        0.2421
     12 N         -11.9207    1.2532   16.7025 N.2     1  UNL1       -0.0304
     13 C         -11.5073   -0.1437   17.0598 C.2     1  UNL1        0.3721
     14 N         -10.3402   -0.9848   16.6349 N.2     1  UNL1       -0.0307
     15 C         -10.4499   -2.3122   17.3248 C.2     1  UNL1        0.2390
     16 C         -11.6848   -2.2915   18.1761 C.2     1  UNL1        0.0895
     17 C         -12.3382   -0.9512   18.0123 C.2     1  UNL1        0.0782
     18 C         -13.5826   -0.3619   18.6075 C.3     1  UNL1        0.0751
     19 N         -16.4848    2.2137   19.4405 N.1     1  UNL1       -0.1910
     20 C         -15.2404    1.6243   18.8453 C.1     1  UNL1        0.1003
     21 N         -13.6991   -7.9002   16.9035 N.pl3   1  UNL1       -0.2127
     22 H         -13.5257   -8.2701   16.0077 H       1  UNL1        0.1738
     23 S         -15.0130   -8.1580   17.5798 S.O2    1  UNL1        0.0759
     24 O         -15.7100   -7.3296   16.5416 O.2     1  UNL1       -0.1499
     25 O         -14.3160   -8.9863   18.6180 O.2     1  UNL1       -0.1499
     26 C         -16.3268   -8.4157   18.2562 C.ar    1  UNL1        0.1547
     27 C         -17.1575   -9.5985   17.8549 C.ar    1  UNL1        0.0521
     28 C         -18.4714   -9.8563   18.5312 C.ar    1  UNL1        0.1416
     29 F         -19.3021  -11.0390   18.1300 F       1  UNL1       -0.2041
     30 C         -18.9544   -8.9314   19.6088 C.ar    1  UNL1        0.0320
     31 C         -18.1237   -7.7486   20.0101 C.ar    1  UNL1        0.0333
     32 C         -16.8099   -7.4908   19.3338 C.ar    1  UNL1        0.1590
     33 F         -15.9791   -6.3081   19.7349 F       1  UNL1       -0.2027
@<TRIPOS>BOND
     1    19    20    3
     2    20    10    1
     3    10    11    2
     4    11    12    1
     5    12    13    2
     6    13    14    1
     7    14    15    2
     8    15    16    1
     9    16     8    1
    10     8     9    2
    11     8     1    1
    12     1     2   ar
    13     2     3   ar
    14     3     4   ar
    15     4     5   ar
    16     5    21    1
    17    21    23    1
    18    23    24    2
    19    23    25    2
    20    23    26    1
    21    26    27   ar
    22    27    28   ar
    23    28    29    1
    24    28    30   ar
    25    30    31   ar
    26    31    32   ar
    27    32    33    1
    28     5     6   ar
    29     6     7    1
    30    16    17    2
    31    17    18    1
    32    18    10    1
    33    17    13    1
    34     6     1   ar
    35    32    26   ar
    36    21    22    1
