@<TRIPOS>MOLECULE
*****
 41 44 0 0 0
SMALL
GASTEIGER

@<TRIPOS>ATOM
      1 C           7.5644   -6.8228   25.7830 C.3     1  UNL1        0.0889
      2 C           8.4057   -6.5216   24.5782 C.3     1  UNL1        0.0383
      3 C           8.4101   -5.0353   24.3759 C.3     1  UNL1        0.0739
      4 N           7.5716   -4.4180   25.4556 N.3     1  UNL1       -0.2712
      5 C           7.0489   -5.5227   26.3252 C.3     1  UNL1        0.0919
      6 O           9.3552   -7.9617   27.9034 O.2     1  UNL1       -0.2733
      7 C           8.1826   -8.7545   27.4067 C.2     1  UNL1        0.2425
      8 N           7.2872   -8.1851   26.3466 N.am    1  UNL1       -0.3032
      9 H           6.5177   -8.7054   26.0206 H       1  UNL1        0.1495
     10 C           7.9054  -10.1166   27.9703 C.3     1  UNL1        0.1759
     11 N           6.5543  -10.7425   27.7892 N.am    1  UNL1       -0.2931
     12 C           6.3426  -12.1850   28.1418 C.2     1  UNL1        0.2462
     13 O           7.4820  -13.0017   28.6754 O.2     1  UNL1       -0.2701
     14 H           5.8064  -10.2065   27.4390 H       1  UNL1        0.1502
     15 C           4.9914  -12.8109   27.9607 C.ar    1  UNL1        0.0533
     16 C           4.6675  -13.5419   26.6916 C.ar    1  UNL1        0.0045
     17 C           3.3164  -14.1677   26.5105 C.ar    1  UNL1        0.0001
     18 C           2.2892  -14.0626   27.5986 C.ar    1  UNL1        0.0039
     19 C           2.6132  -13.3317   28.8677 C.ar    1  UNL1        0.0716
     20 C           3.9643  -12.7058   29.0488 C.ar    1  UNL1        0.0084
     21 C           1.5861  -13.2266   29.9558 C.3     1  UNL1        0.4186
     22 F           0.5589  -13.1215   31.0439 F       1  UNL1       -0.1659
     23 F           2.4275  -12.1975   30.6507 F       1  UNL1       -0.1659
     24 F           0.7446  -14.2557   29.2609 F       1  UNL1       -0.1659
     25 C           7.3029   -2.9531   25.6343 C.3     1  UNL1        0.0721
     26 C           5.9047   -2.4257   25.5042 C.3     1  UNL1        0.0174
     27 C           5.2448   -2.3743   24.1581 C.3     1  UNL1        0.0048
     28 C           4.5292   -1.1307   23.7207 C.3     1  UNL1        0.0216
     29 C           3.8692   -1.0793   22.3746 C.3     1  UNL1        0.0937
     30 N           3.9249   -2.2715   21.4661 N.am    1  UNL1       -0.2761
     31 C           3.2650   -2.2201   20.1200 C.2     1  UNL1        0.2498
     32 O           3.3206   -3.4123   19.2114 O.2     1  UNL1       -0.2699
     33 C           4.6405   -3.5151   21.9035 C.3     1  UNL1        0.0937
     34 C           5.3004   -3.5665   23.2495 C.3     1  UNL1        0.0216
     35 C           2.5494   -0.9764   19.6826 C.ar    1  UNL1        0.0641
     36 C           1.1620   -0.6957   20.1786 C.ar    1  UNL1        0.0054
     37 C           0.4464    0.5479   19.7412 C.ar    1  UNL1        0.0002
     38 C           1.1183    1.5108   18.8077 C.ar    1  UNL1        0.0009
     39 C           2.5058    1.2300   18.3116 C.ar    1  UNL1        0.0115
     40 C           3.2214   -0.0136   18.7490 C.ar    1  UNL1        0.0620
     41 CL          4.6088   -0.2944   18.2530 Cl      1  UNL1       -0.0821
@<TRIPOS>BOND
     1     6     7    2
     2     7    10    1
     3    10    11    1
     4    11    12   am
     5    12    13    2
     6    12    15    1
     7    15    16   ar
     8    16    17   ar
     9    17    18   ar
    10    18    19   ar
    11    19    21    1
    12    21    22    1
    13    21    23    1
    14    21    24    1
    15    19    20   ar
    16     7     8   am
    17     1     8    1
    18     1     2    1
    19     2     3    1
    20     3     4    1
    21     4    25    1
    22    25    26    1
    23    26    27    1
    24    27    28    1
    25    28    29    1
    26    29    30    1
    27    30    31   am
    28    31    32    2
    29    31    35    1
    30    35    36   ar
    31    36    37   ar
    32    37    38   ar
    33    38    39   ar
    34    39    40   ar
    35    40    41    1
    36    30    33    1
    37    33    34    1
    38     4     5    1
    39    20    15   ar
    40     5     1    1
    41    34    27    1
    42    40    35   ar
    43    11    14    1
    44     8     9    1
@<TRIPOS>MOLECULE
*****
 41 44 0 0 0
SMALL
GASTEIGER

@<TRIPOS>ATOM
      1 C           7.6598   -6.9671   25.4020 C.3     1  UNL1        0.0889
      2 C           7.3145   -5.5914   25.8900 C.3     1  UNL1        0.0383
      3 C           7.8005   -4.6028   24.8719 C.3     1  UNL1        0.0739
      4 N           8.4462   -5.3676   23.7546 N.3     1  UNL1       -0.2712
      5 C           8.3593   -6.8288   24.0823 C.3     1  UNL1        0.0919
      6 O           9.4101   -7.8832   27.6598 O.2     1  UNL1       -0.2733
      7 C           8.2338   -8.7131   27.2384 C.2     1  UNL1        0.2425
      8 N           7.3587   -8.2550   26.1096 N.am    1  UNL1       -0.3032
      9 H           6.5866   -8.7997   25.8330 H       1  UNL1        0.1495
     10 C           7.9326  -10.0010   27.9458 C.3     1  UNL1        0.1759
     11 N           6.5927  -10.6539   27.7771 N.am    1  UNL1       -0.2931
     12 C           6.4333  -12.1203   28.0491 C.2     1  UNL1        0.2462
     13 O           7.6138  -12.9340   28.4900 O.2     1  UNL1       -0.2701
     14 H           5.8178  -10.1198   27.4877 H       1  UNL1        0.1502
     15 C           5.0934  -12.7732   27.8803 C.ar    1  UNL1        0.0533
     16 C           4.7757  -13.5179   26.6177 C.ar    1  UNL1        0.0045
     17 C           3.4358  -14.1708   26.4489 C.ar    1  UNL1        0.0001
     18 C           2.4136  -14.0789   27.5429 C.ar    1  UNL1        0.0039
     19 C           2.7313  -13.3341   28.8055 C.ar    1  UNL1        0.0716
     20 C           4.0712  -12.6813   28.9743 C.ar    1  UNL1        0.0084
     21 C           1.7091  -13.2422   29.8995 C.3     1  UNL1        0.4186
     22 F           0.6870  -13.1503   30.9934 F       1  UNL1       -0.1659
     23 F           0.8667  -14.2663   29.1984 F       1  UNL1       -0.1659
     24 F           2.5515  -12.2181   30.6006 F       1  UNL1       -0.1659
     25 C           9.0694   -4.7752   22.5255 C.3     1  UNL1        0.0721
     26 C           8.3458   -4.8381   21.2131 C.3     1  UNL1        0.0174
     27 C           7.4874   -3.6890   20.7742 C.3     1  UNL1        0.0048
     28 C           6.1436   -3.4730   21.4048 C.3     1  UNL1        0.0216
     29 C           5.2851   -2.3239   20.9659 C.3     1  UNL1        0.0937
     30 N           5.7704   -1.3909   19.8964 N.am    1  UNL1       -0.2761
     31 C           4.9119   -0.2418   19.4575 C.2     1  UNL1        0.2498
     32 O           5.3971    0.6913   18.3879 O.2     1  UNL1       -0.2699
     33 C           7.1142   -1.6069   19.2657 C.3     1  UNL1        0.0937
     34 C           7.9726   -2.7559   19.7046 C.3     1  UNL1        0.0216
     35 C           3.5681   -0.0258   20.0881 C.ar    1  UNL1        0.0641
     36 C           2.3685   -0.7601   19.5672 C.ar    1  UNL1        0.0054
     37 C           1.0247   -0.5441   20.1979 C.ar    1  UNL1        0.0002
     38 C           0.8808    0.4062   21.3494 C.ar    1  UNL1        0.0009
     39 C           2.0805    1.1406   21.8703 C.ar    1  UNL1        0.0115
     40 C           3.4242    0.9246   21.2397 C.ar    1  UNL1        0.0620
     41 CL          4.6239    1.6590   21.7605 Cl      1  UNL1       -0.0821
@<TRIPOS>BOND
     1     6     7    2
     2     7    10    1
     3    10    11    1
     4    11    12   am
     5    12    13    2
     6    12    15    1
     7    15    16   ar
     8    16    17   ar
     9    17    18   ar
    10    18    19   ar
    11    19    21    1
    12    21    22    1
    13    21    23    1
    14    21    24    1
    15    19    20   ar
    16     7     8   am
    17     1     8    1
    18     1     2    1
    19     2     3    1
    20     3     4    1
    21     4    25    1
    22    25    26    1
    23    26    27    1
    24    27    28    1
    25    28    29    1
    26    29    30    1
    27    30    31   am
    28    31    32    2
    29    31    35    1
    30    35    36   ar
    31    36    37   ar
    32    37    38   ar
    33    38    39   ar
    34    39    40   ar
    35    40    41    1
    36    30    33    1
    37    33    34    1
    38     4     5    1
    39    20    15   ar
    40     5     1    1
    41    34    27    1
    42    40    35   ar
    43    11    14    1
    44     8     9    1
@<TRIPOS>MOLECULE
*****
 41 44 0 0 0
SMALL
GASTEIGER

@<TRIPOS>ATOM
      1 C           7.3691   -6.4302   26.4658 C.3     1  UNL1        0.0889
      2 C           8.1494   -5.9222   25.2898 C.3     1  UNL1        0.0383
      3 C           8.1054   -4.4231   25.3169 C.3     1  UNL1        0.0739
      4 N           7.2978   -4.0046   26.5097 N.3     1  UNL1       -0.2712
      5 C           6.8428   -5.2451   27.2198 C.3     1  UNL1        0.0919
      6 O           9.4910   -7.9393   27.9560 O.2     1  UNL1       -0.2733
      7 C           8.2140   -8.6250   27.5700 C.2     1  UNL1        0.2425
      8 N           7.1531   -7.8705   26.8249 N.am    1  UNL1       -0.3032
      9 H           6.3150   -8.3206   26.5715 H       1  UNL1        0.1495
     10 C           7.9979  -10.0653   27.9290 C.3     1  UNL1        0.1759
     11 N           6.6477  -10.6909   27.7403 N.am    1  UNL1       -0.2931
     12 C           6.4363  -12.1361   28.0818 C.2     1  UNL1        0.2462
     13 O           7.5752  -12.9558   28.6120 O.2     1  UNL1       -0.2701
     14 H           5.9002  -10.1529   27.3922 H       1  UNL1        0.1502
     15 C           5.0861  -12.7617   27.8930 C.ar    1  UNL1        0.0533
     16 C           4.7489  -13.4418   26.5993 C.ar    1  UNL1        0.0045
     17 C           3.3987  -14.0674   26.4106 C.ar    1  UNL1        0.0001
     18 C           2.3858  -14.0128   27.5156 C.ar    1  UNL1        0.0039
     19 C           2.7230  -13.3327   28.8093 C.ar    1  UNL1        0.0716
     20 C           4.0732  -12.7072   28.9980 C.ar    1  UNL1        0.0084
     21 C           1.7101  -13.2782   29.9142 C.3     1  UNL1        0.4186
     22 F           0.6971  -13.2237   31.0192 F       1  UNL1       -0.1659
     23 F           0.9358  -14.3833   29.2590 F       1  UNL1       -0.1659
     24 F           2.4843  -12.1731   30.5695 F       1  UNL1       -0.1659
     25 C           6.9979   -2.5934   26.9204 C.3     1  UNL1        0.0721
     26 C           6.8844   -2.2435   28.3746 C.3     1  UNL1        0.0174
     27 C           5.6731   -1.5167   28.8787 C.3     1  UNL1        0.0048
     28 C           4.5910   -1.1095   27.9230 C.3     1  UNL1        0.0216
     29 C           3.3795   -0.3826   28.4272 C.3     1  UNL1        0.0937
     30 N           3.2503   -0.0630   29.8871 N.am    1  UNL1       -0.2761
     31 C           2.0388    0.6639   30.3912 C.2     1  UNL1        0.2498
     32 O           1.9095    0.9836   31.8511 O.2     1  UNL1       -0.2699
     33 C           4.3323   -0.4701   30.8427 C.3     1  UNL1        0.0937
     34 C           5.5437   -1.1970   30.3386 C.3     1  UNL1        0.0216
     35 C           0.9567    1.0711   29.4355 C.ar    1  UNL1        0.0641
     36 C          -0.1870    0.1415   29.1573 C.ar    1  UNL1        0.0054
     37 C          -1.2691    0.5487   28.2017 C.ar    1  UNL1        0.0002
     38 C          -1.2073    1.8855   27.5242 C.ar    1  UNL1        0.0009
     39 C          -0.0635    2.8152   27.8024 C.ar    1  UNL1        0.0115
     40 C           1.0186    2.4080   28.7581 C.ar    1  UNL1        0.0620
     41 CL          2.1624    3.3376   29.0363 Cl      1  UNL1       -0.0821
@<TRIPOS>BOND
     1     6     7    2
     2     7    10    1
     3    10    11    1
     4    11    12   am
     5    12    13    2
     6    12    15    1
     7    15    16   ar
     8    16    17   ar
     9    17    18   ar
    10    18    19   ar
    11    19    21    1
    12    21    22    1
    13    21    23    1
    14    21    24    1
    15    19    20   ar
    16     7     8   am
    17     1     8    1
    18     1     2    1
    19     2     3    1
    20     3     4    1
    21     4    25    1
    22    25    26    1
    23    26    27    1
    24    27    28    1
    25    28    29    1
    26    29    30    1
    27    30    31   am
    28    31    32    2
    29    31    35    1
    30    35    36   ar
    31    36    37   ar
    32    37    38   ar
    33    38    39   ar
    34    39    40   ar
    35    40    41    1
    36    30    33    1
    37    33    34    1
    38     4     5    1
    39    20    15   ar
    40     5     1    1
    41    34    27    1
    42    40    35   ar
    43    11    14    1
    44     8     9    1
@<TRIPOS>MOLECULE
*****
 41 44 0 0 0
SMALL
GASTEIGER

@<TRIPOS>ATOM
      1 C           7.5785   -6.7964   26.0188 C.3     1  UNL1        0.0889
      2 C           7.9031   -6.4246   24.6024 C.3     1  UNL1        0.0383
      3 C           8.1083   -4.9397   24.5483 C.3     1  UNL1        0.0739
      4 N           7.9105   -4.3937   25.9314 N.3     1  UNL1       -0.2712
      5 C           7.5830   -5.5413   26.8402 C.3     1  UNL1        0.0919
      6 O           9.4699   -8.0989   27.9492 O.2     1  UNL1       -0.2733
      7 C           8.2441   -8.8316   27.4903 C.2     1  UNL1        0.2425
      8 N           7.2984   -8.1804   26.5251 N.am    1  UNL1       -0.3032
      9 H           6.4939   -8.6613   26.2239 H       1  UNL1        0.1495
     10 C           7.9640  -10.2155   27.9965 C.3     1  UNL1        0.1759
     11 N           6.6079  -10.8259   27.8000 N.am    1  UNL1       -0.2931
     12 C           6.3682  -12.2577   28.1770 C.2     1  UNL1        0.2462
     13 O           7.4844  -13.0794   28.7504 O.2     1  UNL1       -0.2701
     14 H           5.8752  -10.2866   27.4236 H       1  UNL1        0.1502
     15 C           5.0121  -12.8681   27.9805 C.ar    1  UNL1        0.0533
     16 C           4.6898  -13.5838   26.7023 C.ar    1  UNL1        0.0045
     17 C           3.3338  -14.1941   26.5058 C.ar    1  UNL1        0.0001
     18 C           2.3000  -14.0887   27.5876 C.ar    1  UNL1        0.0039
     19 C           2.6223  -13.3730   28.8658 C.ar    1  UNL1        0.0716
     20 C           3.9783  -12.7627   29.0622 C.ar    1  UNL1        0.0084
     21 C           1.5885  -13.2677   29.9476 C.3     1  UNL1        0.4186
     22 F           0.5547  -13.1623   31.0293 F       1  UNL1       -0.1659
     23 F           2.4176  -12.2258   30.6384 F       1  UNL1       -0.1659
     24 F           0.7594  -14.3095   29.2568 F       1  UNL1       -0.1659
     25 C           8.0207   -2.9532   26.3347 C.3     1  UNL1        0.0721
     26 C           7.3200   -2.4638   27.5674 C.3     1  UNL1        0.0174
     27 C           6.0800   -1.6289   27.4436 C.3     1  UNL1        0.0048
     28 C           5.5799   -0.8494   28.6236 C.3     1  UNL1        0.0216
     29 C           4.3398   -0.0144   28.4998 C.3     1  UNL1        0.0937
     30 N           3.6002    0.0411   27.1961 N.am    1  UNL1       -0.2761
     31 C           2.3601    0.8761   27.0723 C.2     1  UNL1        0.2498
     32 O           1.6204    0.9317   25.7686 O.2     1  UNL1       -0.2699
     33 C           4.1003   -0.7383   26.0161 C.3     1  UNL1        0.0937
     34 C           5.3403   -1.5733   26.1399 C.3     1  UNL1        0.0216
     35 C           1.8600    1.6555   28.2523 C.ar    1  UNL1        0.0641
     36 C           2.3719    3.0422   28.5067 C.ar    1  UNL1        0.0054
     37 C           1.8718    3.8217   29.6866 C.ar    1  UNL1        0.0002
     38 C           0.8596    3.2143   30.6121 C.ar    1  UNL1        0.0009
     39 C           0.3476    1.8275   30.3577 C.ar    1  UNL1        0.0115
     40 C           0.8478    1.0481   29.1777 C.ar    1  UNL1        0.0620
     41 CL          0.3358   -0.3386   28.9233 Cl      1  UNL1       -0.0821
@<TRIPOS>BOND
     1     6     7    2
     2     7    10    1
     3    10    11    1
     4    11    12   am
     5    12    13    2
     6    12    15    1
     7    15    16   ar
     8    16    17   ar
     9    17    18   ar
    10    18    19   ar
    11    19    21    1
    12    21    22    1
    13    21    23    1
    14    21    24    1
    15    19    20   ar
    16     7     8   am
    17     1     8    1
    18     1     2    1
    19     2     3    1
    20     3     4    1
    21     4    25    1
    22    25    26    1
    23    26    27    1
    24    27    28    1
    25    28    29    1
    26    29    30    1
    27    30    31   am
    28    31    32    2
    29    31    35    1
    30    35    36   ar
    31    36    37   ar
    32    37    38   ar
    33    38    39   ar
    34    39    40   ar
    35    40    41    1
    36    30    33    1
    37    33    34    1
    38     4     5    1
    39    20    15   ar
    40     5     1    1
    41    34    27    1
    42    40    35   ar
    43    11    14    1
    44     8     9    1
@<TRIPOS>MOLECULE
*****
 41 44 0 0 0
SMALL
GASTEIGER

@<TRIPOS>ATOM
      1 C           6.4206   -4.6465   28.3027 C.3     1  UNL1        0.0889
      2 C           6.9953   -5.6846   29.2204 C.3     1  UNL1        0.0383
      3 C           7.1307   -5.0741   30.5838 C.3     1  UNL1        0.0739
      4 N           6.6396   -3.6587   30.5088 N.3     1  UNL1       -0.2712
      5 C           6.2008   -3.3945   29.0990 C.3     1  UNL1        0.0919
      6 O           8.1936   -3.3885   26.2353 O.2     1  UNL1       -0.2733
      7 C           7.0052   -4.1995   25.8110 C.2     1  UNL1        0.2425
      8 N           6.1188   -4.8285   26.8446 N.am    1  UNL1       -0.3032
      9 H           5.3388   -5.3608   26.5661 H       1  UNL1        0.1495
     10 C           6.7033   -4.3815   24.3530 C.3     1  UNL1        0.1759
     11 N           5.7245   -3.4725   23.6706 N.am    1  UNL1       -0.2931
     12 C           5.6620   -3.4268   22.1726 C.2     1  UNL1        0.2462
     13 O           6.5782   -4.2901   21.3570 O.2     1  UNL1       -0.2701
     14 H           5.1232   -2.9059   24.2059 H       1  UNL1        0.1502
     15 C           4.6832   -2.5178   21.4902 C.ar    1  UNL1        0.0533
     16 C           3.6635   -1.7714   22.2983 C.ar    1  UNL1        0.0045
     17 C           2.6848   -0.8624   21.6159 C.ar    1  UNL1        0.0001
     18 C           2.7257   -0.6998   20.1253 C.ar    1  UNL1        0.0039
     19 C           3.7453   -1.4462   19.3171 C.ar    1  UNL1        0.0716
     20 C           4.7241   -2.3552   19.9996 C.ar    1  UNL1        0.0084
     21 C           3.7862   -1.2836   17.8265 C.3     1  UNL1        0.4186
     22 F           3.8271   -1.1211   16.3359 F       1  UNL1       -0.1659
     23 F           4.7493   -2.4294   17.7280 F       1  UNL1       -0.1659
     24 F           2.8231   -0.1379   17.9251 F       1  UNL1       -0.1659
     25 C           6.5952   -2.6796   31.6442 C.3     1  UNL1        0.0721
     26 C           6.5303   -1.2076   31.3631 C.3     1  UNL1        0.0174
     27 C           5.2024   -0.5416   31.1556 C.3     1  UNL1        0.0048
     28 C           4.7729   -0.1385   29.7760 C.3     1  UNL1        0.0216
     29 C           3.4449    0.5275   29.5685 C.3     1  UNL1        0.0937
     30 N           2.5465    0.7904   30.7406 N.am    1  UNL1       -0.2761
     31 C           1.2185    1.4564   30.5330 C.2     1  UNL1        0.2498
     32 O           0.3201    1.7193   31.7050 O.2     1  UNL1       -0.2699
     33 C           2.9760    0.3873   32.1201 C.3     1  UNL1        0.0937
     34 C           4.3039   -0.2787   32.3276 C.3     1  UNL1        0.0216
     35 C           0.7891    1.8595   29.1535 C.ar    1  UNL1        0.0641
     36 C           1.1785    3.2017   28.6090 C.ar    1  UNL1        0.0054
     37 C           0.7491    3.6048   27.2294 C.ar    1  UNL1        0.0002
     38 C          -0.0698    2.6655   26.3945 C.ar    1  UNL1        0.0009
     39 C          -0.4592    1.3232   26.9390 C.ar    1  UNL1        0.0115
     40 C          -0.0298    0.9201   28.3186 C.ar    1  UNL1        0.0620
     41 CL         -0.4192   -0.4221   28.8631 Cl      1  UNL1       -0.0821
@<TRIPOS>BOND
     1     6     7    2
     2     7    10    1
     3    10    11    1
     4    11    12   am
     5    12    13    2
     6    12    15    1
     7    15    16   ar
     8    16    17   ar
     9    17    18   ar
    10    18    19   ar
    11    19    21    1
    12    21    22    1
    13    21    23    1
    14    21    24    1
    15    19    20   ar
    16     7     8   am
    17     1     8    1
    18     1     2    1
    19     2     3    1
    20     3     4    1
    21     4    25    1
    22    25    26    1
    23    26    27    1
    24    27    28    1
    25    28    29    1
    26    29    30    1
    27    30    31   am
    28    31    32    2
    29    31    35    1
    30    35    36   ar
    31    36    37   ar
    32    37    38   ar
    33    38    39   ar
    34    39    40   ar
    35    40    41    1
    36    30    33    1
    37    33    34    1
    38     4     5    1
    39    20    15   ar
    40     5     1    1
    41    34    27    1
    42    40    35   ar
    43    11    14    1
    44     8     9    1
@<TRIPOS>MOLECULE
*****
 41 44 0 0 0
SMALL
GASTEIGER

@<TRIPOS>ATOM
      1 C           0.7475    1.2282   27.0666 C.3     1  UNL1        0.0889
      2 C           0.1819    2.2967   27.9545 C.3     1  UNL1        0.0383
      3 C           0.8906    2.2256   29.2746 C.3     1  UNL1        0.0739
      4 N           1.8942    1.1130   29.2027 N.3     1  UNL1       -0.2712
      5 C           1.8057    0.4966   27.8380 C.3     1  UNL1        0.0919
      6 O           2.4152    2.2159   24.7768 O.2     1  UNL1       -0.2733
      7 C           1.1623    1.4353   24.5102 C.2     1  UNL1        0.2425
      8 N           0.3285    0.9414   25.6551 N.am    1  UNL1       -0.3032
      9 H          -0.4938    0.4291   25.4802 H       1  UNL1        0.1495
     10 C           0.7433    1.1486   23.0988 C.3     1  UNL1        0.1759
     11 N           1.7475    0.6413   22.1066 N.am    1  UNL1       -0.2931
     12 C           1.2861    0.0573   20.8044 C.2     1  UNL1        0.2462
     13 O          -0.1795   -0.0196   20.4942 O.2     1  UNL1       -0.2701
     14 H           2.7094    0.6917   22.3102 H       1  UNL1        0.1502
     15 C           2.2903   -0.4500   19.8122 C.ar    1  UNL1        0.0533
     16 C           2.7998    0.4560   18.7307 C.ar    1  UNL1        0.0045
     17 C           3.8039   -0.0513   17.7386 C.ar    1  UNL1        0.0001
     18 C           4.2986   -1.4645   17.8279 C.ar    1  UNL1        0.0039
     19 C           3.7891   -2.3705   18.9094 C.ar    1  UNL1        0.0716
     20 C           2.7850   -1.8633   19.9015 C.ar    1  UNL1        0.0084
     21 C           4.2838   -3.7838   18.9987 C.3     1  UNL1        0.4186
     22 F           4.7784   -5.1971   19.0881 F       1  UNL1       -0.1659
     23 F           2.8677   -4.2769   19.0385 F       1  UNL1       -0.1659
     24 F           5.6998   -3.2907   18.9590 F       1  UNL1       -0.1659
     25 C           2.8230    0.6910   30.3022 C.3     1  UNL1        0.0721
     26 C           3.8428    1.6542   30.8335 C.3     1  UNL1        0.0174
     27 C           3.8765    1.9791   32.2975 C.3     1  UNL1        0.0048
     28 C           2.7900    1.4779   33.2021 C.3     1  UNL1        0.0216
     29 C           2.8236    1.8027   34.6661 C.3     1  UNL1        0.0937
     30 N           3.9437    2.6288   35.2254 N.am    1  UNL1       -0.2761
     31 C           3.9773    2.9537   36.6895 C.2     1  UNL1        0.2498
     32 O           5.0974    3.7798   37.2489 O.2     1  UNL1       -0.2699
     33 C           5.0302    3.1301   34.3209 C.3     1  UNL1        0.0937
     34 C           4.9966    2.8052   32.8569 C.3     1  UNL1        0.0216
     35 C           2.8909    2.4525   37.5941 C.ar    1  UNL1        0.0641
     36 C           3.0257    1.1144   38.2583 C.ar    1  UNL1        0.0054
     37 C           1.9393    0.6132   39.1629 C.ar    1  UNL1        0.0002
     38 C           0.7179    1.4501   39.4033 C.ar    1  UNL1        0.0009
     39 C           0.5830    2.7882   38.7390 C.ar    1  UNL1        0.0115
     40 C           1.6695    3.2895   37.8344 C.ar    1  UNL1        0.0620
     41 CL          1.5346    4.6275   37.1703 Cl      1  UNL1       -0.0821
@<TRIPOS>BOND
     1     6     7    2
     2     7    10    1
     3    10    11    1
     4    11    12   am
     5    12    13    2
     6    12    15    1
     7    15    16   ar
     8    16    17   ar
     9    17    18   ar
    10    18    19   ar
    11    19    21    1
    12    21    22    1
    13    21    23    1
    14    21    24    1
    15    19    20   ar
    16     7     8   am
    17     1     8    1
    18     1     2    1
    19     2     3    1
    20     3     4    1
    21     4    25    1
    22    25    26    1
    23    26    27    1
    24    27    28    1
    25    28    29    1
    26    29    30    1
    27    30    31   am
    28    31    32    2
    29    31    35    1
    30    35    36   ar
    31    36    37   ar
    32    37    38   ar
    33    38    39   ar
    34    39    40   ar
    35    40    41    1
    36    30    33    1
    37    33    34    1
    38     4     5    1
    39    20    15   ar
    40     5     1    1
    41    34    27    1
    42    40    35   ar
    43    11    14    1
    44     8     9    1
@<TRIPOS>MOLECULE
*****
 41 44 0 0 0
SMALL
GASTEIGER

@<TRIPOS>ATOM
      1 C           7.2522   -5.4421   31.1152 C.3     1  UNL1        0.0889
      2 C           8.5918   -6.0811   31.3325 C.3     1  UNL1        0.0383
      3 C           9.0354   -6.6817   30.0315 C.3     1  UNL1        0.0739
      4 N           7.9699   -6.4138   29.0101 N.3     1  UNL1       -0.2712
      5 C           6.8679   -5.6478   29.6799 C.3     1  UNL1        0.0919
      6 O           6.6039   -2.5344   30.7621 O.2     1  UNL1       -0.2733
      7 C           6.1155   -3.2698   31.9748 C.2     1  UNL1        0.2425
      8 N           6.4396   -4.7236   32.1514 N.am    1  UNL1       -0.3032
      9 H           6.1190   -5.2063   32.9473 H       1  UNL1        0.1495
     10 C           5.3029   -2.5514   33.0108 C.3     1  UNL1        0.1759
     11 N           4.0914   -1.7667   32.6025 N.am    1  UNL1       -0.2931
     12 C           4.2273   -0.3230   32.2186 C.2     1  UNL1        0.2462
     13 O           5.5745    0.3360   32.2432 O.2     1  UNL1       -0.2701
     14 H           3.2072   -2.1992   32.5863 H       1  UNL1        0.1502
     15 C           3.0158    0.4617   31.8102 C.ar    1  UNL1        0.0533
     16 C           2.4729    1.5280   32.7148 C.ar    1  UNL1        0.0045
     17 C           1.2615    2.3126   32.3064 C.ar    1  UNL1        0.0001
     18 C           0.5931    2.0310   30.9934 C.ar    1  UNL1        0.0039
     19 C           1.1360    0.9647   30.0889 C.ar    1  UNL1        0.0716
     20 C           2.3474    0.1800   30.4973 C.ar    1  UNL1        0.0084
     21 C           0.4675    0.6830   28.7760 C.3     1  UNL1        0.4186
     22 F          -0.2010    0.4014   27.4630 F       1  UNL1       -0.1659
     23 F          -0.8715    0.7120   29.4515 F       1  UNL1       -0.1659
     24 F           1.8065    0.6540   28.1004 F       1  UNL1       -0.1659
     25 C           8.0011   -6.8377   27.5716 C.3     1  UNL1        0.0721
     26 C           8.6518   -5.9589   26.5448 C.3     1  UNL1        0.0174
     27 C           7.8072   -5.1253   25.6273 C.3     1  UNL1        0.0048
     28 C           7.7716   -5.4283   24.1587 C.3     1  UNL1        0.0216
     29 C           6.9269   -4.5947   23.2412 C.3     1  UNL1        0.0937
     30 N           6.1180   -3.4582   23.7924 N.am    1  UNL1       -0.2761
     31 C           5.2733   -2.6246   22.8749 C.2     1  UNL1        0.2498
     32 O           4.4643   -1.4880   23.4261 O.2     1  UNL1       -0.2699
     33 C           6.1536   -3.1552   25.2611 C.3     1  UNL1        0.0937
     34 C           6.9982   -3.9888   26.1785 C.3     1  UNL1        0.0216
     35 C           5.2377   -2.9275   21.4062 C.ar    1  UNL1        0.0641
     36 C           4.2708   -3.9427   20.8731 C.ar    1  UNL1        0.0054
     37 C           4.2352   -4.2457   19.4045 C.ar    1  UNL1        0.0002
     38 C           5.1666   -3.5334   18.4690 C.ar    1  UNL1        0.0009
     39 C           6.1336   -2.5182   19.0022 C.ar    1  UNL1        0.0115
     40 C           6.1692   -2.2152   20.4708 C.ar    1  UNL1        0.0620
     41 CL          7.1361   -1.2000   21.0039 Cl      1  UNL1       -0.0821
@<TRIPOS>BOND
     1     6     7    2
     2     7    10    1
     3    10    11    1
     4    11    12   am
     5    12    13    2
     6    12    15    1
     7    15    16   ar
     8    16    17   ar
     9    17    18   ar
    10    18    19   ar
    11    19    21    1
    12    21    22    1
    13    21    23    1
    14    21    24    1
    15    19    20   ar
    16     7     8   am
    17     1     8    1
    18     1     2    1
    19     2     3    1
    20     3     4    1
    21     4    25    1
    22    25    26    1
    23    26    27    1
    24    27    28    1
    25    28    29    1
    26    29    30    1
    27    30    31   am
    28    31    32    2
    29    31    35    1
    30    35    36   ar
    31    36    37   ar
    32    37    38   ar
    33    38    39   ar
    34    39    40   ar
    35    40    41    1
    36    30    33    1
    37    33    34    1
    38     4     5    1
    39    20    15   ar
    40     5     1    1
    41    34    27    1
    42    40    35   ar
    43    11    14    1
    44     8     9    1
@<TRIPOS>MOLECULE
*****
 41 44 0 0 0
SMALL
GASTEIGER

@<TRIPOS>ATOM
      1 C           7.3875   -4.7475   25.7678 C.3     1  UNL1        0.0889
      2 C           6.8716   -6.0200   26.3716 C.3     1  UNL1        0.0383
      3 C           6.6019   -5.7674   27.8253 C.3     1  UNL1        0.0739
      4 N           6.9511   -4.3386   28.1201 N.3     1  UNL1       -0.2712
      5 C           7.4367   -3.7084   26.8485 C.3     1  UNL1        0.0919
      6 O           5.4230   -3.6005   23.8120 O.2     1  UNL1       -0.2733
      7 C           6.8023   -3.9755   23.3571 C.2     1  UNL1        0.2425
      8 N           7.7845   -4.5490   24.3350 N.am    1  UNL1       -0.3032
      9 H           8.6898   -4.7951   24.0364 H       1  UNL1        0.1495
     10 C           7.1994   -3.7770   21.9243 C.3     1  UNL1        0.1759
     11 N           6.4694   -2.7789   21.0751 N.am    1  UNL1       -0.2931
     12 C           5.2647   -3.2024   20.2881 C.2     1  UNL1        0.2462
     13 O           4.7899   -4.6239   20.3504 O.2     1  UNL1       -0.2701
     14 H           6.7810   -1.8459   21.0342 H       1  UNL1        0.1502
     15 C           4.5347   -2.2043   19.4389 C.ar    1  UNL1        0.0533
     16 C           5.1016   -1.7904   18.1133 C.ar    1  UNL1        0.0045
     17 C           4.3717   -0.7924   17.2642 C.ar    1  UNL1        0.0001
     18 C           3.0748   -0.2083   17.7406 C.ar    1  UNL1        0.0039
     19 C           2.5079   -0.6222   19.0662 C.ar    1  UNL1        0.0716
     20 C           3.2379   -1.6202   19.9154 C.ar    1  UNL1        0.0084
     21 C           1.2111   -0.0381   19.5427 C.3     1  UNL1        0.4186
     22 F          -0.0858    0.5460   20.0192 F       1  UNL1       -0.1659
     23 F           1.0530    0.6783   18.2343 F       1  UNL1       -0.1659
     24 F           1.3691   -0.7544   20.8511 F       1  UNL1       -0.1659
     25 C           6.8352   -3.6595   29.4525 C.3     1  UNL1        0.0721
     26 C           6.8791   -2.1626   29.5376 C.3     1  UNL1        0.0174
     27 C           5.6247   -1.3903   29.8203 C.3     1  UNL1        0.0048
     28 C           4.6835   -1.0530   28.7021 C.3     1  UNL1        0.0216
     29 C           3.4290   -0.2808   28.9849 C.3     1  UNL1        0.0937
     30 N           3.1157    0.1541   30.3859 N.am    1  UNL1       -0.2761
     31 C           1.8612    0.9263   30.6686 C.2     1  UNL1        0.2498
     32 O           1.5479    1.3612   32.0696 O.2     1  UNL1       -0.2699
     33 C           4.0569   -0.1833   31.5041 C.3     1  UNL1        0.0937
     34 C           5.3114   -0.9555   31.2213 C.3     1  UNL1        0.0216
     35 C           0.9200    1.2637   29.5504 C.ar    1  UNL1        0.0641
     36 C          -0.1869    0.3176   29.1906 C.ar    1  UNL1        0.0054
     37 C          -1.1280    0.6549   28.0724 C.ar    1  UNL1        0.0002
     38 C          -0.9622    1.9384   27.3140 C.ar    1  UNL1        0.0009
     39 C           0.1448    2.8845   27.6739 C.ar    1  UNL1        0.0115
     40 C           1.0859    2.5472   28.7921 C.ar    1  UNL1        0.0620
     41 CL          2.1928    3.4933   29.1519 Cl      1  UNL1       -0.0821
@<TRIPOS>BOND
     1     6     7    2
     2     7    10    1
     3    10    11    1
     4    11    12   am
     5    12    13    2
     6    12    15    1
     7    15    16   ar
     8    16    17   ar
     9    17    18   ar
    10    18    19   ar
    11    19    21    1
    12    21    22    1
    13    21    23    1
    14    21    24    1
    15    19    20   ar
    16     7     8   am
    17     1     8    1
    18     1     2    1
    19     2     3    1
    20     3     4    1
    21     4    25    1
    22    25    26    1
    23    26    27    1
    24    27    28    1
    25    28    29    1
    26    29    30    1
    27    30    31   am
    28    31    32    2
    29    31    35    1
    30    35    36   ar
    31    36    37   ar
    32    37    38   ar
    33    38    39   ar
    34    39    40   ar
    35    40    41    1
    36    30    33    1
    37    33    34    1
    38     4     5    1
    39    20    15   ar
    40     5     1    1
    41    34    27    1
    42    40    35   ar
    43    11    14    1
    44     8     9    1
@<TRIPOS>MOLECULE
*****
 41 44 0 0 0
SMALL
GASTEIGER

@<TRIPOS>ATOM
      1 C           6.4974   -4.7086   28.9169 C.3     1  UNL1        0.0889
      2 C           7.0515   -5.6444   29.9500 C.3     1  UNL1        0.0383
      3 C           7.0529   -4.9303   31.2691 C.3     1  UNL1        0.0739
      4 N           6.4996   -3.5531   31.0513 N.3     1  UNL1       -0.2712
      5 C           6.1563   -3.4162   29.5975 C.3     1  UNL1        0.0919
      6 O           7.5361   -2.8013   26.8473 O.2     1  UNL1       -0.2733
      7 C           6.8355   -4.0584   26.4243 C.2     1  UNL1        0.2425
      8 N           6.3162   -5.0121   27.4591 N.am    1  UNL1       -0.3032
      9 H           5.8564   -5.8371   27.1815 H       1  UNL1        0.1495
     10 C           6.6542   -4.3619   24.9666 C.3     1  UNL1        0.1759
     11 N           5.6456   -3.5977   24.1612 N.am    1  UNL1       -0.2931
     12 C           5.6381   -3.7117   22.6656 C.2     1  UNL1        0.2462
     13 O           6.6393   -4.5898   21.9753 O.2     1  UNL1       -0.2701
     14 H           4.9884   -3.0213   24.6142 H       1  UNL1        0.1502
     15 C           4.6294   -2.9475   21.8601 C.ar    1  UNL1        0.0533
     16 C           4.3032   -3.3800   20.4614 C.ar    1  UNL1        0.0045
     17 C           3.2946   -2.6158   19.6561 C.ar    1  UNL1        0.0001
     18 C           2.6121   -1.4191   20.2495 C.ar    1  UNL1        0.0039
     19 C           2.9383   -0.9865   21.6482 C.ar    1  UNL1        0.0716
     20 C           3.9470   -1.7507   22.4535 C.ar    1  UNL1        0.0084
     21 C           2.2559    0.2102   22.2415 C.3     1  UNL1        0.4186
     22 F           1.5734    1.4070   22.8349 F       1  UNL1       -0.1659
     23 F           2.3257   -0.4232   23.5994 F       1  UNL1       -0.1659
     24 F           2.1861    0.8437   20.8836 F       1  UNL1       -0.1659
     25 C           6.3210   -2.4982   32.1026 C.3     1  UNL1        0.0721
     26 C           4.9617   -2.2385   32.6811 C.3     1  UNL1        0.0174
     27 C           4.0854   -1.1747   32.0892 C.3     1  UNL1        0.0048
     28 C           3.7191   -1.2278   30.6356 C.3     1  UNL1        0.0216
     29 C           2.8427   -0.1640   30.0436 C.3     1  UNL1        0.0937
     30 N           2.3329    0.9529   30.9054 N.am    1  UNL1       -0.2761
     31 C           1.4565    2.0168   30.3134 C.2     1  UNL1        0.2498
     32 O           0.9466    3.1337   31.1750 O.2     1  UNL1       -0.2699
     33 C           2.6992    1.0061   32.3590 C.3     1  UNL1        0.0937
     34 C           3.5755   -0.0578   32.9509 C.3     1  UNL1        0.0216
     35 C           1.0902    1.9637   28.8598 C.ar    1  UNL1        0.0641
     36 C           1.9482    2.6581   27.8442 C.ar    1  UNL1        0.0054
     37 C           1.5819    2.6050   26.3906 C.ar    1  UNL1        0.0002
     38 C           0.3575    1.8574   25.9526 C.ar    1  UNL1        0.0009
     39 C          -0.5006    1.1629   26.9682 C.ar    1  UNL1        0.0115
     40 C          -0.1343    1.2161   28.4218 C.ar    1  UNL1        0.0620
     41 CL         -0.9923    0.5216   29.4374 Cl      1  UNL1       -0.0821
@<TRIPOS>BOND
     1     6     7    2
     2     7    10    1
     3    10    11    1
     4    11    12   am
     5    12    13    2
     6    12    15    1
     7    15    16   ar
     8    16    17   ar
     9    17    18   ar
    10    18    19   ar
    11    19    21    1
    12    21    22    1
    13    21    23    1
    14    21    24    1
    15    19    20   ar
    16     7     8   am
    17     1     8    1
    18     1     2    1
    19     2     3    1
    20     3     4    1
    21     4    25    1
    22    25    26    1
    23    26    27    1
    24    27    28    1
    25    28    29    1
    26    29    30    1
    27    30    31   am
    28    31    32    2
    29    31    35    1
    30    35    36   ar
    31    36    37   ar
    32    37    38   ar
    33    38    39   ar
    34    39    40   ar
    35    40    41    1
    36    30    33    1
    37    33    34    1
    38     4     5    1
    39    20    15   ar
    40     5     1    1
    41    34    27    1
    42    40    35   ar
    43    11    14    1
    44     8     9    1
