@<TRIPOS>MOLECULE
*****
 31 34 0 0 0
SMALL
GASTEIGER

@<TRIPOS>ATOM
      1 C           6.0841   -2.5769   32.3330 C.ar    1  UNL1        0.1104
      2 C           7.1219   -1.6642   32.9163 C.ar    1  UNL1        0.0185
      3 C           6.7408   -0.6786   33.9809 C.ar    1  UNL1       -0.0013
      4 C           5.3220   -0.6056   34.4622 C.ar    1  UNL1       -0.0024
      5 C           4.2843   -1.5183   33.8789 C.ar    1  UNL1       -0.0013
      6 C           4.6653   -2.5039   32.8143 C.ar    1  UNL1        0.0185
      7 S           6.4652   -3.5625   31.2684 S.O2    1  UNL1        0.0305
      8 O           6.7096   -4.6038   32.3200 O.2     1  UNL1       -0.1641
      9 O           6.2208   -2.5211   30.2169 O.2     1  UNL1       -0.1641
     10 N           7.1296   -5.6189   28.0443 N.ar    1  UNL1       -0.2500
     11 C           6.5797   -4.4060   28.7346 C.ar    1  UNL1        0.1153
     12 C           6.8463   -4.5480   30.2039 C.ar    1  UNL1        0.1497
     13 C           7.5609   -5.8488   30.4217 C.ar    1  UNL1        0.1404
     14 N           7.7360   -6.5106   29.0870 N.ar    1  UNL1       -0.1663
     15 C           6.8849   -4.7618   25.6039 C.3     1  UNL1        0.0263
     16 C           7.0814   -5.8921   26.5702 C.3     1  UNL1        0.1054
     17 C           7.2298   -7.2957   26.0624 C.3     1  UNL1        0.0263
     18 C           4.9409    0.3800   35.5268 C.3     1  UNL1        0.1177
     19 N           3.9696    1.4803   35.2172 N.am    1  UNL1       -0.2847
     20 C           3.3976    2.3104   36.3279 C.2     1  UNL1        0.3047
     21 O           3.7969    2.0402   37.7483 O.2     1  UNL1       -0.2526
     22 N           2.4263    3.4107   36.0183 N.am    1  UNL1       -0.2560
     23 C           1.7747    4.3190   37.0185 C.3     1  UNL1        0.1218
     24 C           0.8817    5.2655   36.2724 C.ar    1  UNL1       -0.0016
     25 C          -0.0094    6.3800   36.7350 C.ar    1  UNL1        0.0178
     26 C          -0.8007    7.1712   35.7361 C.ar    1  UNL1        0.0986
     27 N          -0.7010    6.8479   34.2748 N.ar    1  UNL1       -0.2426
     28 C           0.1900    5.7335   33.8123 C.ar    1  UNL1        0.0960
     29 C           0.9813    4.9422   34.8111 C.ar    1  UNL1        0.0146
     30 C           1.9359    3.7959   34.6540 C.3     1  UNL1        0.1233
     31 H           3.7075    1.6576   34.2849 H       1  UNL1        0.1513
@<TRIPOS>BOND
     1    15    16    1
     2    16    17    1
     3    16    10    1
     4    10    11   ar
     5    11    12   ar
     6    12     7    1
     7     7     8    2
     8     7     9    2
     9     7     1    1
    10     1     2   ar
    11     2     3   ar
    12     3     4   ar
    13     4    18    1
    14    18    19    1
    15    19    20   am
    16    20    21    2
    17    20    22   am
    18    22    23    1
    19    23    24    1
    20    24    25   ar
    21    25    26   ar
    22    26    27   ar
    23    27    28   ar
    24    28    29   ar
    25    29    30    1
    26     4     5   ar
    27     5     6   ar
    28    12    13   ar
    29    13    14   ar
    30    14    10   ar
    31     6     1   ar
    32    30    22    1
    33    29    24   ar
    34    19    31    1
@<TRIPOS>MOLECULE
*****
 31 34 0 0 0
SMALL
GASTEIGER

@<TRIPOS>ATOM
      1 C           1.1197    1.2087   28.4310 C.ar    1  UNL1        0.1104
      2 C          -0.2065    0.5387   28.2252 C.ar    1  UNL1        0.0185
      3 C          -1.3512    1.3068   27.6341 C.ar    1  UNL1       -0.0013
      4 C          -1.1697    2.7451   27.2486 C.ar    1  UNL1       -0.0024
      5 C           0.1564    3.4151   27.4544 C.ar    1  UNL1       -0.0013
      6 C           1.3012    2.6470   28.0456 C.ar    1  UNL1        0.0185
      7 S           2.2644    0.4405   29.0221 S.O2    1  UNL1        0.0305
      8 O           1.3271   -0.2036   30.0001 O.2     1  UNL1       -0.1641
      9 O           3.2018    1.0847   28.0442 O.2     1  UNL1       -0.1641
     10 N           4.8052   -1.5515   31.1766 N.ar    1  UNL1       -0.2500
     11 C           3.4906   -0.8467   31.0183 C.ar    1  UNL1        0.1153
     12 C           3.4091   -0.3277   29.6133 C.ar    1  UNL1        0.1497
     13 C           4.6733   -0.7118   28.9033 C.ar    1  UNL1        0.1404
     14 N           5.5362   -1.4681   29.8694 N.ar    1  UNL1       -0.1663
     15 C           4.4387   -2.2586   33.6496 C.3     1  UNL1        0.0263
     16 C           5.3016   -2.2220   32.4232 C.3     1  UNL1        0.1054
     17 C           6.6609   -2.8558   32.4434 C.3     1  UNL1        0.0263
     18 C          -2.3145    3.5133   26.6575 C.3     1  UNL1        0.1177
     19 N          -2.4928    3.5666   25.1690 N.am    1  UNL1       -0.2847
     20 C          -3.8694    3.5105   24.5761 C.2     1  UNL1        0.3047
     21 O          -5.0678    3.4010   25.4715 O.2     1  UNL1       -0.2526
     22 N          -4.0477    3.5639   23.0877 N.am    1  UNL1       -0.2560
     23 C          -5.3553    3.5179   22.3540 C.3     1  UNL1        0.1218
     24 C          -5.0654    3.5982   20.8845 C.ar    1  UNL1       -0.0016
     25 C          -5.9631    3.5966   19.6829 C.ar    1  UNL1        0.0178
     26 C          -5.3742    3.6906   18.3066 C.ar    1  UNL1        0.0986
     27 N          -3.8874    3.7862   18.1319 N.ar    1  UNL1       -0.2426
     28 C          -2.9897    3.7878   19.3336 C.ar    1  UNL1        0.0960
     29 C          -3.5787    3.6938   20.7099 C.ar    1  UNL1        0.0146
     30 C          -2.9497    3.6726   22.0715 C.3     1  UNL1        0.1233
     31 H          -1.7062    3.6385   24.5813 H       1  UNL1        0.1513
@<TRIPOS>BOND
     1    15    16    1
     2    16    17    1
     3    16    10    1
     4    10    11   ar
     5    11    12   ar
     6    12     7    1
     7     7     8    2
     8     7     9    2
     9     7     1    1
    10     1     2   ar
    11     2     3   ar
    12     3     4   ar
    13     4    18    1
    14    18    19    1
    15    19    20   am
    16    20    21    2
    17    20    22   am
    18    22    23    1
    19    23    24    1
    20    24    25   ar
    21    25    26   ar
    22    26    27   ar
    23    27    28   ar
    24    28    29   ar
    25    29    30    1
    26     4     5   ar
    27     5     6   ar
    28    12    13   ar
    29    13    14   ar
    30    14    10   ar
    31     6     1   ar
    32    30    22    1
    33    29    24   ar
    34    19    31    1
@<TRIPOS>MOLECULE
*****
 31 34 0 0 0
SMALL
GASTEIGER

@<TRIPOS>ATOM
      1 C           2.5882   -0.3658   19.6341 C.ar    1  UNL1        0.1104
      2 C           2.8738    0.7778   18.7063 C.ar    1  UNL1        0.0185
      3 C           1.8673    1.8772   18.5389 C.ar    1  UNL1       -0.0013
      4 C           0.5750    1.8331   19.2993 C.ar    1  UNL1       -0.0024
      5 C           0.2894    0.6896   20.2270 C.ar    1  UNL1       -0.0013
      6 C           1.2960   -0.4099   20.3944 C.ar    1  UNL1        0.0185
      7 S           3.5948   -1.4652   19.8014 S.O2    1  UNL1        0.0305
      8 O           3.2467   -1.5622   21.2572 O.2     1  UNL1       -0.1641
      9 O           3.9429   -1.3681   18.3457 O.2     1  UNL1       -0.1641
     10 N           6.6445   -3.7625   20.4991 N.ar    1  UNL1       -0.2500
     11 C           5.9925   -2.4117   20.5085 C.ar    1  UNL1        0.1153
     12 C           4.6014   -2.5646   19.9688 C.ar    1  UNL1        0.1497
     13 C           4.3935   -4.0100   19.6258 C.ar    1  UNL1        0.1404
     14 N           5.6562   -4.7503   19.9536 N.ar    1  UNL1       -0.1663
     15 C           8.2604   -4.8793   22.1996 C.3     1  UNL1        0.0263
     16 C           8.0397   -4.0714   20.9552 C.3     1  UNL1        0.1054
     17 C           9.2142   -3.5723   20.1669 C.3     1  UNL1        0.0263
     18 C          -0.4316    2.9326   19.1319 C.3     1  UNL1        0.1177
     19 N          -1.4375    3.1994   20.2121 N.am    1  UNL1       -0.2847
     20 C          -2.8372    3.6001   19.8513 C.2     1  UNL1        0.3047
     21 O          -3.2309    3.7341   18.4101 O.2     1  UNL1       -0.2526
     22 N          -3.8431    3.8669   20.9315 N.am    1  UNL1       -0.2560
     23 C          -5.2720    4.2735   20.7248 C.3     1  UNL1        0.1218
     24 C          -5.9088    4.4318   22.0737 C.ar    1  UNL1       -0.0016
     25 C          -7.2976    4.8171   22.4890 C.ar    1  UNL1        0.0178
     26 C          -7.6510    4.8938   23.9447 C.ar    1  UNL1        0.0986
     27 N          -6.6155    4.5850   24.9852 N.ar    1  UNL1       -0.2426
     28 C          -5.2267    4.1997   24.5699 C.ar    1  UNL1        0.0960
     29 C          -4.8733    4.1230   23.1141 C.ar    1  UNL1        0.0146
     30 C          -3.5966    3.7739   22.4082 C.3     1  UNL1        0.1233
     31 H          -1.1790    3.1114   21.1580 H       1  UNL1        0.1513
@<TRIPOS>BOND
     1    15    16    1
     2    16    17    1
     3    16    10    1
     4    10    11   ar
     5    11    12   ar
     6    12     7    1
     7     7     8    2
     8     7     9    2
     9     7     1    1
    10     1     2   ar
    11     2     3   ar
    12     3     4   ar
    13     4    18    1
    14    18    19    1
    15    19    20   am
    16    20    21    2
    17    20    22   am
    18    22    23    1
    19    23    24    1
    20    24    25   ar
    21    25    26   ar
    22    26    27   ar
    23    27    28   ar
    24    28    29   ar
    25    29    30    1
    26     4     5   ar
    27     5     6   ar
    28    12    13   ar
    29    13    14   ar
    30    14    10   ar
    31     6     1   ar
    32    30    22    1
    33    29    24   ar
    34    19    31    1
@<TRIPOS>MOLECULE
*****
 31 34 0 0 0
SMALL
GASTEIGER

@<TRIPOS>ATOM
      1 C           2.5547   -0.7205   21.4499 C.ar    1  UNL1        0.1104
      2 C           2.0796   -0.7813   20.0283 C.ar    1  UNL1        0.0185
      3 C           1.0456    0.1899   19.5409 C.ar    1  UNL1       -0.0013
      4 C           0.4867    1.2219   20.4750 C.ar    1  UNL1       -0.0024
      5 C           0.9617    1.2828   21.8965 C.ar    1  UNL1       -0.0013
      6 C           1.9957    0.3115   22.3839 C.ar    1  UNL1        0.0185
      7 S           3.5886   -1.6917   21.9372 S.O2    1  UNL1        0.0305
      8 O           3.5636   -1.0404   23.2882 O.2     1  UNL1       -0.1641
      9 O           3.6137   -2.3430   20.5863 O.2     1  UNL1       -0.1641
     10 N           6.1352   -3.8915   23.8715 N.ar    1  UNL1       -0.2500
     11 C           5.1032   -2.8034   23.8386 C.ar    1  UNL1        0.1153
     12 C           4.6226   -2.6629   22.4246 C.ar    1  UNL1        0.1497
     13 C           5.3576   -3.6642   21.5836 C.ar    1  UNL1        0.1404
     14 N           6.2924   -4.4235   22.4778 N.ar    1  UNL1       -0.1663
     15 C           7.5417   -5.7104   25.0812 C.3     1  UNL1        0.0263
     16 C           6.8793   -4.3646   25.0850 C.3     1  UNL1        0.1054
     17 C           6.9610   -3.4919   26.3022 C.3     1  UNL1        0.0263
     18 C          -0.5474    2.1932   19.9875 C.3     1  UNL1        0.1177
     19 N          -1.6530    2.6329   20.9010 N.am    1  UNL1       -0.2847
     20 C          -2.8147    3.4079   20.3534 C.2     1  UNL1        0.3047
     21 O          -2.8707    3.7432   18.8925 O.2     1  UNL1       -0.2526
     22 N          -3.9202    3.8476   21.2669 N.am    1  UNL1       -0.2560
     23 C          -5.1389    4.6246   20.8657 C.3     1  UNL1        0.1218
     24 C          -5.9732    4.8447   22.0927 C.ar    1  UNL1       -0.0016
     25 C          -7.2822    5.5460   22.3039 C.ar    1  UNL1        0.0178
     26 C          -7.8881    5.6062   23.6747 C.ar    1  UNL1        0.0986
     27 N          -7.1849    4.9652   24.8343 N.ar    1  UNL1       -0.2426
     28 C          -5.8759    4.2639   24.6231 C.ar    1  UNL1        0.0960
     29 C          -5.2701    4.2036   23.2523 C.ar    1  UNL1        0.0146
     30 C          -4.0013    3.5874   22.7419 C.3     1  UNL1        0.1233
     31 H          -1.6161    2.4128   21.8598 H       1  UNL1        0.1513
@<TRIPOS>BOND
     1    15    16    1
     2    16    17    1
     3    16    10    1
     4    10    11   ar
     5    11    12   ar
     6    12     7    1
     7     7     8    2
     8     7     9    2
     9     7     1    1
    10     1     2   ar
    11     2     3   ar
    12     3     4   ar
    13     4    18    1
    14    18    19    1
    15    19    20   am
    16    20    21    2
    17    20    22   am
    18    22    23    1
    19    23    24    1
    20    24    25   ar
    21    25    26   ar
    22    26    27   ar
    23    27    28   ar
    24    28    29   ar
    25    29    30    1
    26     4     5   ar
    27     5     6   ar
    28    12    13   ar
    29    13    14   ar
    30    14    10   ar
    31     6     1   ar
    32    30    22    1
    33    29    24   ar
    34    19    31    1
@<TRIPOS>MOLECULE
*****
 31 34 0 0 0
SMALL
GASTEIGER

@<TRIPOS>ATOM
      1 C           1.4546    1.3443   29.4474 C.ar    1  UNL1        0.1104
      2 C           0.0421    0.9255   29.1651 C.ar    1  UNL1        0.0185
      3 C          -0.4743    0.9300   27.7568 C.ar    1  UNL1       -0.0013
      4 C           0.4218    1.3533   26.6308 C.ar    1  UNL1       -0.0024
      5 C           1.8342    1.7721   26.9130 C.ar    1  UNL1       -0.0013
      6 C           2.3506    1.7675   28.3214 C.ar    1  UNL1        0.0185
      7 S           1.9710    1.3397   30.8557 S.O2    1  UNL1        0.0305
      8 O           2.0380   -0.1585   30.8263 O.2     1  UNL1       -0.1641
      9 O           1.9039    2.8379   30.8851 O.2     1  UNL1       -0.1641
     10 N           3.7645    0.7825   34.2525 N.ar    1  UNL1       -0.2500
     11 C           3.5715    0.4496   32.8027 C.ar    1  UNL1        0.1153
     12 C           2.4873    1.3352   32.2640 C.ar    1  UNL1        0.1497
     13 C           2.0102    2.2155   33.3808 C.ar    1  UNL1        0.1404
     14 N           2.7994    1.8739   34.6098 N.ar    1  UNL1       -0.1663
     15 C           4.5023    0.1474   36.6613 C.3     1  UNL1        0.0263
     16 C           4.7494    0.1373   35.1818 C.3     1  UNL1        0.1054
     17 C           5.9815   -0.5178   34.6317 C.3     1  UNL1        0.0263
     18 C          -0.0947    1.3578   25.2225 C.3     1  UNL1        0.1177
     19 N           0.7091    0.7226   24.1269 N.am    1  UNL1       -0.2847
     20 C           0.6485    1.2767   22.7343 C.2     1  UNL1        0.3047
     21 O          -0.2159    2.4660   22.4373 O.2     1  UNL1       -0.2526
     22 N           1.4523    0.6414   21.6387 N.am    1  UNL1       -0.2560
     23 C           1.4927    1.0824   20.2055 C.3     1  UNL1        0.1218
     24 C           2.4222    0.1671   19.4650 C.ar    1  UNL1       -0.0016
     25 C           2.8513    0.1203   18.0284 C.ar    1  UNL1        0.0178
     26 C           3.8144   -0.9331   17.5674 C.ar    1  UNL1        0.0986
     27 N           4.3485   -1.9397   18.5428 N.ar    1  UNL1       -0.2426
     28 C           3.9194   -1.8929   19.9794 C.ar    1  UNL1        0.0960
     29 C           2.9563   -0.8395   20.4404 C.ar    1  UNL1        0.0146
     30 C           2.3568   -0.5463   21.7838 C.3     1  UNL1        0.1233
     31 H           1.2765   -0.0580   24.3218 H       1  UNL1        0.1513
@<TRIPOS>BOND
     1    15    16    1
     2    16    17    1
     3    16    10    1
     4    10    11   ar
     5    11    12   ar
     6    12     7    1
     7     7     8    2
     8     7     9    2
     9     7     1    1
    10     1     2   ar
    11     2     3   ar
    12     3     4   ar
    13     4    18    1
    14    18    19    1
    15    19    20   am
    16    20    21    2
    17    20    22   am
    18    22    23    1
    19    23    24    1
    20    24    25   ar
    21    25    26   ar
    22    26    27   ar
    23    27    28   ar
    24    28    29   ar
    25    29    30    1
    26     4     5   ar
    27     5     6   ar
    28    12    13   ar
    29    13    14   ar
    30    14    10   ar
    31     6     1   ar
    32    30    22    1
    33    29    24   ar
    34    19    31    1
@<TRIPOS>MOLECULE
*****
 31 34 0 0 0
SMALL
GASTEIGER

@<TRIPOS>ATOM
      1 C           6.8778   -4.5993   25.5183 C.ar    1  UNL1        0.1104
      2 C           6.5210   -3.5254   26.5029 C.ar    1  UNL1        0.0185
      3 C           6.5416   -3.8193   27.9736 C.ar    1  UNL1       -0.0013
      4 C           6.9191   -5.1871   28.4599 C.ar    1  UNL1       -0.0024
      5 C           7.2759   -6.2611   27.4754 C.ar    1  UNL1       -0.0013
      6 C           7.2553   -5.9672   26.0046 C.ar    1  UNL1        0.0185
      7 S           6.8571   -4.3054   24.0476 S.O2    1  UNL1        0.0305
      8 O           7.4782   -5.6426   23.7716 O.2     1  UNL1       -0.1641
      9 O           6.2361   -2.9682   24.3235 O.2     1  UNL1       -0.1641
     10 N           6.0600   -3.6483   20.3062 N.ar    1  UNL1       -0.2500
     11 C           5.6195   -3.9829   21.7004 C.ar    1  UNL1        0.1153
     12 C           6.8365   -4.0115   22.5768 C.ar    1  UNL1        0.1497
     13 C           8.0292   -3.6945   21.7242 C.ar    1  UNL1        0.1404
     14 N           7.5494   -3.4701   20.3209 N.ar    1  UNL1       -0.1663
     15 C           3.9515   -4.3834   18.9780 C.3     1  UNL1        0.0263
     16 C           5.1679   -3.5153   19.1076 C.3     1  UNL1        0.1054
     17 C           5.4922   -2.5142   18.0388 C.3     1  UNL1        0.0263
     18 C           6.9398   -5.4810   29.9307 C.3     1  UNL1        0.1177
     19 N           6.5006   -4.4340   30.9110 N.am    1  UNL1       -0.2847
     20 C           7.5031   -3.4789   31.4876 C.2     1  UNL1        0.3047
     21 O           8.9448   -3.5707   31.0840 O.2     1  UNL1       -0.2526
     22 N           7.0640   -2.4318   32.4678 N.am    1  UNL1       -0.2560
     23 C           7.9475   -1.4132   33.1248 C.3     1  UNL1        0.1218
     24 C           7.0937   -0.5714   34.0262 C.ar    1  UNL1       -0.0016
     25 C           7.4190    0.5845   34.9251 C.ar    1  UNL1        0.0178
     26 C           6.3331    1.2420   35.7240 C.ar    1  UNL1        0.0986
     27 N           4.9219    0.7436   35.6241 N.ar    1  UNL1       -0.2426
     28 C           4.5966   -0.4123   34.7253 C.ar    1  UNL1        0.0960
     29 C           5.6825   -1.0698   33.9263 C.ar    1  UNL1        0.0146
     30 C           5.6641   -2.2196   32.9632 C.3     1  UNL1        0.1233
     31 H           5.5543   -4.3737   31.1759 H       1  UNL1        0.1513
@<TRIPOS>BOND
     1    15    16    1
     2    16    17    1
     3    16    10    1
     4    10    11   ar
     5    11    12   ar
     6    12     7    1
     7     7     8    2
     8     7     9    2
     9     7     1    1
    10     1     2   ar
    11     2     3   ar
    12     3     4   ar
    13     4    18    1
    14    18    19    1
    15    19    20   am
    16    20    21    2
    17    20    22   am
    18    22    23    1
    19    23    24    1
    20    24    25   ar
    21    25    26   ar
    22    26    27   ar
    23    27    28   ar
    24    28    29   ar
    25    29    30    1
    26     4     5   ar
    27     5     6   ar
    28    12    13   ar
    29    13    14   ar
    30    14    10   ar
    31     6     1   ar
    32    30    22    1
    33    29    24   ar
    34    19    31    1
@<TRIPOS>MOLECULE
*****
 31 34 0 0 0
SMALL
GASTEIGER

@<TRIPOS>ATOM
      1 C           0.5267    1.6739   19.4122 C.ar    1  UNL1        0.1104
      2 C           0.1557    2.6610   18.3453 C.ar    1  UNL1        0.0185
      3 C          -0.9002    3.6924   18.6122 C.ar    1  UNL1       -0.0013
      4 C          -1.5851    3.7369   19.9459 C.ar    1  UNL1       -0.0024
      5 C          -1.2142    2.7499   21.0128 C.ar    1  UNL1       -0.0013
      6 C          -0.1583    1.7184   20.7460 C.ar    1  UNL1        0.0185
      7 S           1.5825    0.6425   19.1454 S.O2    1  UNL1        0.0305
      8 O           0.8704   -0.3202   20.0487 O.2     1  UNL1       -0.1641
      9 O           2.2947    1.6052   18.2420 O.2     1  UNL1       -0.1641
     10 N           4.0262   -2.3719   19.0592 N.ar    1  UNL1       -0.2500
     11 C           2.8754   -1.6355   19.6785 C.ar    1  UNL1        0.1153
     12 C           2.6384   -0.3889   18.8785 C.ar    1  UNL1        0.1497
     13 C           3.6426   -0.3549   17.7648 C.ar    1  UNL1        0.1404
     14 N           4.5003   -1.5804   17.8765 N.ar    1  UNL1       -0.1663
     15 C           4.0838   -4.9684   18.9909 C.3     1  UNL1        0.0263
     16 C           4.6017   -3.6715   19.5385 C.3     1  UNL1        0.1054
     17 C           5.6950   -3.6743   20.5653 C.3     1  UNL1        0.0263
     18 C          -2.6410    4.7684   20.2127 C.3     1  UNL1        0.1177
     19 N          -3.1596    4.9678   21.6061 N.am    1  UNL1       -0.2847
     20 C          -4.6119    5.2689   21.8299 C.2     1  UNL1        0.3047
     21 O          -5.5456    5.3707   20.6604 O.2     1  UNL1       -0.2526
     22 N          -5.1304    5.4683   23.2232 N.am    1  UNL1       -0.2560
     23 C          -6.5497    5.7737   23.6005 C.3     1  UNL1        0.1218
     24 C          -6.6172    5.8915   25.0944 C.ar    1  UNL1       -0.0016
     25 C          -7.7550    6.1805   26.0280 C.ar    1  UNL1        0.0178
     26 C          -7.5153    6.2369   27.5076 C.ar    1  UNL1        0.0986
     27 N          -6.1377    6.0042   28.0536 N.ar    1  UNL1       -0.2426
     28 C          -4.9999    5.7152   27.1200 C.ar    1  UNL1        0.0960
     29 C          -5.2396    5.6589   25.6403 C.ar    1  UNL1        0.0146
     30 C          -4.3207    5.3973   24.4839 C.3     1  UNL1        0.1233
     31 H          -2.5467    4.9010   22.3736 H       1  UNL1        0.1513
@<TRIPOS>BOND
     1    15    16    1
     2    16    17    1
     3    16    10    1
     4    10    11   ar
     5    11    12   ar
     6    12     7    1
     7     7     8    2
     8     7     9    2
     9     7     1    1
    10     1     2   ar
    11     2     3   ar
    12     3     4   ar
    13     4    18    1
    14    18    19    1
    15    19    20   am
    16    20    21    2
    17    20    22   am
    18    22    23    1
    19    23    24    1
    20    24    25   ar
    21    25    26   ar
    22    26    27   ar
    23    27    28   ar
    24    28    29   ar
    25    29    30    1
    26     4     5   ar
    27     5     6   ar
    28    12    13   ar
    29    13    14   ar
    30    14    10   ar
    31     6     1   ar
    32    30    22    1
    33    29    24   ar
    34    19    31    1
@<TRIPOS>MOLECULE
*****
 31 34 0 0 0
SMALL
GASTEIGER

@<TRIPOS>ATOM
      1 C           2.1885    1.4289   29.9498 C.ar    1  UNL1        0.1104
      2 C           0.7978    1.5620   29.4036 C.ar    1  UNL1        0.0185
      3 C           0.5618    1.4796   27.9246 C.ar    1  UNL1       -0.0013
      4 C           1.7164    1.2641   26.9917 C.ar    1  UNL1       -0.0024
      5 C           3.1071    1.1310   27.5378 C.ar    1  UNL1       -0.0013
      6 C           3.3432    1.2134   29.0169 C.ar    1  UNL1        0.0185
      7 S           2.4245    1.5113   31.4288 S.O2    1  UNL1        0.0305
      8 O           2.4296    3.0089   31.3445 O.2     1  UNL1       -0.1641
      9 O           2.4194    0.0137   31.5130 O.2     1  UNL1       -0.1641
     10 N           3.5562    1.1951   35.1281 N.ar    1  UNL1       -0.2500
     11 C           3.6608    0.7922   33.6870 C.ar    1  UNL1        0.1153
     12 C           2.6605    1.5936   32.9078 C.ar    1  UNL1        0.1497
     13 C           1.9378    2.4920   33.8672 C.ar    1  UNL1        0.1404
     14 N           2.4913    2.2457   35.2394 N.ar    1  UNL1       -0.1663
     15 C           5.4978   -0.3075   35.9780 C.3     1  UNL1        0.0263
     16 C           4.3731    0.6443   36.2591 C.3     1  UNL1        0.1054
     17 C           4.0653    1.0453   37.6713 C.3     1  UNL1        0.0263
     18 C           1.4803    1.1817   25.5127 C.3     1  UNL1        0.1177
     19 N           2.2483    0.1946   24.6845 N.am    1  UNL1       -0.2847
     20 C           2.0421    0.1403   23.1997 C.2     1  UNL1        0.3047
     21 O           1.0680    1.0731   22.5432 O.2     1  UNL1       -0.2526
     22 N           2.8100   -0.8468   22.3715 N.am    1  UNL1       -0.2560
     23 C           2.7101   -1.0167   20.8845 C.3     1  UNL1        0.1218
     24 C           3.6510   -2.1122   20.4789 C.ar    1  UNL1       -0.0016
     25 C           3.9754   -2.7135   19.1435 C.ar    1  UNL1        0.0178
     26 C           4.9811   -3.8219   19.0444 C.ar    1  UNL1        0.0986
     27 N           5.6625   -4.3291   20.2807 N.ar    1  UNL1       -0.2426
     28 C           5.3382   -3.7278   21.6161 C.ar    1  UNL1        0.0960
     29 C           4.3325   -2.6194   21.7152 C.ar    1  UNL1        0.0146
     30 C           3.8127   -1.8373   22.8849 C.3     1  UNL1        0.1233
     31 H           2.8876   -0.4176   25.1154 H       1  UNL1        0.1513
@<TRIPOS>BOND
     1    15    16    1
     2    16    17    1
     3    16    10    1
     4    10    11   ar
     5    11    12   ar
     6    12     7    1
     7     7     8    2
     8     7     9    2
     9     7     1    1
    10     1     2   ar
    11     2     3   ar
    12     3     4   ar
    13     4    18    1
    14    18    19    1
    15    19    20   am
    16    20    21    2
    17    20    22   am
    18    22    23    1
    19    23    24    1
    20    24    25   ar
    21    25    26   ar
    22    26    27   ar
    23    27    28   ar
    24    28    29   ar
    25    29    30    1
    26     4     5   ar
    27     5     6   ar
    28    12    13   ar
    29    13    14   ar
    30    14    10   ar
    31     6     1   ar
    32    30    22    1
    33    29    24   ar
    34    19    31    1
@<TRIPOS>MOLECULE
*****
 31 34 0 0 0
SMALL
GASTEIGER

@<TRIPOS>ATOM
      1 C           1.6440    1.0984   30.0453 C.ar    1  UNL1        0.1104
      2 C           1.2449    2.5396   29.9288 C.ar    1  UNL1        0.0185
      3 C           0.4391    3.0019   28.7511 C.ar    1  UNL1       -0.0013
      4 C           0.0325    2.0229   27.6899 C.ar    1  UNL1       -0.0024
      5 C           0.4316    0.5817   27.8063 C.ar    1  UNL1       -0.0013
      6 C           1.2374    0.1194   28.9840 C.ar    1  UNL1        0.0185
      7 S           2.4498    0.6361   31.2230 S.O2    1  UNL1        0.0305
      8 O           2.1732   -0.7908   30.8522 O.2     1  UNL1       -0.1641
      9 O           2.7264    2.0629   31.5938 O.2     1  UNL1       -0.1641
     10 N           4.3507    0.1084   34.5657 N.ar    1  UNL1       -0.2500
     11 C           3.4948    0.9472   33.6635 C.ar    1  UNL1        0.1153
     12 C           3.2555    0.1738   32.4007 C.ar    1  UNL1        0.1497
     13 C           3.9635   -1.1430   32.5224 C.ar    1  UNL1        0.1404
     14 N           4.6403   -1.1834   33.8604 N.ar    1  UNL1       -0.1663
     15 C           5.9952   -0.2262   36.5490 C.3     1  UNL1        0.0263
     16 C           4.8323    0.4937   35.9330 C.3     1  UNL1        0.1054
     17 C           4.1511    1.5988   36.6843 C.3     1  UNL1        0.0263
     18 C          -0.7733    2.4853   26.5121 C.3     1  UNL1        0.1177
     19 N          -2.0433    3.2540   26.7275 N.am    1  UNL1       -0.2847
     20 C          -2.8676    3.6853   25.5510 C.2     1  UNL1        0.3047
     21 O          -2.4221    3.3478   24.1590 O.2     1  UNL1       -0.2526
     22 N          -4.1376    4.4540   25.7664 N.am    1  UNL1       -0.2560
     23 C          -5.0610    4.9497   24.6933 C.3     1  UNL1        0.1218
     24 C          -6.2012    5.6640   25.3564 C.ar    1  UNL1       -0.0016
     25 C          -7.4103    6.3568   24.8015 C.ar    1  UNL1        0.0178
     26 C          -8.4007    6.9954   25.7295 C.ar    1  UNL1        0.0986
     27 N          -8.1819    6.9412   27.2125 N.ar    1  UNL1       -0.2426
     28 C          -6.9728    6.2484   27.7674 C.ar    1  UNL1        0.0960
     29 C          -5.9824    5.6098   26.8394 C.ar    1  UNL1        0.0146
     30 C          -4.7070    4.8620   27.0927 C.3     1  UNL1        0.1233
     31 H          -2.3357    3.4754   27.6412 H       1  UNL1        0.1513
@<TRIPOS>BOND
     1    15    16    1
     2    16    17    1
     3    16    10    1
     4    10    11   ar
     5    11    12   ar
     6    12     7    1
     7     7     8    2
     8     7     9    2
     9     7     1    1
    10     1     2   ar
    11     2     3   ar
    12     3     4   ar
    13     4    18    1
    14    18    19    1
    15    19    20   am
    16    20    21    2
    17    20    22   am
    18    22    23    1
    19    23    24    1
    20    24    25   ar
    21    25    26   ar
    22    26    27   ar
    23    27    28   ar
    24    28    29   ar
    25    29    30    1
    26     4     5   ar
    27     5     6   ar
    28    12    13   ar
    29    13    14   ar
    30    14    10   ar
    31     6     1   ar
    32    30    22    1
    33    29    24   ar
    34    19    31    1
