@<TRIPOS>MOLECULE
*****
 40 45 0 0 0
SMALL
GASTEIGER

@<TRIPOS>ATOM
      1 C           6.3171   -1.7537   29.5470 C.ar    1  UNL1        0.1319
      2 C           7.4434   -2.7438   29.5797 C.ar    1  UNL1        0.0343
      3 C           7.9752   -3.3175   28.2999 C.ar    1  UNL1        0.0046
      4 C           7.3805   -2.9012   26.9873 C.ar    1  UNL1        0.0239
      5 C           6.2542   -1.9111   26.9545 C.ar    1  UNL1        0.1358
      6 N           5.7224   -1.3374   28.2343 N.ar    1  UNL1       -0.2261
      7 C           7.1863    0.9741   30.4434 C.3     1  UNL1        0.0233
      8 C           6.2200    0.1839   31.2751 C.3     1  UNL1        0.0939
      9 C           5.6882    0.7575   32.5550 C.3     1  UNL1        0.1106
     10 N           4.7219   -0.0327   33.3867 N.pl3   1  UNL1       -0.3029
     11 C           4.2872   -1.3965   32.9385 C.3     1  UNL1        0.1123
     12 C           4.8190   -1.9702   31.6586 C.3     1  UNL1        0.1135
     13 N           5.7853   -1.1800   30.8269 N.pl3   1  UNL1       -0.2914
     14 C           4.1901    0.5411   34.6666 C.ar    1  UNL1        0.0674
     15 C           4.6751    0.0125   35.9839 C.ar    1  UNL1        0.0174
     16 C           4.1434    0.5862   37.2638 C.ar    1  UNL1        0.0183
     17 C           3.1267    1.6885   37.2264 C.ar    1  UNL1        0.0831
     18 N           2.6417    2.2170   35.9091 N.ar    1  UNL1       -0.2446
     19 C           3.1735    1.6433   34.6291 C.ar    1  UNL1        0.1130
     20 C           2.5950    2.2621   38.5063 C.3     1  UNL1        0.1232
     21 C           1.9969    0.9313   38.8543 C.3     1  UNL1        0.0355
     22 C           3.1932    3.5929   38.1583 C.3     1  UNL1        0.0355
     23 O           2.0634    2.8358   39.7862 O.3     1  UNL1       -0.3812
     24 H           1.5841    2.1481   40.2743 H       1  UNL1        0.2107
     25 C           5.6596   -1.4948   25.6418 C.2     1  UNL1        0.2636
     26 O           6.0042   -0.1592   25.0523 O.2     1  UNL1       -0.2685
     27 N           4.7204   -2.4140   24.9186 N.am    1  UNL1       -0.3013
     28 H           4.4942   -3.2905   25.3056 H       1  UNL1        0.1497
     29 C           4.1257   -1.9976   23.6059 C.3     1  UNL1        0.0719
     30 C           4.3683   -2.8231   22.3772 C.3     1  UNL1        0.0203
     31 C           3.5312   -1.5813   22.2933 C.3     1  UNL1        0.0018
     32 C           2.9366   -1.1651   20.9806 C.3     1  UNL1        0.0024
     33 C           2.6940   -0.3396   22.2093 C.3     1  UNL1        0.0018
     34 C           3.2886   -0.7558   23.5219 C.3     1  UNL1        0.0203
     35 C           3.3930   -2.0388   20.4967 C.3     1  UNL1        0.0285
     36 C           4.0164   -3.2323   19.8359 C.3     1  UNL1        0.0884
     37 O           4.2590   -4.0578   18.6072 O.3     1  UNL1       -0.3867
     38 C           3.1792   -1.9906   19.7519 C.3     1  UNL1        0.0269
     39 C           4.6109   -3.6486   21.1485 C.3     1  UNL1        0.0285
     40 H           3.8073   -3.6521   17.8507 H       1  UNL1        0.2102
@<TRIPOS>BOND
     1     8     7    1
     2     8     9    1
     3     9    10    1
     4    10    14    1
     5    14    15   ar
     6    15    16   ar
     7    16    17   ar
     8    17    20    1
     9    20    21    1
    10    20    22    1
    11    20    23    1
    12    17    18   ar
    13    18    19   ar
    14    10    11    1
    15    11    12    1
    16    12    13    1
    17    13     1    1
    18     1     2   ar
    19     2     3   ar
    20     3     4   ar
    21     4     5   ar
    22     5    25    1
    23    25    26    2
    24    25    27   am
    25    27    29    1
    26    29    30    1
    27    30    31    1
    28    31    32    1
    29    32    33    1
    30    33    34    1
    31    34    35    1
    32    35    36    1
    33    36    37    1
    34    36    38    1
    35    36    39    1
    36     5     6   ar
    37    13     8    1
    38     6     1   ar
    39    19    14   ar
    40    34    29    1
    41    39    30    1
    42    38    32    1
    43    23    24    1
    44    27    28    1
    45    37    40    1
@<TRIPOS>MOLECULE
*****
 40 45 0 0 0
SMALL
GASTEIGER

@<TRIPOS>ATOM
      1 C           4.6488    0.6535   28.3936 C.ar    1  UNL1        0.1319
      2 C           4.1448    1.6011   27.3457 C.ar    1  UNL1        0.0343
      3 C           4.4475    1.3487   25.8984 C.ar    1  UNL1        0.0046
      4 C           5.2541    0.1488   25.4991 C.ar    1  UNL1        0.0239
      5 C           5.7581   -0.7987   26.5470 C.ar    1  UNL1        0.1358
      6 N           5.4555   -0.5464   27.9943 N.ar    1  UNL1       -0.2261
      7 C           2.1348   -0.4387   29.6130 C.3     1  UNL1        0.0233
      8 C           3.0892    0.3599   30.4506 C.3     1  UNL1        0.0939
      9 C           2.7865    0.6123   31.8979 C.3     1  UNL1        0.1106
     10 N           3.7409    1.4109   32.7355 N.pl3   1  UNL1       -0.3029
     11 C           4.9978    1.9570   32.1258 C.3     1  UNL1        0.1123
     12 C           5.3005    1.7045   30.6786 C.3     1  UNL1        0.1135
     13 N           4.3461    0.9060   29.8410 N.pl3   1  UNL1       -0.2914
     14 C           3.4382    1.6633   34.1829 C.ar    1  UNL1        0.0674
     15 C           4.2086    0.9400   35.2474 C.ar    1  UNL1        0.0174
     16 C           3.9059    1.1924   36.6947 C.ar    1  UNL1        0.0183
     17 C           2.8328    2.1681   37.0775 C.ar    1  UNL1        0.0831
     18 N           2.0624    2.8914   36.0129 N.ar    1  UNL1       -0.2446
     19 C           2.3651    2.6390   34.5656 C.ar    1  UNL1        0.1130
     20 C           2.5302    2.4205   38.5248 C.3     1  UNL1        0.1232
     21 C           2.9110    3.8611   38.3532 C.3     1  UNL1        0.0355
     22 C           2.1493    0.9799   38.6963 C.3     1  UNL1        0.0355
     23 O           2.2275    2.6729   39.9720 O.3     1  UNL1       -0.3812
     24 H           2.3945    3.6056   40.1794 H       1  UNL1        0.2107
     25 C           6.5648   -1.9987   26.1476 C.2     1  UNL1        0.2636
     26 O           8.0071   -2.0995   26.5470 O.2     1  UNL1       -0.2685
     27 N           5.9291   -3.0978   25.3489 N.am    1  UNL1       -0.3013
     28 H           4.9825   -3.0316   25.0868 H       1  UNL1        0.1497
     29 C           6.7358   -4.2977   24.9495 C.3     1  UNL1        0.0719
     30 C           6.7790   -5.5030   25.8414 C.3     1  UNL1        0.0203
     31 C           7.5424   -5.4976   24.5502 C.3     1  UNL1        0.0018
     32 C           8.3491   -6.6975   24.1509 C.3     1  UNL1        0.0024
     33 C           8.3058   -5.4922   23.2590 C.3     1  UNL1        0.0018
     34 C           7.4992   -4.2923   23.6584 C.3     1  UNL1        0.0203
     35 C           8.0447   -7.2093   25.0735 C.3     1  UNL1        0.0285
     36 C           7.6289   -7.9083   26.3338 C.3     1  UNL1        0.0884
     37 O           7.6721   -9.1136   27.2257 O.3     1  UNL1       -0.3867
     38 C           8.3923   -7.9029   25.0427 C.3     1  UNL1        0.0269
     39 C           6.8222   -6.7084   26.7332 C.3     1  UNL1        0.0285
     40 H           8.2341   -9.7939   26.8228 H       1  UNL1        0.2102
@<TRIPOS>BOND
     1     8     7    1
     2     8     9    1
     3     9    10    1
     4    10    14    1
     5    14    15   ar
     6    15    16   ar
     7    16    17   ar
     8    17    20    1
     9    20    21    1
    10    20    22    1
    11    20    23    1
    12    17    18   ar
    13    18    19   ar
    14    10    11    1
    15    11    12    1
    16    12    13    1
    17    13     1    1
    18     1     2   ar
    19     2     3   ar
    20     3     4   ar
    21     4     5   ar
    22     5    25    1
    23    25    26    2
    24    25    27   am
    25    27    29    1
    26    29    30    1
    27    30    31    1
    28    31    32    1
    29    32    33    1
    30    33    34    1
    31    34    35    1
    32    35    36    1
    33    36    37    1
    34    36    38    1
    35    36    39    1
    36     5     6   ar
    37    13     8    1
    38     6     1   ar
    39    19    14   ar
    40    34    29    1
    41    39    30    1
    42    38    32    1
    43    23    24    1
    44    27    28    1
    45    37    40    1
@<TRIPOS>MOLECULE
*****
 40 45 0 0 0
SMALL
GASTEIGER

@<TRIPOS>ATOM
      1 C           4.3122   -0.9092   28.9819 C.ar    1  UNL1        0.1319
      2 C           4.7167   -0.5955   30.3919 C.ar    1  UNL1        0.0343
      3 C           5.8504   -1.3416   31.0306 C.ar    1  UNL1        0.0046
      4 C           6.5797   -2.4014   30.2593 C.ar    1  UNL1        0.0239
      5 C           6.1752   -2.7151   28.8494 C.ar    1  UNL1        0.1358
      6 N           5.0415   -1.9690   28.2107 N.ar    1  UNL1       -0.2261
      7 C           4.8673    1.1155   26.8390 C.3     1  UNL1        0.0233
      8 C           3.4560    0.8493   27.2718 C.3     1  UNL1        0.0939
      9 C           2.3223    1.5954   26.6332 C.3     1  UNL1        0.1106
     10 N           0.9110    1.3292   27.0660 N.pl3   1  UNL1       -0.3029
     11 C           0.6334    0.3168   28.1375 C.3     1  UNL1        0.1123
     12 C           1.7672   -0.4293   28.7761 C.3     1  UNL1        0.1135
     13 N           3.1785   -0.1630   28.3432 N.pl3   1  UNL1       -0.2914
     14 C          -0.2228    2.0753   26.4273 C.ar    1  UNL1        0.0674
     15 C          -1.3880    2.5241   27.2586 C.ar    1  UNL1        0.0174
     16 C          -2.5217    3.2703   26.6200 C.ar    1  UNL1        0.0183
     17 C          -2.4904    3.5676   25.1500 C.ar    1  UNL1        0.0831
     18 N          -1.3252    3.1188   24.3188 N.ar    1  UNL1       -0.2446
     19 C          -0.1914    2.3727   24.9575 C.ar    1  UNL1        0.1130
     20 C          -3.6241    4.3138   24.5114 C.3     1  UNL1        0.1232
     21 C          -4.4800    4.0414   25.7127 C.3     1  UNL1        0.0355
     22 C          -2.7682    4.5861   23.3101 C.3     1  UNL1        0.0355
     23 O          -4.7578    5.0599   23.8728 O.3     1  UNL1       -0.3812
     24 H          -5.5241    5.0547   24.4676 H       1  UNL1        0.2107
     25 C           6.9045   -3.7750   28.0781 C.2     1  UNL1        0.2636
     26 O           8.3044   -4.1529   28.4624 O.2     1  UNL1       -0.2685
     27 N           6.2340   -4.4570   26.9225 N.am    1  UNL1       -0.3013
     28 H           5.3153   -4.2090   26.6703 H       1  UNL1        0.1497
     29 C           6.9634   -5.5169   26.1513 C.3     1  UNL1        0.0719
     30 C           7.5041   -5.2125   24.7856 C.3     1  UNL1        0.0203
     31 C           7.6927   -6.5767   25.3800 C.3     1  UNL1        0.0018
     32 C           8.4220   -7.6365   24.6087 C.3     1  UNL1        0.0024
     33 C           7.8813   -7.9409   25.9744 C.3     1  UNL1        0.0018
     34 C           7.1520   -6.8811   26.7456 C.3     1  UNL1        0.0203
     35 C           8.5708   -6.9313   23.7803 C.3     1  UNL1        0.0285
     36 C           8.7740   -5.9679   22.6487 C.3     1  UNL1        0.0884
     37 O           9.3147   -5.6635   21.2830 O.3     1  UNL1       -0.3867
     38 C           8.9626   -7.3321   23.2431 C.3     1  UNL1        0.0269
     39 C           8.0447   -4.9081   23.4200 C.3     1  UNL1        0.0285
     40 H           9.7544   -6.4512   20.9264 H       1  UNL1        0.2102
@<TRIPOS>BOND
     1     8     7    1
     2     8     9    1
     3     9    10    1
     4    10    14    1
     5    14    15   ar
     6    15    16   ar
     7    16    17   ar
     8    17    20    1
     9    20    21    1
    10    20    22    1
    11    20    23    1
    12    17    18   ar
    13    18    19   ar
    14    10    11    1
    15    11    12    1
    16    12    13    1
    17    13     1    1
    18     1     2   ar
    19     2     3   ar
    20     3     4   ar
    21     4     5   ar
    22     5    25    1
    23    25    26    2
    24    25    27   am
    25    27    29    1
    26    29    30    1
    27    30    31    1
    28    31    32    1
    29    32    33    1
    30    33    34    1
    31    34    35    1
    32    35    36    1
    33    36    37    1
    34    36    38    1
    35    36    39    1
    36     5     6   ar
    37    13     8    1
    38     6     1   ar
    39    19    14   ar
    40    34    29    1
    41    39    30    1
    42    38    32    1
    43    23    24    1
    44    27    28    1
    45    37    40    1
@<TRIPOS>MOLECULE
*****
 40 45 0 0 0
SMALL
GASTEIGER

@<TRIPOS>ATOM
      1 C           1.4183    1.3570   26.9713 C.ar    1  UNL1        0.1319
      2 C           0.1121    1.9337   26.5115 C.ar    1  UNL1        0.0343
      3 C          -0.2392    1.9262   25.0533 C.ar    1  UNL1        0.0046
      4 C           0.7156    1.3419   24.0548 C.ar    1  UNL1        0.0239
      5 C           2.0217    0.7652   24.5146 C.ar    1  UNL1        0.1358
      6 N           2.3731    0.7727   25.9728 N.ar    1  UNL1       -0.2261
      7 C           2.1714    3.9290   28.3195 C.3     1  UNL1        0.0233
      8 C           2.1461    2.6506   29.1037 C.3     1  UNL1        0.0939
      9 C           2.4974    2.6581   30.5619 C.3     1  UNL1        0.1106
     10 N           2.4722    1.3796   31.3461 N.pl3   1  UNL1       -0.3029
     11 C           2.0956    0.0937   30.6720 C.3     1  UNL1        0.1123
     12 C           1.7443    0.0861   29.2138 C.3     1  UNL1        0.1135
     13 N           1.7696    1.3646   28.4296 N.pl3   1  UNL1       -0.2914
     14 C           2.8235    1.3872   32.8044 C.ar    1  UNL1        0.0674
     15 C           3.9381    0.5210   33.3118 C.ar    1  UNL1        0.0174
     16 C           4.2894    0.5286   34.7700 C.ar    1  UNL1        0.0183
     17 C           3.5262    1.4023   35.7209 C.ar    1  UNL1        0.0831
     18 N           2.4116    2.2685   35.2135 N.ar    1  UNL1       -0.2446
     19 C           2.0603    2.2609   33.7552 C.ar    1  UNL1        0.1130
     20 C           3.8775    1.4099   37.1791 C.3     1  UNL1        0.1232
     21 C           3.0054    2.6131   37.3830 C.3     1  UNL1        0.0355
     22 C           4.7496    0.2067   36.9752 C.3     1  UNL1        0.0355
     23 O           4.2288    1.4174   38.6373 O.3     1  UNL1       -0.3812
     24 H           3.7728    2.1526   39.0760 H       1  UNL1        0.2107
     25 C           2.9765    0.1809   23.5161 C.2     1  UNL1        0.2636
     26 O           4.3662    0.7326   23.3954 O.2     1  UNL1       -0.2685
     27 N           2.5417   -0.9550   22.6383 N.am    1  UNL1       -0.3013
     28 H           1.6296   -1.3171   22.7175 H       1  UNL1        0.1497
     29 C           3.4965   -1.5393   21.6398 C.3     1  UNL1        0.0719
     30 C           3.3157   -1.2604   20.1770 C.3     1  UNL1        0.0203
     31 C           4.4512   -2.1236   20.6412 C.3     1  UNL1        0.0018
     32 C           5.4060   -2.7078   19.6427 C.3     1  UNL1        0.0024
     33 C           5.5867   -2.9868   21.1054 C.3     1  UNL1        0.0018
     34 C           4.6320   -2.4025   22.1039 C.3     1  UNL1        0.0203
     35 C           4.8497   -2.2251   18.8283 C.3     1  UNL1        0.0285
     36 C           4.0897   -1.5657   17.7158 C.3     1  UNL1        0.0884
     37 O           3.9090   -1.2867   16.2531 O.3     1  UNL1       -0.3867
     38 C           5.2252   -2.4289   18.1800 C.3     1  UNL1        0.0269
     39 C           3.1350   -0.9814   18.7143 C.3     1  UNL1        0.0285
     40 H           4.6058   -1.7361   15.7497 H       1  UNL1        0.2102
@<TRIPOS>BOND
     1     8     7    1
     2     8     9    1
     3     9    10    1
     4    10    14    1
     5    14    15   ar
     6    15    16   ar
     7    16    17   ar
     8    17    20    1
     9    20    21    1
    10    20    22    1
    11    20    23    1
    12    17    18   ar
    13    18    19   ar
    14    10    11    1
    15    11    12    1
    16    12    13    1
    17    13     1    1
    18     1     2   ar
    19     2     3   ar
    20     3     4   ar
    21     4     5   ar
    22     5    25    1
    23    25    26    2
    24    25    27   am
    25    27    29    1
    26    29    30    1
    27    30    31    1
    28    31    32    1
    29    32    33    1
    30    33    34    1
    31    34    35    1
    32    35    36    1
    33    36    37    1
    34    36    38    1
    35    36    39    1
    36     5     6   ar
    37    13     8    1
    38     6     1   ar
    39    19    14   ar
    40    34    29    1
    41    39    30    1
    42    38    32    1
    43    23    24    1
    44    27    28    1
    45    37    40    1
@<TRIPOS>MOLECULE
*****
 40 45 0 0 0
SMALL
GASTEIGER

@<TRIPOS>ATOM
      1 C           6.8079   -3.1965   29.4802 C.ar    1  UNL1        0.1319
      2 C           7.9553   -3.9397   30.0975 C.ar    1  UNL1        0.0343
      3 C           8.1736   -3.8847   31.5805 C.ar    1  UNL1        0.0046
      4 C           7.2445   -3.0865   32.4462 C.ar    1  UNL1        0.0239
      5 C           6.0970   -2.3433   31.8289 C.ar    1  UNL1        0.1358
      6 N           5.8787   -2.3983   30.3459 N.ar    1  UNL1       -0.2261
      7 C           7.1736   -5.7831   28.0051 C.3     1  UNL1        0.0233
      8 C           6.7724   -4.5448   27.2597 C.3     1  UNL1        0.0939
      9 C           6.5542   -4.5998   25.7767 C.3     1  UNL1        0.1106
     10 N           6.1530   -3.3616   25.0312 N.pl3   1  UNL1       -0.3029
     11 C           5.9701   -2.0683   25.7687 C.3     1  UNL1        0.1123
     12 C           6.1884   -2.0133   27.2517 C.3     1  UNL1        0.1135
     13 N           6.5896   -3.2516   27.9972 N.pl3   1  UNL1       -0.2914
     14 C           5.9347   -3.4166   23.5481 C.ar    1  UNL1        0.0674
     15 C           4.6964   -2.8180   22.9496 C.ar    1  UNL1        0.0174
     16 C           4.4781   -2.8730   21.4666 C.ar    1  UNL1        0.0183
     17 C           5.4981   -3.5267   20.5821 C.ar    1  UNL1        0.0831
     18 N           6.7364   -4.1253   21.1806 N.ar    1  UNL1       -0.2446
     19 C           6.9547   -4.0702   22.6637 C.ar    1  UNL1        0.1130
     20 C           5.2798   -3.5817   19.0991 C.3     1  UNL1        0.1232
     21 C           6.3472   -2.5462   18.9036 C.3     1  UNL1        0.0355
     22 C           4.2123   -4.6172   19.2947 C.3     1  UNL1        0.0355
     23 O           5.0615   -3.6367   17.6162 O.3     1  UNL1       -0.3812
     24 H           5.6652   -3.0172   17.1773 H       1  UNL1        0.2107
     25 C           5.1679   -1.5450   32.6947 C.2     1  UNL1        0.2636
     26 O           3.8574   -2.1318   33.1287 O.2     1  UNL1       -0.2685
     27 N           5.5492   -0.1601   33.1265 N.am    1  UNL1       -0.3013
     28 H           6.4093    0.2250   32.8416 H       1  UNL1        0.1497
     29 C           4.6201    0.6382   33.9923 C.3     1  UNL1        0.0719
     30 C           4.6239    0.4394   35.4791 C.3     1  UNL1        0.0203
     31 C           3.6910    1.4364   34.8581 C.3     1  UNL1        0.0018
     32 C           2.7619    2.2345   35.7239 C.3     1  UNL1        0.0024
     33 C           2.7581    2.4333   34.2371 C.3     1  UNL1        0.0018
     34 C           3.6871    1.6351   33.3713 C.3     1  UNL1        0.0203
     35 C           3.1578    1.7292   36.6148 C.3     1  UNL1        0.0285
     36 C           3.6986    1.0388   37.8316 C.3     1  UNL1        0.0884
     37 O           3.7025    0.8400   39.3184 O.3     1  UNL1       -0.3867
     38 C           2.7657    2.0357   37.2106 C.3     1  UNL1        0.0269
     39 C           4.6277    0.2406   36.9658 C.3     1  UNL1        0.0285
     40 H           3.0478    1.4290   39.7250 H       1  UNL1        0.2102
@<TRIPOS>BOND
     1     8     7    1
     2     8     9    1
     3     9    10    1
     4    10    14    1
     5    14    15   ar
     6    15    16   ar
     7    16    17   ar
     8    17    20    1
     9    20    21    1
    10    20    22    1
    11    20    23    1
    12    17    18   ar
    13    18    19   ar
    14    10    11    1
    15    11    12    1
    16    12    13    1
    17    13     1    1
    18     1     2   ar
    19     2     3   ar
    20     3     4   ar
    21     4     5   ar
    22     5    25    1
    23    25    26    2
    24    25    27   am
    25    27    29    1
    26    29    30    1
    27    30    31    1
    28    31    32    1
    29    32    33    1
    30    33    34    1
    31    34    35    1
    32    35    36    1
    33    36    37    1
    34    36    38    1
    35    36    39    1
    36     5     6   ar
    37    13     8    1
    38     6     1   ar
    39    19    14   ar
    40    34    29    1
    41    39    30    1
    42    38    32    1
    43    23    24    1
    44    27    28    1
    45    37    40    1
@<TRIPOS>MOLECULE
*****
 40 45 0 0 0
SMALL
GASTEIGER

@<TRIPOS>ATOM
      1 C           1.1726    1.4831   26.8243 C.ar    1  UNL1        0.1319
      2 C          -0.2609    1.9249   26.8168 C.ar    1  UNL1        0.0343
      3 C          -0.9630    2.1711   25.5144 C.ar    1  UNL1        0.0046
      4 C          -0.2317    1.9755   24.2195 C.ar    1  UNL1        0.0239
      5 C           1.2018    1.5337   24.2270 C.ar    1  UNL1        0.1358
      6 N           1.9039    1.2875   25.5294 N.ar    1  UNL1       -0.2261
      7 C           2.8484    3.6445   28.0571 C.3     1  UNL1        0.0233
      8 C           2.7126    2.3176   28.7432 C.3     1  UNL1        0.0939
      9 C           3.4146    2.0713   30.0457 C.3     1  UNL1        0.1106
     10 N           3.2788    0.7443   30.7318 N.pl3   1  UNL1       -0.3029
     11 C           2.4409   -0.3364   30.1154 C.3     1  UNL1        0.1123
     12 C           1.7388   -0.0901   28.8129 C.3     1  UNL1        0.1135
     13 N           1.8747    1.2368   28.1268 N.pl3   1  UNL1       -0.2914
     14 C           3.9809    0.4981   32.0343 C.ar    1  UNL1        0.0674
     15 C           3.8813   -0.8433   32.6981 C.ar    1  UNL1        0.0174
     16 C           4.5834   -1.0896   34.0005 C.ar    1  UNL1        0.0183
     17 C           5.3850    0.0056   34.6393 C.ar    1  UNL1        0.0831
     18 N           5.4846    1.3470   33.9755 N.ar    1  UNL1       -0.2446
     19 C           4.7825    1.5933   32.6729 C.ar    1  UNL1        0.1130
     20 C           6.0871   -0.2407   35.9417 C.3     1  UNL1        0.1232
     21 C           7.3896   -0.3861   35.2121 C.3     1  UNL1        0.0355
     22 C           4.7846   -0.0952   36.6713 C.3     1  UNL1        0.0355
     23 O           6.7891   -0.4869   37.2442 O.3     1  UNL1       -0.3812
     24 H           7.7346   -0.6287   37.0801 H       1  UNL1        0.2107
     25 C           1.9331    1.3382   22.9320 C.2     1  UNL1        0.2636
     26 O           3.3401    1.8362   22.7826 O.2     1  UNL1       -0.2685
     27 N           1.2575    0.6446   21.7864 N.am    1  UNL1       -0.3013
     28 H           0.3340    0.3177   21.8844 H       1  UNL1        0.1497
     29 C           1.9888    0.4490   20.4914 C.3     1  UNL1        0.0719
     30 C           2.6135   -0.8777   20.1758 C.3     1  UNL1        0.0203
     31 C           2.7201    0.2534   19.1964 C.3     1  UNL1        0.0018
     32 C           3.4514    0.0578   17.9015 C.3     1  UNL1        0.0024
     33 C           2.8267    1.3845   18.2171 C.3     1  UNL1        0.0018
     34 C           2.0954    1.5801   19.5120 C.3     1  UNL1        0.0203
     35 C           3.6704   -0.9810   18.1820 C.3     1  UNL1        0.0285
     36 C           3.9695   -2.4000   18.5653 C.3     1  UNL1        0.0884
     37 O           4.5941   -3.7267   18.2497 O.3     1  UNL1       -0.3867
     38 C           4.0761   -1.2689   17.5859 C.3     1  UNL1        0.0269
     39 C           3.2382   -2.2044   19.8602 C.3     1  UNL1        0.0285
     40 H           5.0238   -3.6834   17.3811 H       1  UNL1        0.2102
@<TRIPOS>BOND
     1     8     7    1
     2     8     9    1
     3     9    10    1
     4    10    14    1
     5    14    15   ar
     6    15    16   ar
     7    16    17   ar
     8    17    20    1
     9    20    21    1
    10    20    22    1
    11    20    23    1
    12    17    18   ar
    13    18    19   ar
    14    10    11    1
    15    11    12    1
    16    12    13    1
    17    13     1    1
    18     1     2   ar
    19     2     3   ar
    20     3     4   ar
    21     4     5   ar
    22     5    25    1
    23    25    26    2
    24    25    27   am
    25    27    29    1
    26    29    30    1
    27    30    31    1
    28    31    32    1
    29    32    33    1
    30    33    34    1
    31    34    35    1
    32    35    36    1
    33    36    37    1
    34    36    38    1
    35    36    39    1
    36     5     6   ar
    37    13     8    1
    38     6     1   ar
    39    19    14   ar
    40    34    29    1
    41    39    30    1
    42    38    32    1
    43    23    24    1
    44    27    28    1
    45    37    40    1
@<TRIPOS>MOLECULE
*****
 40 45 0 0 0
SMALL
GASTEIGER

@<TRIPOS>ATOM
      1 C          -0.3673    2.7636   23.4533 C.ar    1  UNL1        0.1319
      2 C          -1.5407    3.5115   22.8933 C.ar    1  UNL1        0.0343
      3 C          -1.8310    3.4591   21.4226 C.ar    1  UNL1        0.0046
      4 C          -0.9477    2.6588   20.5119 C.ar    1  UNL1        0.0239
      5 C           0.2257    1.9109   21.0719 C.ar    1  UNL1        0.1358
      6 N           0.5160    1.9633   22.5426 N.ar    1  UNL1       -0.2261
      7 C           1.1984    5.0550   24.5926 C.3     1  UNL1        0.0233
      8 C           0.7058    3.9617   25.4937 C.3     1  UNL1        0.0939
      9 C           0.9959    4.0141   26.9644 C.3     1  UNL1        0.1106
     10 N           0.5033    2.9208   27.8655 N.pl3   1  UNL1       -0.3029
     11 C          -0.2795    1.7751   27.2959 C.3     1  UNL1        0.1123
     12 C          -0.5697    1.7227   25.8252 C.3     1  UNL1        0.1135
     13 N          -0.0771    2.8160   24.9241 N.pl3   1  UNL1       -0.2914
     14 C           0.7935    2.9732   29.3363 C.ar    1  UNL1        0.0674
     15 C           1.2434    4.2578   29.9666 C.ar    1  UNL1        0.0174
     16 C           1.5336    4.3103   31.4373 C.ar    1  UNL1        0.0183
     17 C           1.3739    3.0781   32.2777 C.ar    1  UNL1        0.0831
     18 N           0.9241    1.7935   31.6474 N.ar    1  UNL1       -0.2446
     19 C           0.6339    1.7410   30.1766 C.ar    1  UNL1        0.1130
     20 C           1.6642    3.1306   33.7484 C.3     1  UNL1        0.1232
     21 C           2.4201    1.8392   33.6453 C.3     1  UNL1        0.0355
     22 C           0.9082    4.4220   33.8515 C.3     1  UNL1        0.0355
     23 O           1.9544    3.1831   35.2191 O.3     1  UNL1       -0.3812
     24 H           2.4778    2.4070   35.4733 H       1  UNL1        0.2107
     25 C           1.1090    1.1105   20.1612 C.2     1  UNL1        0.2636
     26 O           0.6027    0.6745   18.8182 O.2     1  UNL1       -0.2685
     27 N           2.4983    0.7462   20.5934 N.am    1  UNL1       -0.3013
     28 H           2.8306    1.0324   21.4749 H       1  UNL1        0.1497
     29 C           3.3816   -0.0541   19.6827 C.3     1  UNL1        0.0719
     30 C           3.5706   -1.5229   19.9214 C.3     1  UNL1        0.0203
     31 C           4.2648   -0.8544   18.7720 C.3     1  UNL1        0.0018
     32 C           5.1479   -1.6548   17.8613 C.3     1  UNL1        0.0024
     33 C           4.9590   -0.1860   17.6225 C.3     1  UNL1        0.0018
     34 C           4.0758    0.6143   18.5332 C.3     1  UNL1        0.0203
     35 C           4.9344   -2.5581   18.4480 C.3     1  UNL1        0.0285
     36 C           4.6427   -3.7920   19.2495 C.3     1  UNL1        0.0884
     37 O           4.8317   -5.2608   19.4882 O.3     1  UNL1       -0.3867
     38 C           5.3369   -3.1236   18.1000 C.3     1  UNL1        0.0269
     39 C           3.7596   -2.9916   20.1602 C.3     1  UNL1        0.0285
     40 H           5.4277   -5.6238   18.8145 H       1  UNL1        0.2102
@<TRIPOS>BOND
     1     8     7    1
     2     8     9    1
     3     9    10    1
     4    10    14    1
     5    14    15   ar
     6    15    16   ar
     7    16    17   ar
     8    17    20    1
     9    20    21    1
    10    20    22    1
    11    20    23    1
    12    17    18   ar
    13    18    19   ar
    14    10    11    1
    15    11    12    1
    16    12    13    1
    17    13     1    1
    18     1     2   ar
    19     2     3   ar
    20     3     4   ar
    21     4     5   ar
    22     5    25    1
    23    25    26    2
    24    25    27   am
    25    27    29    1
    26    29    30    1
    27    30    31    1
    28    31    32    1
    29    32    33    1
    30    33    34    1
    31    34    35    1
    32    35    36    1
    33    36    37    1
    34    36    38    1
    35    36    39    1
    36     5     6   ar
    37    13     8    1
    38     6     1   ar
    39    19    14   ar
    40    34    29    1
    41    39    30    1
    42    38    32    1
    43    23    24    1
    44    27    28    1
    45    37    40    1
@<TRIPOS>MOLECULE
*****
 40 45 0 0 0
SMALL
GASTEIGER

@<TRIPOS>ATOM
      1 C           6.4534   -1.6464   20.0244 C.ar    1  UNL1        0.1319
      2 C           7.3919   -1.6336   18.8543 C.ar    1  UNL1        0.0343
      3 C           8.6715   -2.4142   18.9107 C.ar    1  UNL1        0.0046
      4 C           9.0126   -3.2076   20.1371 C.ar    1  UNL1        0.0239
      5 C           8.0742   -3.2204   21.3072 C.ar    1  UNL1        0.1358
      6 N           6.7946   -2.4398   21.2508 N.ar    1  UNL1       -0.2261
      7 C           3.8984   -3.0089   19.2398 C.3     1  UNL1        0.0233
      8 C           3.8963   -1.5470   19.5758 C.3     1  UNL1        0.0939
      9 C           2.6167   -0.7663   19.5194 C.3     1  UNL1        0.1106
     10 N           2.6146    0.6955   19.8554 N.pl3   1  UNL1       -0.3029
     11 C           3.8920    1.3768   20.2477 C.3     1  UNL1        0.1123
     12 C           5.1716    0.5961   20.3041 C.3     1  UNL1        0.1135
     13 N           5.1737   -0.8658   19.9681 N.pl3   1  UNL1       -0.2914
     14 C           1.3349    1.4762   19.7991 C.ar    1  UNL1        0.0674
     15 C           1.0796    2.4164   18.6585 C.ar    1  UNL1        0.0174
     16 C          -0.2000    3.1971   18.6021 C.ar    1  UNL1        0.0183
     17 C          -1.2243    3.0375   19.6863 C.ar    1  UNL1        0.0831
     18 N          -0.9690    2.0973   20.8268 N.ar    1  UNL1       -0.2446
     19 C           0.3107    1.3166   20.8832 C.ar    1  UNL1        0.1130
     20 C          -2.5039    3.8181   19.6299 C.3     1  UNL1        0.1232
     21 C          -2.8817    3.2967   20.9846 C.3     1  UNL1        0.0355
     22 C          -2.1261    4.3395   18.2752 C.3     1  UNL1        0.0355
     23 O          -3.7835    4.5987   19.5735 O.3     1  UNL1       -0.3812
     24 H          -4.2897    4.4491   20.3873 H       1  UNL1        0.2107
     25 C           8.4154   -4.0138   22.5336 C.2     1  UNL1        0.2636
     26 O           9.4775   -3.5236   23.4725 O.2     1  UNL1       -0.2685
     27 N           7.6945   -5.2974   22.8211 N.am    1  UNL1       -0.3013
     28 H           6.9973   -5.6191   22.2049 H       1  UNL1        0.1497
     29 C           8.0357   -6.0908   24.0476 C.3     1  UNL1        0.0719
     30 C           7.4241   -5.7295   25.3687 C.3     1  UNL1        0.0203
     31 C           8.3768   -6.8842   25.2740 C.3     1  UNL1        0.0018
     32 C           8.7180   -7.6776   26.5004 C.3     1  UNL1        0.0024
     33 C           9.3296   -8.0388   25.1792 C.3     1  UNL1        0.0018
     34 C           8.9884   -7.2455   23.9528 C.3     1  UNL1        0.0203
     35 C           8.0568   -7.0368   27.0988 C.3     1  UNL1        0.0285
     36 C           7.1537   -6.1616   27.9163 C.3     1  UNL1        0.0884
     37 O           6.5421   -5.8003   29.2374 O.3     1  UNL1       -0.3867
     38 C           8.1064   -7.3163   27.8215 C.3     1  UNL1        0.0269
     39 C           6.8125   -5.3682   26.6899 C.3     1  UNL1        0.0285
     40 H           6.8657   -6.4082   29.9206 H       1  UNL1        0.2102
@<TRIPOS>BOND
     1     8     7    1
     2     8     9    1
     3     9    10    1
     4    10    14    1
     5    14    15   ar
     6    15    16   ar
     7    16    17   ar
     8    17    20    1
     9    20    21    1
    10    20    22    1
    11    20    23    1
    12    17    18   ar
    13    18    19   ar
    14    10    11    1
    15    11    12    1
    16    12    13    1
    17    13     1    1
    18     1     2   ar
    19     2     3   ar
    20     3     4   ar
    21     4     5   ar
    22     5    25    1
    23    25    26    2
    24    25    27   am
    25    27    29    1
    26    29    30    1
    27    30    31    1
    28    31    32    1
    29    32    33    1
    30    33    34    1
    31    34    35    1
    32    35    36    1
    33    36    37    1
    34    36    38    1
    35    36    39    1
    36     5     6   ar
    37    13     8    1
    38     6     1   ar
    39    19    14   ar
    40    34    29    1
    41    39    30    1
    42    38    32    1
    43    23    24    1
    44    27    28    1
    45    37    40    1
@<TRIPOS>MOLECULE
*****
 40 45 0 0 0
SMALL
GASTEIGER

@<TRIPOS>ATOM
      1 C          -0.2590    2.6751   26.8128 C.ar    1  UNL1        0.1319
      2 C          -1.6384    3.2620   26.7603 C.ar    1  UNL1        0.0343
      3 C          -2.2862    3.5378   25.4359 C.ar    1  UNL1        0.0046
      4 C          -1.5546    3.2267   24.1639 C.ar    1  UNL1        0.0239
      5 C          -0.1752    2.6397   24.2164 C.ar    1  UNL1        0.1358
      6 N           0.4726    2.3639   25.5409 N.ar    1  UNL1       -0.2261
      7 C          -0.8304    0.1081   28.2566 C.3     1  UNL1        0.0233
      8 C           0.1030    1.1158   28.8592 C.3     1  UNL1        0.0939
      9 C           0.7508    0.8401   30.1837 C.3     1  UNL1        0.1106
     10 N           1.6843    1.8478   30.7864 N.pl3   1  UNL1       -0.3029
     11 C           1.9700    3.1312   30.0645 C.3     1  UNL1        0.1123
     12 C           1.3222    3.4069   28.7400 C.3     1  UNL1        0.1135
     13 N           0.3888    2.3993   28.1374 N.pl3   1  UNL1       -0.2914
     14 C           2.3321    1.5720   32.1109 C.ar    1  UNL1        0.0674
     15 C           3.3563    0.4828   32.2326 C.ar    1  UNL1        0.0174
     16 C           4.0040    0.2070   33.5571 C.ar    1  UNL1        0.0183
     17 C           3.6276    1.0203   34.7600 C.ar    1  UNL1        0.0831
     18 N           2.6035    2.1095   34.6383 N.ar    1  UNL1       -0.2446
     19 C           1.9557    2.3853   33.3137 C.ar    1  UNL1        0.1130
     20 C           4.2754    0.7445   36.0844 C.3     1  UNL1        0.1232
     21 C           3.4753    1.8505   36.7061 C.3     1  UNL1        0.0355
     22 C           5.0756   -0.3615   35.4628 C.3     1  UNL1        0.0355
     23 O           4.9232    0.4687   37.4089 O.3     1  UNL1       -0.3812
     24 H           4.5750    1.0835   38.0734 H       1  UNL1        0.2107
     25 C           0.5564    2.3286   22.9444 C.2     1  UNL1        0.2636
     26 O           1.6833    3.2095   22.4926 O.2     1  UNL1       -0.2685
     27 N           0.1611    1.1366   22.1242 N.am    1  UNL1       -0.3013
     28 H          -0.5785    0.5584   22.4207 H       1  UNL1        0.1497
     29 C           0.8927    0.8255   20.8521 C.3     1  UNL1        0.0719
     30 C           1.9620   -0.2265   20.8400 C.3     1  UNL1        0.0203
     31 C           1.6243    0.5143   19.5802 C.3     1  UNL1        0.0018
     32 C           2.3559    0.2032   18.3082 C.3     1  UNL1        0.0024
     33 C           1.2867    1.2551   18.3204 C.3     1  UNL1        0.0018
     34 C           0.5551    1.5662   19.5923 C.3     1  UNL1        0.0203
     35 C           2.9506   -0.5545   18.8355 C.3     1  UNL1        0.0285
     36 C           3.7629   -1.5895   19.5559 C.3     1  UNL1        0.0884
     37 O           4.8321   -2.6415   19.5438 O.3     1  UNL1       -0.3867
     38 C           3.4252   -0.8488   18.2961 C.3     1  UNL1        0.0269
     39 C           3.0313   -1.2784   20.8279 C.3     1  UNL1        0.0285
     40 H           5.2013   -2.7170   18.6500 H       1  UNL1        0.2102
@<TRIPOS>BOND
     1     8     7    1
     2     8     9    1
     3     9    10    1
     4    10    14    1
     5    14    15   ar
     6    15    16   ar
     7    16    17   ar
     8    17    20    1
     9    20    21    1
    10    20    22    1
    11    20    23    1
    12    17    18   ar
    13    18    19   ar
    14    10    11    1
    15    11    12    1
    16    12    13    1
    17    13     1    1
    18     1     2   ar
    19     2     3   ar
    20     3     4   ar
    21     4     5   ar
    22     5    25    1
    23    25    26    2
    24    25    27   am
    25    27    29    1
    26    29    30    1
    27    30    31    1
    28    31    32    1
    29    32    33    1
    30    33    34    1
    31    34    35    1
    32    35    36    1
    33    36    37    1
    34    36    38    1
    35    36    39    1
    36     5     6   ar
    37    13     8    1
    38     6     1   ar
    39    19    14   ar
    40    34    29    1
    41    39    30    1
    42    38    32    1
    43    23    24    1
    44    27    28    1
    45    37    40    1
