@<TRIPOS>MOLECULE
*****
 24 27 0 0 0
SMALL
GASTEIGER

@<TRIPOS>ATOM
      1 C         -12.6875   -0.3789   18.1930 C.ar    1  UNL1        0.0191
      2 C         -13.7149   -1.2035   18.9101 C.ar    1  UNL1        0.0046
      3 C         -13.3951   -2.6108   19.3190 C.ar    1  UNL1        0.0369
      4 C         -12.0477   -3.1935   19.0107 C.ar    1  UNL1        0.1384
      5 C         -11.0202   -2.3689   18.2936 C.ar    1  UNL1        0.0369
      6 C         -11.3401   -0.9616   17.8847 C.ar    1  UNL1        0.0046
      7 O         -13.9670    5.2503   16.5575 O.2     1  UNL1       -0.2711
      8 C         -13.6471    3.8430   16.9664 C.2     1  UNL1        0.2671
      9 C         -14.7406    2.9334   17.4427 C.3     1  UNL1        0.1163
     10 C         -14.4207    1.5261   17.8515 C.2     1  UNL1        0.0043
     11 C         -13.0074    1.0284   17.7841 C.2     1  UNL1        0.0968
     12 N         -11.9139    1.9380   17.3078 N.2     1  UNL1       -0.1564
     13 N         -12.2338    3.3453   16.8989 N.am    1  UNL1       -0.0790
     14 O         -11.7278   -4.6008   19.4196 O.3     1  UNL1       -0.4791
     15 C         -12.7466   -5.6858   19.2335 C.3     1  UNL1        0.1687
     16 C         -14.1309   -5.5178   19.7864 C.3     1  UNL1        0.0609
     17 C         -15.1497   -6.6029   19.6002 C.3     1  UNL1        0.0758
     18 N         -14.7843   -7.8560   18.8612 N.3     1  UNL1       -0.2737
     19 C         -13.4001   -8.0240   18.3083 C.3     1  UNL1        0.0758
     20 C         -12.3812   -6.9390   18.4944 C.3     1  UNL1        0.0609
     21 C         -15.8031   -8.9411   18.6751 C.3     1  UNL1        0.0575
     22 C         -15.8267  -10.2640   17.9686 C.3     1  UNL1        0.0160
     23 C         -17.2441  -10.4755   18.4119 C.3     1  UNL1        0.0028
     24 C         -17.2205   -9.1525   19.1184 C.3     1  UNL1        0.0160
@<TRIPOS>BOND
     1     7     8    2
     2     8     9    1
     3     9    10    1
     4    10    11    2
     5    11     1    1
     6     1     2   ar
     7     2     3   ar
     8     3     4   ar
     9     4    14    1
    10    14    15    1
    11    15    16    1
    12    16    17    1
    13    17    18    1
    14    18    21    1
    15    21    22    1
    16    22    23    1
    17    23    24    1
    18    18    19    1
    19    19    20    1
    20     4     5   ar
    21     5     6   ar
    22    11    12    1
    23    12    13    2
    24    13     8    1
    25     6     1   ar
    26    20    15    1
    27    24    21    1
@<TRIPOS>MOLECULE
*****
 24 27 0 0 0
SMALL
GASTEIGER

@<TRIPOS>ATOM
      1 C           6.3052   -3.5272   21.2410 C.ar    1  UNL1        0.0191
      2 C           7.6411   -4.2031   21.1493 C.ar    1  UNL1        0.0046
      3 C           8.2425   -4.8437   22.3650 C.ar    1  UNL1        0.0369
      4 C           7.5081   -4.8084   23.6724 C.ar    1  UNL1        0.1384
      5 C           6.1722   -4.1324   23.7641 C.ar    1  UNL1        0.0369
      6 C           5.5708   -3.4918   22.5484 C.ar    1  UNL1        0.0046
      7 O           3.8994   -0.9647   16.3783 O.2     1  UNL1       -0.2711
      8 C           4.5008   -1.6053   17.5940 C.2     1  UNL1        0.2671
      9 C           3.6765   -1.7809   18.8348 C.3     1  UNL1        0.1163
     10 C           4.2779   -2.4215   20.0505 C.2     1  UNL1        0.0043
     11 C           5.7037   -2.8865   20.0254 C.2     1  UNL1        0.0968
     12 N           6.5281   -2.7110   18.7846 N.2     1  UNL1       -0.1564
     13 N           5.9267   -2.0704   17.5689 N.am    1  UNL1       -0.0790
     14 O           8.1096   -5.4490   24.8881 O.3     1  UNL1       -0.4791
     15 C           7.7334   -4.9623   26.2561 C.3     1  UNL1        0.1687
     16 C           6.7418   -5.7302   27.0790 C.3     1  UNL1        0.0609
     17 C           6.3656   -5.2434   28.4470 C.3     1  UNL1        0.0758
     18 N           6.9810   -3.9888   28.9922 N.3     1  UNL1       -0.2737
     19 C           7.9725   -3.2209   28.1694 C.3     1  UNL1        0.0758
     20 C           8.3488   -3.7076   26.8013 C.3     1  UNL1        0.0609
     21 C           6.6047   -3.5021   30.3603 C.3     1  UNL1        0.0575
     22 C           6.6753   -4.0727   31.7456 C.3     1  UNL1        0.0160
     23 C           6.0727   -2.8137   32.2950 C.3     1  UNL1        0.0028
     24 C           6.0021   -2.2431   30.9096 C.3     1  UNL1        0.0160
@<TRIPOS>BOND
     1     7     8    2
     2     8     9    1
     3     9    10    1
     4    10    11    2
     5    11     1    1
     6     1     2   ar
     7     2     3   ar
     8     3     4   ar
     9     4    14    1
    10    14    15    1
    11    15    16    1
    12    16    17    1
    13    17    18    1
    14    18    21    1
    15    21    22    1
    16    22    23    1
    17    23    24    1
    18    18    19    1
    19    19    20    1
    20     4     5   ar
    21     5     6   ar
    22    11    12    1
    23    12    13    2
    24    13     8    1
    25     6     1   ar
    26    20    15    1
    27    24    21    1
@<TRIPOS>MOLECULE
*****
 24 27 0 0 0
SMALL
GASTEIGER

@<TRIPOS>ATOM
      1 C          -2.2402    3.3808   21.5703 C.ar    1  UNL1        0.0191
      2 C          -1.8740    3.2699   20.1199 C.ar    1  UNL1        0.0046
      3 C          -0.4496    3.0177   19.7231 C.ar    1  UNL1        0.0369
      4 C           0.6087    2.8765   20.7767 C.ar    1  UNL1        0.1384
      5 C           0.2425    2.9874   22.2271 C.ar    1  UNL1        0.0369
      6 C          -1.1819    3.2395   22.6239 C.ar    1  UNL1        0.0046
      7 O          -7.9379    4.3894   23.1573 O.2     1  UNL1       -0.2711
      8 C          -6.5134    4.1373   22.7606 C.2     1  UNL1        0.2671
      9 C          -5.4655    3.9365   23.8148 C.3     1  UNL1        0.1163
     10 C          -4.0411    3.6843   23.4181 C.2     1  UNL1        0.0043
     11 C          -3.6646    3.6329   21.9670 C.2     1  UNL1        0.0968
     12 N          -4.7125    3.8337   20.9128 N.2     1  UNL1       -0.1564
     13 N          -6.1369    4.0859   21.3095 N.am    1  UNL1       -0.0790
     14 O           2.0331    2.6243   20.3800 O.3     1  UNL1       -0.4791
     15 C           2.4898    1.2295   20.0706 C.3     1  UNL1        0.1687
     16 C           2.6419    0.2274   21.1765 C.3     1  UNL1        0.0609
     17 C           3.0986   -1.1674   20.8672 C.3     1  UNL1        0.0758
     18 N           3.4033   -1.5604   19.4520 N.3     1  UNL1       -0.2737
     19 C           3.2512   -0.5584   18.3461 C.3     1  UNL1        0.0758
     20 C           2.7945    0.8365   18.6554 C.3     1  UNL1        0.0609
     21 C           3.8600   -2.9553   19.1427 C.3     1  UNL1        0.0575
     22 C           5.1465   -3.5720   18.6798 C.3     1  UNL1        0.0160
     23 C           4.5058   -4.9280   18.7053 C.3     1  UNL1        0.0028
     24 C           3.2192   -4.3113   19.1683 C.3     1  UNL1        0.0160
@<TRIPOS>BOND
     1     7     8    2
     2     8     9    1
     3     9    10    1
     4    10    11    2
     5    11     1    1
     6     1     2   ar
     7     2     3   ar
     8     3     4   ar
     9     4    14    1
    10    14    15    1
    11    15    16    1
    12    16    17    1
    13    17    18    1
    14    18    21    1
    15    21    22    1
    16    22    23    1
    17    23    24    1
    18    18    19    1
    19    19    20    1
    20     4     5   ar
    21     5     6   ar
    22    11    12    1
    23    12    13    2
    24    13     8    1
    25     6     1   ar
    26    20    15    1
    27    24    21    1
@<TRIPOS>MOLECULE
*****
 24 27 0 0 0
SMALL
GASTEIGER

@<TRIPOS>ATOM
      1 C          -2.5708    3.6701   19.4068 C.ar    1  UNL1        0.0191
      2 C          -1.5781    3.7696   18.2868 C.ar    1  UNL1        0.0046
      3 C          -0.1338    3.4487   18.5340 C.ar    1  UNL1        0.0369
      4 C           0.3177    3.0283   19.9012 C.ar    1  UNL1        0.1384
      5 C          -0.6750    2.9287   21.0212 C.ar    1  UNL1        0.0369
      6 C          -2.1193    3.2496   20.7740 C.ar    1  UNL1        0.0046
      7 O          -8.3479    4.9536   18.4180 O.2     1  UNL1       -0.2711
      8 C          -6.9036    4.6328   18.6652 C.2     1  UNL1        0.2671
      9 C          -5.8730    4.9666   17.6278 C.3     1  UNL1        0.1163
     10 C          -4.4287    4.6457   17.8750 C.2     1  UNL1        0.0043
     11 C          -4.0151    3.9910   19.1596 C.2     1  UNL1        0.0968
     12 N          -5.0458    3.6571   20.1969 N.2     1  UNL1       -0.1564
     13 N          -6.4900    3.9780   19.9497 N.am    1  UNL1       -0.0790
     14 O           1.7620    2.7074   20.1484 O.3     1  UNL1       -0.4791
     15 C           2.2808    1.3266   19.8760 C.3     1  UNL1        0.1687
     16 C           3.2726    1.1020   18.7732 C.3     1  UNL1        0.0609
     17 C           3.7913   -0.2788   18.5008 C.3     1  UNL1        0.0758
     18 N           3.3184   -1.4351   19.3311 N.3     1  UNL1       -0.2737
     19 C           2.3266   -1.2105   20.4338 C.3     1  UNL1        0.0758
     20 C           1.8078    0.1703   20.7062 C.3     1  UNL1        0.0609
     21 C           3.8372   -2.8159   19.0587 C.3     1  UNL1        0.0575
     22 C           5.1240   -3.3813   18.5349 C.3     1  UNL1        0.0160
     23 C           4.5708   -4.7687   18.6734 C.3     1  UNL1        0.0028
     24 C           3.2840   -4.2033   19.1971 C.3     1  UNL1        0.0160
@<TRIPOS>BOND
     1     7     8    2
     2     8     9    1
     3     9    10    1
     4    10    11    2
     5    11     1    1
     6     1     2   ar
     7     2     3   ar
     8     3     4   ar
     9     4    14    1
    10    14    15    1
    11    15    16    1
    12    16    17    1
    13    17    18    1
    14    18    21    1
    15    21    22    1
    16    22    23    1
    17    23    24    1
    18    18    19    1
    19    19    20    1
    20     4     5   ar
    21     5     6   ar
    22    11    12    1
    23    12    13    2
    24    13     8    1
    25     6     1   ar
    26    20    15    1
    27    24    21    1
@<TRIPOS>MOLECULE
*****
 24 27 0 0 0
SMALL
GASTEIGER

@<TRIPOS>ATOM
      1 C           2.6456   -0.4747   19.8648 C.ar    1  UNL1        0.0191
      2 C           2.9929    0.7842   19.1270 C.ar    1  UNL1        0.0046
      3 C           1.9658    1.8651   18.9630 C.ar    1  UNL1        0.0369
      4 C           0.5914    1.6870   19.5369 C.ar    1  UNL1        0.1384
      5 C           0.2442    0.4281   20.2748 C.ar    1  UNL1        0.0369
      6 C           1.2712   -0.6528   20.4387 C.ar    1  UNL1        0.0046
      7 O           6.7538   -4.7982   20.5206 O.2     1  UNL1       -0.2711
      8 C           5.7268   -3.7173   20.3567 C.2     1  UNL1        0.2671
      9 C           4.4487   -4.0019   19.6250 C.3     1  UNL1        0.1163
     10 C           3.4216   -2.9211   19.4611 C.2     1  UNL1        0.0043
     11 C           3.6726   -1.5556   20.0288 C.2     1  UNL1        0.0968
     12 N           4.9507   -1.2709   20.7604 N.2     1  UNL1       -0.1564
     13 N           5.9778   -2.3518   20.9244 N.am    1  UNL1       -0.0790
     14 O          -0.4356    2.7679   19.3730 O.3     1  UNL1       -0.4791
     15 C          -1.3882    3.0731   20.4907 C.3     1  UNL1        0.1687
     16 C          -2.8648    3.1083   20.2292 C.3     1  UNL1        0.0609
     17 C          -3.8174    3.4135   21.3470 C.3     1  UNL1        0.0758
     18 N          -3.2933    3.6837   22.7263 N.3     1  UNL1       -0.2737
     19 C          -1.8168    3.6485   22.9878 C.3     1  UNL1        0.0758
     20 C          -0.8641    3.3432   21.8700 C.3     1  UNL1        0.0609
     21 C          -4.2460    3.9889   23.8441 C.3     1  UNL1        0.0575
     22 C          -5.6986    4.3525   23.9301 C.3     1  UNL1        0.0160
     23 C          -5.5931    4.4206   25.4249 C.3     1  UNL1        0.0028
     24 C          -4.1403    4.0571   25.3388 C.3     1  UNL1        0.0160
@<TRIPOS>BOND
     1     7     8    2
     2     8     9    1
     3     9    10    1
     4    10    11    2
     5    11     1    1
     6     1     2   ar
     7     2     3   ar
     8     3     4   ar
     9     4    14    1
    10    14    15    1
    11    15    16    1
    12    16    17    1
    13    17    18    1
    14    18    21    1
    15    21    22    1
    16    22    23    1
    17    23    24    1
    18    18    19    1
    19    19    20    1
    20     4     5   ar
    21     5     6   ar
    22    11    12    1
    23    12    13    2
    24    13     8    1
    25     6     1   ar
    26    20    15    1
    27    24    21    1
@<TRIPOS>MOLECULE
*****
 24 27 0 0 0
SMALL
GASTEIGER

@<TRIPOS>ATOM
      1 C         -16.7159    1.2230   20.7503 C.ar    1  UNL1        0.0191
      2 C         -16.6141   -0.2478   20.4739 C.ar    1  UNL1        0.0046
      3 C         -15.7343   -0.7434   19.3647 C.ar    1  UNL1        0.0369
      4 C         -14.9563    0.2318   18.5318 C.ar    1  UNL1        0.1384
      5 C         -15.0581    1.7026   18.8082 C.ar    1  UNL1        0.0369
      6 C         -15.9379    2.1982   19.9174 C.ar    1  UNL1        0.0046
      7 O         -20.2351    3.2053   25.1871 O.2     1  UNL1       -0.2711
      8 C         -19.3553    2.7097   24.0779 C.2     1  UNL1        0.2671
      9 C         -17.9915    3.3021   23.8808 C.3     1  UNL1        0.1163
     10 C         -17.1116    2.8065   22.7716 C.2     1  UNL1        0.0043
     11 C         -17.5957    1.7185   21.8595 C.2     1  UNL1        0.0968
     12 N         -18.9596    1.1262   22.0566 N.2     1  UNL1       -0.1564
     13 N         -19.8394    1.6217   23.1658 N.am    1  UNL1       -0.0790
     14 O         -14.0765   -0.2637   17.4226 O.3     1  UNL1       -0.4791
     15 C         -13.2475   -1.4985   17.6176 C.3     1  UNL1        0.1687
     16 C         -13.5325   -2.7288   16.8081 C.3     1  UNL1        0.0609
     17 C         -12.7035   -3.9636   17.0031 C.3     1  UNL1        0.0758
     18 N         -11.5894   -3.9681   18.0075 N.3     1  UNL1       -0.2737
     19 C         -11.3044   -2.7379   18.8170 C.3     1  UNL1        0.0758
     20 C         -12.1334   -1.5030   18.6220 C.3     1  UNL1        0.0609
     21 C         -10.7604   -5.2030   18.2025 C.3     1  UNL1        0.0575
     22 C         -10.7671   -6.5871   17.6247 C.3     1  UNL1        0.0160
     23 C          -9.5880   -6.9492   18.4783 C.3     1  UNL1        0.0028
     24 C          -9.5813   -5.5650   19.0561 C.3     1  UNL1        0.0160
@<TRIPOS>BOND
     1     7     8    2
     2     8     9    1
     3     9    10    1
     4    10    11    2
     5    11     1    1
     6     1     2   ar
     7     2     3   ar
     8     3     4   ar
     9     4    14    1
    10    14    15    1
    11    15    16    1
    12    16    17    1
    13    17    18    1
    14    18    21    1
    15    21    22    1
    16    22    23    1
    17    23    24    1
    18    18    19    1
    19    19    20    1
    20     4     5   ar
    21     5     6   ar
    22    11    12    1
    23    12    13    2
    24    13     8    1
    25     6     1   ar
    26    20    15    1
    27    24    21    1
@<TRIPOS>MOLECULE
*****
 24 27 0 0 0
SMALL
GASTEIGER

@<TRIPOS>ATOM
      1 C           7.4345   -5.1640   25.6992 C.ar    1  UNL1        0.0191
      2 C           8.2558   -5.9545   24.7243 C.ar    1  UNL1        0.0046
      3 C           8.1543   -5.6709   23.2548 C.ar    1  UNL1        0.0369
      4 C           7.2315   -4.5967   22.7604 C.ar    1  UNL1        0.1384
      5 C           6.4102   -3.8062   23.7353 C.ar    1  UNL1        0.0369
      6 C           6.5117   -4.0899   25.2048 C.ar    1  UNL1        0.0046
      7 O           7.8407   -6.2987   31.5769 O.2     1  UNL1       -0.2711
      8 C           7.7391   -6.0150   30.1075 C.2     1  UNL1        0.2671
      9 C           6.6570   -5.1142   29.5906 C.3     1  UNL1        0.1163
     10 C           6.5554   -4.8305   28.1212 C.2     1  UNL1        0.0043
     11 C           7.5361   -5.4477   27.1687 C.2     1  UNL1        0.0968
     12 N           8.6182   -6.3486   27.6856 N.2     1  UNL1       -0.1564
     13 N           8.7198   -6.6322   29.1550 N.am    1  UNL1       -0.0790
     14 O           7.1299   -4.3130   21.2909 O.3     1  UNL1       -0.4791
     15 C           6.0578   -3.3992   20.7758 C.3     1  UNL1        0.1687
     16 C           4.6982   -3.9449   20.4533 C.3     1  UNL1        0.0609
     17 C           3.6261   -3.0311   19.9382 C.3     1  UNL1        0.0758
     18 N           3.9134   -1.5715   19.7456 N.3     1  UNL1       -0.2737
     19 C           5.2729   -1.0258   20.0680 C.3     1  UNL1        0.0758
     20 C           6.3451   -1.9396   20.5832 C.3     1  UNL1        0.0609
     21 C           2.8412   -0.6577   19.2304 C.3     1  UNL1        0.0575
     22 C           1.4404   -0.3237   19.6501 C.3     1  UNL1        0.0160
     23 C           1.3249    0.6347   18.5019 C.3     1  UNL1        0.0028
     24 C           2.7258    0.3007   18.0823 C.3     1  UNL1        0.0160
@<TRIPOS>BOND
     1     7     8    2
     2     8     9    1
     3     9    10    1
     4    10    11    2
     5    11     1    1
     6     1     2   ar
     7     2     3   ar
     8     3     4   ar
     9     4    14    1
    10    14    15    1
    11    15    16    1
    12    16    17    1
    13    17    18    1
    14    18    21    1
    15    21    22    1
    16    22    23    1
    17    23    24    1
    18    18    19    1
    19    19    20    1
    20     4     5   ar
    21     5     6   ar
    22    11    12    1
    23    12    13    2
    24    13     8    1
    25     6     1   ar
    26    20    15    1
    27    24    21    1
@<TRIPOS>MOLECULE
*****
 24 27 0 0 0
SMALL
GASTEIGER

@<TRIPOS>ATOM
      1 C          -1.2324    3.4427   23.0571 C.ar    1  UNL1        0.0191
      2 C          -1.7821    3.2166   21.6799 C.ar    1  UNL1        0.0046
      3 C          -0.8529    2.9164   20.5413 C.ar    1  UNL1        0.0369
      4 C           0.6261    2.8423   20.7799 C.ar    1  UNL1        0.1384
      5 C           1.1759    3.0684   22.1570 C.ar    1  UNL1        0.0369
      6 C           0.2467    3.3685   23.2956 C.ar    1  UNL1        0.0046
      7 O          -4.9493    4.6434   27.6114 O.2     1  UNL1       -0.2711
      8 C          -4.0201    4.3432   26.4728 C.2     1  UNL1        0.2671
      9 C          -2.5387    4.4926   26.6544 C.3     1  UNL1        0.1163
     10 C          -1.6094    4.1925   25.5158 C.2     1  UNL1        0.0043
     11 C          -2.1616    3.7428   24.1957 C.2     1  UNL1        0.0968
     12 N          -3.6430    3.5934   24.0141 N.2     1  UNL1       -0.1564
     13 N          -4.5723    3.8936   25.1527 N.am    1  UNL1       -0.0790
     14 O           1.5554    2.5421   19.6413 O.3     1  UNL1       -0.4791
     15 C           2.1201    1.1621   19.4779 C.3     1  UNL1        0.1687
     16 C           2.9626    0.8333   18.2812 C.3     1  UNL1        0.0609
     17 C           3.5273   -0.5466   18.1178 C.3     1  UNL1        0.0758
     18 N           3.2495   -1.5979   19.1511 N.3     1  UNL1       -0.2737
     19 C           2.4070   -1.2691   20.3478 C.3     1  UNL1        0.0758
     20 C           1.8423    0.1109   20.5112 C.3     1  UNL1        0.0609
     21 C           3.8142   -2.9779   18.9876 C.3     1  UNL1        0.0575
     22 C           3.2729   -4.3693   19.1314 C.3     1  UNL1        0.0160
     23 C           4.6129   -4.9295   18.7565 C.3     1  UNL1        0.0028
     24 C           5.1543   -3.5380   18.6127 C.3     1  UNL1        0.0160
@<TRIPOS>BOND
     1     7     8    2
     2     8     9    1
     3     9    10    1
     4    10    11    2
     5    11     1    1
     6     1     2   ar
     7     2     3   ar
     8     3     4   ar
     9     4    14    1
    10    14    15    1
    11    15    16    1
    12    16    17    1
    13    17    18    1
    14    18    21    1
    15    21    22    1
    16    22    23    1
    17    23    24    1
    18    18    19    1
    19    19    20    1
    20     4     5   ar
    21     5     6   ar
    22    11    12    1
    23    12    13    2
    24    13     8    1
    25     6     1   ar
    26    20    15    1
    27    24    21    1
@<TRIPOS>MOLECULE
*****
 24 27 0 0 0
SMALL
GASTEIGER

@<TRIPOS>ATOM
      1 C           1.2487    1.8686   26.9811 C.ar    1  UNL1        0.0191
      2 C           2.3109    2.5559   26.1753 C.ar    1  UNL1        0.0046
      3 C           2.2870    2.4739   24.6778 C.ar    1  UNL1        0.0369
      4 C           1.2009    1.7046   23.9860 C.ar    1  UNL1        0.1384
      5 C           0.1387    1.0174   24.7918 C.ar    1  UNL1        0.0369
      6 C           0.1626    1.0994   26.2894 C.ar    1  UNL1        0.0046
      7 O           1.3443    2.1966   32.9714 O.2     1  UNL1       -0.2711
      8 C           1.3204    2.1146   31.4738 C.2     1  UNL1        0.2671
      9 C           1.2477    3.3693   30.6551 C.3     1  UNL1        0.1163
     10 C           1.2238    3.2873   29.1575 C.2     1  UNL1        0.0043
     11 C           1.2726    1.9506   28.4787 C.2     1  UNL1        0.0968
     12 N           1.3453    0.6959   29.2974 N.2     1  UNL1       -0.1564
     13 N           1.3692    0.7779   30.7950 N.am    1  UNL1       -0.0790
     14 O           1.1770    1.6226   22.4884 O.3     1  UNL1       -0.4791
     15 C           1.8103    0.4553   21.7910 C.3     1  UNL1        0.1687
     16 C           2.8451   -0.3692   22.4976 C.3     1  UNL1        0.0609
     17 C           3.4784   -1.5365   21.8002 C.3     1  UNL1        0.0758
     18 N           3.0768   -1.8793   20.3962 N.3     1  UNL1       -0.2737
     19 C           2.0420   -1.0548   19.6896 C.3     1  UNL1        0.0758
     20 C           1.4087    0.1126   20.3870 C.3     1  UNL1        0.0609
     21 C           3.7101   -3.0466   19.6988 C.3     1  UNL1        0.0575
     22 C           5.0870   -3.3607   19.1934 C.3     1  UNL1        0.0160
     23 C           4.6056   -4.6975   18.7125 C.3     1  UNL1        0.0028
     24 C           3.2287   -4.3835   19.2180 C.3     1  UNL1        0.0160
@<TRIPOS>BOND
     1     7     8    2
     2     8     9    1
     3     9    10    1
     4    10    11    2
     5    11     1    1
     6     1     2   ar
     7     2     3   ar
     8     3     4   ar
     9     4    14    1
    10    14    15    1
    11    15    16    1
    12    16    17    1
    13    17    18    1
    14    18    21    1
    15    21    22    1
    16    22    23    1
    17    23    24    1
    18    18    19    1
    19    19    20    1
    20     4     5   ar
    21     5     6   ar
    22    11    12    1
    23    12    13    2
    24    13     8    1
    25     6     1   ar
    26    20    15    1
    27    24    21    1
