@<TRIPOS>MOLECULE
*****
 31 34 0 0 0
SMALL
GASTEIGER

@<TRIPOS>ATOM
      1 C         -10.3627  -17.6214   24.2222 C.ar    1  UNL1        0.0284
      2 C          -9.8832  -16.2093   24.0612 C.ar    1  UNL1        0.0027
      3 C          -8.9051  -15.6329   25.0415 C.ar    1  UNL1        0.0339
      4 C          -8.4065  -16.4687   26.1829 C.ar    1  UNL1        0.1311
      5 N          -8.8860  -17.8809   26.3440 N.ar    1  UNL1       -0.2035
      6 C          -9.8641  -18.4572   25.3636 C.ar    1  UNL1        0.2196
      7 F         -10.3436  -19.8694   25.5248 F       1  UNL1       -0.1835
      8 N          -7.4283  -15.8923   27.1633 N.pl3   1  UNL1       -0.3144
      9 H          -7.5784  -16.0012   28.1302 H       1  UNL1        0.1485
     10 C          -6.2217  -15.1500   26.6704 C.3     1  UNL1        0.1169
     11 C          -5.3756  -15.7348   25.5786 C.ar    1  UNL1        0.0166
     12 C          -4.5176  -16.9337   25.8551 C.ar    1  UNL1        0.0004
     13 C          -3.6716  -17.5185   24.7632 C.ar    1  UNL1        0.0228
     14 C          -3.6835  -16.9044   23.3947 C.ar    1  UNL1        0.1526
     15 N          -4.5416  -15.7055   23.1182 N.ar    1  UNL1       -0.2401
     16 C          -5.3876  -15.1208   24.2100 C.ar    1  UNL1        0.0961
     17 C          -2.8375  -17.4892   22.3028 C.3     1  UNL1        0.4348
     18 F          -1.9915  -18.0740   21.2109 F       1  UNL1       -0.1644
     19 F          -3.1959  -18.8705   22.7649 F       1  UNL1       -0.1644
     20 F          -2.4791  -16.1078   21.8407 F       1  UNL1       -0.1644
     21 C         -11.3408  -18.1978   23.2419 C.3     1  UNL1        0.0603
     22 C          -5.9075  -20.1421   22.0209 C.3     1  UNL1        0.0307
     23 C          -7.1529  -19.7364   21.2898 C.2     1  UNL1        0.0074
     24 C          -7.1914  -19.7822   19.7910 C.2     1  UNL1        0.2278
     25 N          -8.4368  -19.3765   19.0600 N.2     1  UNL1       -0.0314
     26 C          -9.6437  -18.9250   19.8277 C.2     1  UNL1        0.3716
     27 N         -11.0021  -18.4684   19.3848 N.2     1  UNL1       -0.0311
     28 C         -11.8032  -18.1405   20.6098 C.2     1  UNL1        0.2319
     29 C         -10.9399  -18.3943   21.8099 C.2     1  UNL1        0.0328
     30 C          -9.6052  -18.8792   21.3265 C.2     1  UNL1        0.0704
     31 C          -8.3598  -19.2849   22.0575 C.3     1  UNL1        0.0598
@<TRIPOS>BOND
     1    22    23    1
     2    23    24    2
     3    24    25    1
     4    25    26    2
     5    26    27    1
     6    27    28    2
     7    28    29    1
     8    29    21    1
     9    21     1    1
    10     1     2   ar
    11     2     3   ar
    12     3     4   ar
    13     4     8    1
    14     8    10    1
    15    10    11    1
    16    11    12   ar
    17    12    13   ar
    18    13    14   ar
    19    14    17    1
    20    17    18    1
    21    17    19    1
    22    17    20    1
    23    14    15   ar
    24    15    16   ar
    25     4     5   ar
    26     5     6   ar
    27     6     7    1
    28    29    30    2
    29    30    31    1
    30    31    23    1
    31    30    26    1
    32     6     1   ar
    33    16    11   ar
    34     8     9    1
@<TRIPOS>MOLECULE
*****
 31 34 0 0 0
SMALL
GASTEIGER

@<TRIPOS>ATOM
      1 C          -6.7643  -20.2813   20.5716 C.ar    1  UNL1        0.0284
      2 C          -7.6081  -19.6453   19.5070 C.ar    1  UNL1        0.0027
      3 C          -8.9735  -19.1235   19.8441 C.ar    1  UNL1        0.0339
      4 C          -9.4950  -19.2378   21.2459 C.ar    1  UNL1        0.1311
      5 N          -8.6511  -19.8739   22.3105 N.ar    1  UNL1       -0.2035
      6 C          -7.2858  -20.3956   21.9734 C.ar    1  UNL1        0.2196
      7 F          -6.4420  -21.0316   23.0381 F       1  UNL1       -0.1835
      8 N         -10.8604  -18.7161   21.5830 N.pl3   1  UNL1       -0.3144
      9 H         -11.4866  -18.4742   20.8628 H       1  UNL1        0.1485
     10 C         -11.2717  -18.5631   23.0173 C.3     1  UNL1        0.1169
     11 C         -10.3822  -17.8320   23.9787 C.ar    1  UNL1        0.0166
     12 C          -9.9117  -16.4442   23.6583 C.ar    1  UNL1        0.0004
     13 C          -9.0222  -15.7131   24.6196 C.ar    1  UNL1        0.0228
     14 C          -8.6030  -16.3698   25.9015 C.ar    1  UNL1        0.1526
     15 N          -9.0735  -17.7577   26.2219 N.ar    1  UNL1       -0.2401
     16 C          -9.9630  -18.4887   25.2605 C.ar    1  UNL1        0.0961
     17 C          -7.7135  -15.6387   26.8628 C.3     1  UNL1        0.4348
     18 F          -6.8240  -14.9076   27.8241 F       1  UNL1       -0.1644
     19 F          -8.4938  -16.2021   28.0133 F       1  UNL1       -0.1644
     20 F          -6.9332  -15.0753   25.7122 F       1  UNL1       -0.1644
     21 C          -5.3990  -20.8030   20.2345 C.3     1  UNL1        0.0603
     22 C          -4.5036  -16.8327   24.5039 C.3     1  UNL1        0.0307
     23 C          -3.8865  -17.2500   23.2019 C.2     1  UNL1        0.0074
     24 C          -2.6667  -16.5434   22.6895 C.2     1  UNL1        0.2278
     25 N          -2.0496  -16.9606   21.3875 N.2     1  UNL1       -0.0314
     26 C          -2.6524  -18.0846   20.5980 C.2     1  UNL1        0.3716
     27 N          -2.2676  -18.7125   19.2912 N.2     1  UNL1       -0.0311
     28 C          -3.2496  -19.8072   18.9960 C.2     1  UNL1        0.2319
     29 C          -4.2414  -19.8559   20.1203 C.2     1  UNL1        0.0328
     30 C          -3.8722  -18.7912   21.1104 C.2     1  UNL1        0.0704
     31 C          -4.4893  -18.3739   22.4124 C.3     1  UNL1        0.0598
@<TRIPOS>BOND
     1    22    23    1
     2    23    24    2
     3    24    25    1
     4    25    26    2
     5    26    27    1
     6    27    28    2
     7    28    29    1
     8    29    21    1
     9    21     1    1
    10     1     2   ar
    11     2     3   ar
    12     3     4   ar
    13     4     8    1
    14     8    10    1
    15    10    11    1
    16    11    12   ar
    17    12    13   ar
    18    13    14   ar
    19    14    17    1
    20    17    18    1
    21    17    19    1
    22    17    20    1
    23    14    15   ar
    24    15    16   ar
    25     4     5   ar
    26     5     6   ar
    27     6     7    1
    28    29    30    2
    29    30    31    1
    30    31    23    1
    31    30    26    1
    32     6     1   ar
    33    16    11   ar
    34     8     9    1
@<TRIPOS>MOLECULE
*****
 31 34 0 0 0
SMALL
GASTEIGER

@<TRIPOS>ATOM
      1 C          -7.7112  -19.6595   19.8855 C.ar    1  UNL1        0.0284
      2 C          -8.8827  -20.2684   19.1736 C.ar    1  UNL1        0.0027
      3 C         -10.2579  -19.7037   19.3732 C.ar    1  UNL1        0.0339
      4 C         -10.4617  -18.5300   20.2848 C.ar    1  UNL1        0.1311
      5 N          -9.2902  -17.9211   20.9967 N.ar    1  UNL1       -0.2035
      6 C          -7.9150  -18.4858   20.7972 C.ar    1  UNL1        0.2196
      7 F          -6.7436  -17.8769   21.5091 F       1  UNL1       -0.1835
      8 N         -11.8369  -17.9653   20.4843 N.pl3   1  UNL1       -0.3144
      9 H         -12.4142  -17.7888   19.7066 H       1  UNL1        0.1485
     10 C         -12.3326  -17.6696   21.8688 C.3     1  UNL1        0.1169
     11 C         -11.3543  -17.4273   22.9798 C.ar    1  UNL1        0.0166
     12 C         -11.0510  -18.5183   23.9634 C.ar    1  UNL1        0.0004
     13 C         -10.0728  -18.2760   25.0744 C.ar    1  UNL1        0.0228
     14 C          -9.3978  -16.9425   25.2018 C.ar    1  UNL1        0.1526
     15 N          -9.7011  -15.8514   24.2181 N.ar    1  UNL1       -0.2401
     16 C         -10.6793  -16.0938   23.1072 C.ar    1  UNL1        0.0961
     17 C          -8.4195  -16.7002   26.3128 C.3     1  UNL1        0.4348
     18 F          -7.4413  -16.4578   27.4237 F       1  UNL1       -0.1644
     19 F          -9.1107  -17.7371   27.1476 F       1  UNL1       -0.1644
     20 F          -7.7283  -15.6632   25.4779 F       1  UNL1       -0.1644
     21 C          -6.3360  -20.2242   19.6860 C.3     1  UNL1        0.0603
     22 C          -1.2939  -17.7077   17.9436 C.3     1  UNL1        0.0307
     23 C          -1.9212  -18.2258   19.2037 C.2     1  UNL1        0.0074
     24 C          -1.1691  -18.1561   20.4996 C.2     1  UNL1        0.2278
     25 N          -1.7964  -18.6743   21.7598 N.2     1  UNL1       -0.0314
     26 C          -3.1759  -19.2621   21.7240 C.2     1  UNL1        0.3716
     27 N          -4.0455  -19.8478   22.7968 N.2     1  UNL1       -0.0311
     28 C          -5.3351  -20.2796   22.1639 C.2     1  UNL1        0.2319
     29 C          -5.2626  -19.9606   20.7000 C.2     1  UNL1        0.0328
     30 C          -3.9281  -19.3318   20.4282 C.2     1  UNL1        0.0704
     31 C          -3.3008  -18.8136   19.1680 C.3     1  UNL1        0.0598
@<TRIPOS>BOND
     1    22    23    1
     2    23    24    2
     3    24    25    1
     4    25    26    2
     5    26    27    1
     6    27    28    2
     7    28    29    1
     8    29    21    1
     9    21     1    1
    10     1     2   ar
    11     2     3   ar
    12     3     4   ar
    13     4     8    1
    14     8    10    1
    15    10    11    1
    16    11    12   ar
    17    12    13   ar
    18    13    14   ar
    19    14    17    1
    20    17    18    1
    21    17    19    1
    22    17    20    1
    23    14    15   ar
    24    15    16   ar
    25     4     5   ar
    26     5     6   ar
    27     6     7    1
    28    29    30    2
    29    30    31    1
    30    31    23    1
    31    30    26    1
    32     6     1   ar
    33    16    11   ar
    34     8     9    1
@<TRIPOS>MOLECULE
*****
 31 34 0 0 0
SMALL
GASTEIGER

@<TRIPOS>ATOM
      1 C           1.4970    1.0569   18.8125 C.ar    1  UNL1        0.0284
      2 C           1.0769    2.4703   18.5372 C.ar    1  UNL1        0.0027
      3 C          -0.0495    3.0830   19.3154 C.ar    1  UNL1        0.0339
      4 C          -0.7560    2.2824   20.3689 C.ar    1  UNL1        0.1311
      5 N          -0.3359    0.8689   20.6442 N.ar    1  UNL1       -0.2035
      6 C           0.7905    0.2561   19.8660 C.ar    1  UNL1        0.2196
      7 F           1.2105   -1.1573   20.1413 F       1  UNL1       -0.1835
      8 N          -1.8825    2.8952   21.1471 N.pl3   1  UNL1       -0.3144
      9 H          -1.7512    3.1430   22.0908 H       1  UNL1        0.1485
     10 C          -3.2089    3.1304   20.4874 C.3     1  UNL1        0.1169
     11 C          -4.3854    3.5733   21.3057 C.ar    1  UNL1        0.0166
     12 C          -4.3695    3.4026   22.7958 C.ar    1  UNL1        0.0004
     13 C          -5.5461    3.8456   23.6141 C.ar    1  UNL1        0.0228
     14 C          -6.7386    4.4591   22.9422 C.ar    1  UNL1        0.1526
     15 N          -6.7545    4.6298   21.4520 N.ar    1  UNL1       -0.2401
     16 C          -5.5780    4.1868   20.6338 C.ar    1  UNL1        0.0961
     17 C          -7.9151    4.9020   23.7605 C.3     1  UNL1        0.4348
     18 F          -9.0916    5.3450   24.5788 F       1  UNL1       -0.1644
     19 F          -7.2392    6.2154   24.0215 F       1  UNL1       -0.1644
     20 F          -8.5910    3.5886   23.4994 F       1  UNL1       -0.1644
     21 C           2.6234    0.4441   18.0343 C.3     1  UNL1        0.0603
     22 C           4.3077   -5.1287   18.9827 C.3     1  UNL1        0.0307
     23 C           4.8207   -3.7384   19.2154 C.2     1  UNL1        0.0074
     24 C           6.1493   -3.5306   19.8800 C.2     1  UNL1        0.2278
     25 N           6.6622   -2.1404   20.1127 N.2     1  UNL1       -0.0314
     26 C           5.8465   -0.9580   19.6810 C.2     1  UNL1        0.3716
     27 N           6.0908    0.5189   19.7770 N.2     1  UNL1       -0.0311
     28 C           4.9132    1.2239   19.1719 C.2     1  UNL1        0.2319
     29 C           3.9410    0.1827   18.7018 C.2     1  UNL1        0.0328
     30 C           4.5179   -1.1658   19.0164 C.2     1  UNL1        0.0704
     31 C           4.0050   -2.5560   18.7837 C.3     1  UNL1        0.0598
@<TRIPOS>BOND
     1    22    23    1
     2    23    24    2
     3    24    25    1
     4    25    26    2
     5    26    27    1
     6    27    28    2
     7    28    29    1
     8    29    21    1
     9    21     1    1
    10     1     2   ar
    11     2     3   ar
    12     3     4   ar
    13     4     8    1
    14     8    10    1
    15    10    11    1
    16    11    12   ar
    17    12    13   ar
    18    13    14   ar
    19    14    17    1
    20    17    18    1
    21    17    19    1
    22    17    20    1
    23    14    15   ar
    24    15    16   ar
    25     4     5   ar
    26     5     6   ar
    27     6     7    1
    28    29    30    2
    29    30    31    1
    30    31    23    1
    31    30    26    1
    32     6     1   ar
    33    16    11   ar
    34     8     9    1
@<TRIPOS>MOLECULE
*****
 31 34 0 0 0
SMALL
GASTEIGER

@<TRIPOS>ATOM
      1 C           1.4419    0.8781   18.7726 C.ar    1  UNL1        0.0284
      2 C           1.0944    2.3199   18.5484 C.ar    1  UNL1        0.0027
      3 C           0.0980    2.9988   19.4408 C.ar    1  UNL1        0.0339
      4 C          -0.5510    2.2358   20.5573 C.ar    1  UNL1        0.1311
      5 N          -0.2035    0.7939   20.7815 N.ar    1  UNL1       -0.2035
      6 C           0.7930    0.1150   19.8891 C.ar    1  UNL1        0.2196
      7 F           1.1404   -1.3269   20.1134 F       1  UNL1       -0.1835
      8 N          -1.5474    2.9146   21.4496 N.pl3   1  UNL1       -0.3144
      9 H          -2.5089    2.8600   21.2450 H       1  UNL1        0.1485
     10 C          -1.0790    3.6768   22.6536 C.3     1  UNL1        0.1169
     11 C          -0.9027    2.9715   23.9657 C.ar    1  UNL1        0.0166
     12 C           0.2114    1.9828   24.1420 C.ar    1  UNL1        0.0004
     13 C           0.3878    1.2776   25.4541 C.ar    1  UNL1        0.0228
     14 C          -0.5500    1.5611   26.5900 C.ar    1  UNL1        0.1526
     15 N          -1.6642    2.5499   26.4136 N.ar    1  UNL1       -0.2401
     16 C          -1.8405    3.2551   25.1016 C.ar    1  UNL1        0.0961
     17 C          -0.3737    0.8559   27.9021 C.3     1  UNL1        0.4348
     18 F          -0.1974    0.1507   29.2141 F       1  UNL1       -0.1644
     19 F           1.0489    0.5440   27.5432 F       1  UNL1       -0.1644
     20 F          -1.7964    1.1679   28.2609 F       1  UNL1       -0.1644
     21 C           2.4384    0.1992   17.8803 C.3     1  UNL1        0.0603
     22 C           3.6119   -5.2961   19.6737 C.3     1  UNL1        0.0307
     23 C           4.3105   -3.9743   19.5516 C.2     1  UNL1        0.0074
     24 C           5.7450   -3.8427   19.9698 C.2     1  UNL1        0.2278
     25 N           6.4435   -2.5209   19.8477 N.2     1  UNL1       -0.0314
     26 C           5.7076   -1.3308   19.3074 C.2     1  UNL1        0.3716
     27 N           6.1304    0.0892   19.0729 N.2     1  UNL1       -0.0311
     28 C           4.9572    0.8352   18.5097 C.2     1  UNL1        0.2319
     29 C           3.8093   -0.1238   18.3962 C.2     1  UNL1        0.0328
     30 C           4.2732   -1.4624   18.8892 C.2     1  UNL1        0.0704
     31 C           3.5746   -2.7842   19.0113 C.3     1  UNL1        0.0598
@<TRIPOS>BOND
     1    22    23    1
     2    23    24    2
     3    24    25    1
     4    25    26    2
     5    26    27    1
     6    27    28    2
     7    28    29    1
     8    29    21    1
     9    21     1    1
    10     1     2   ar
    11     2     3   ar
    12     3     4   ar
    13     4     8    1
    14     8    10    1
    15    10    11    1
    16    11    12   ar
    17    12    13   ar
    18    13    14   ar
    19    14    17    1
    20    17    18    1
    21    17    19    1
    22    17    20    1
    23    14    15   ar
    24    15    16   ar
    25     4     5   ar
    26     5     6   ar
    27     6     7    1
    28    29    30    2
    29    30    31    1
    30    31    23    1
    31    30    26    1
    32     6     1   ar
    33    16    11   ar
    34     8     9    1
@<TRIPOS>MOLECULE
*****
 31 34 0 0 0
SMALL
GASTEIGER

@<TRIPOS>ATOM
      1 C           5.3317   -3.6834   21.8189 C.ar    1  UNL1        0.0284
      2 C           4.6612   -3.1612   23.0549 C.ar    1  UNL1        0.0027
      3 C           5.4729   -2.8681   24.2817 C.ar    1  UNL1        0.0339
      4 C           6.9553   -3.0971   24.2726 C.ar    1  UNL1        0.1311
      5 N           7.6259   -3.6193   23.0365 N.ar    1  UNL1       -0.2035
      6 C           6.8142   -3.9124   21.8097 C.ar    1  UNL1        0.2196
      7 F           7.4848   -4.4346   20.5738 F       1  UNL1       -0.1835
      8 N           7.7670   -2.8040   25.4994 N.pl3   1  UNL1       -0.3144
      9 H           8.1976   -1.9251   25.6064 H       1  UNL1        0.1485
     10 C           7.9228   -3.8499   26.5632 C.3     1  UNL1        0.1169
     11 C           7.3854   -3.6034   27.9418 C.ar    1  UNL1        0.0166
     12 C           7.5669   -4.6370   29.0135 C.ar    1  UNL1        0.0004
     13 C           7.0294   -4.3905   30.3920 C.ar    1  UNL1        0.0228
     14 C           6.3105   -3.1103   30.6989 C.ar    1  UNL1        0.1526
     15 N           6.1290   -2.0766   29.6271 N.ar    1  UNL1       -0.2401
     16 C           6.6664   -2.3232   28.2487 C.ar    1  UNL1        0.0961
     17 C           5.7731   -2.8638   32.0774 C.3     1  UNL1        0.4348
     18 F           5.2356   -2.6173   33.4560 F       1  UNL1       -0.1644
     19 F           5.2059   -1.5521   31.6218 F       1  UNL1       -0.1644
     20 F           6.3402   -4.1756   32.5331 F       1  UNL1       -0.1644
     21 C           4.5200   -3.9765   20.5921 C.3     1  UNL1        0.0603
     22 C           0.3562    0.2009   20.5289 C.3     1  UNL1        0.0307
     23 C           1.5190   -0.2476   19.6942 C.2     1  UNL1        0.0074
     24 C           1.8593    0.4818   18.4285 C.2     1  UNL1        0.2278
     25 N           3.0221    0.0333   17.5938 N.2     1  UNL1       -0.0314
     26 C           3.8447   -1.1447   18.0249 C.2     1  UNL1        0.3716
     27 N           5.0400   -1.8124   17.4122 N.2     1  UNL1       -0.0311
     28 C           5.4384   -2.9545   18.2993 C.2     1  UNL1        0.2319
     29 C           4.4894   -2.9926   19.4602 C.2     1  UNL1        0.0328
     30 C           3.5044   -1.8741   19.2906 C.2     1  UNL1        0.0704
     31 C           2.3416   -1.4255   20.1253 C.3     1  UNL1        0.0598
@<TRIPOS>BOND
     1    22    23    1
     2    23    24    2
     3    24    25    1
     4    25    26    2
     5    26    27    1
     6    27    28    2
     7    28    29    1
     8    29    21    1
     9    21     1    1
    10     1     2   ar
    11     2     3   ar
    12     3     4   ar
    13     4     8    1
    14     8    10    1
    15    10    11    1
    16    11    12   ar
    17    12    13   ar
    18    13    14   ar
    19    14    17    1
    20    17    18    1
    21    17    19    1
    22    17    20    1
    23    14    15   ar
    24    15    16   ar
    25     4     5   ar
    26     5     6   ar
    27     6     7    1
    28    29    30    2
    29    30    31    1
    30    31    23    1
    31    30    26    1
    32     6     1   ar
    33    16    11   ar
    34     8     9    1
@<TRIPOS>MOLECULE
*****
 31 34 0 0 0
SMALL
GASTEIGER

@<TRIPOS>ATOM
      1 C          -1.0827    3.2009   23.5775 C.ar    1  UNL1        0.0284
      2 C           0.1880    2.4054   23.5276 C.ar    1  UNL1        0.0027
      3 C           0.6612    1.8285   22.2264 C.ar    1  UNL1        0.0339
      4 C          -0.1363    2.0470   20.9749 C.ar    1  UNL1        0.1311
      5 N          -1.4071    2.8425   21.0248 N.ar    1  UNL1       -0.2035
      6 C          -1.8803    3.4195   22.3260 C.ar    1  UNL1        0.2196
      7 F          -3.1510    4.2149   22.3757 F       1  UNL1       -0.1835
      8 N           0.3369    1.4701   19.6737 N.pl3   1  UNL1       -0.3144
      9 H          -0.3163    1.1428   19.0138 H       1  UNL1        0.1485
     10 C           1.8053    1.3918   19.3779 C.3     1  UNL1        0.1169
     11 C           2.4626    0.0566   19.1909 C.ar    1  UNL1        0.0166
     12 C           2.3238   -1.0019   20.2446 C.ar    1  UNL1        0.0004
     13 C           2.9811   -2.3372   20.0577 C.ar    1  UNL1        0.0228
     14 C           3.7772   -2.6141   18.8170 C.ar    1  UNL1        0.1526
     15 N           3.9161   -1.5556   17.7632 N.ar    1  UNL1       -0.2401
     16 C           3.2588   -0.2204   17.9502 C.ar    1  UNL1        0.0961
     17 C           4.4345   -3.9494   18.6300 C.3     1  UNL1        0.4348
     18 F           5.0918   -5.2847   18.4431 F       1  UNL1       -0.1644
     19 F           5.7426   -3.2674   18.3583 F       1  UNL1       -0.1644
     20 F           3.1263   -4.6313   18.9017 F       1  UNL1       -0.1644
     21 C          -1.5559    3.7778   24.8787 C.3     1  UNL1        0.0603
     22 C          -1.4079   -0.5444   28.8897 C.3     1  UNL1        0.0307
     23 C          -0.7377    0.7703   28.6206 C.2     1  UNL1        0.0074
     24 C           0.3111    1.2840   29.5618 C.2     1  UNL1        0.2278
     25 N           0.9813    2.5987   29.2927 N.2     1  UNL1       -0.0314
     26 C           0.6026    3.3997   28.0823 C.2     1  UNL1        0.3716
     27 N           1.0867    4.7201   27.5608 N.2     1  UNL1       -0.0311
     28 C           0.3371    5.0225   26.2972 C.2     1  UNL1        0.2319
     29 C          -0.6104    3.8889   26.0378 C.2     1  UNL1        0.0328
     30 C          -0.4463    2.8859   27.1411 C.2     1  UNL1        0.0704
     31 C          -1.1164    1.5712   27.4102 C.3     1  UNL1        0.0598
@<TRIPOS>BOND
     1    22    23    1
     2    23    24    2
     3    24    25    1
     4    25    26    2
     5    26    27    1
     6    27    28    2
     7    28    29    1
     8    29    21    1
     9    21     1    1
    10     1     2   ar
    11     2     3   ar
    12     3     4   ar
    13     4     8    1
    14     8    10    1
    15    10    11    1
    16    11    12   ar
    17    12    13   ar
    18    13    14   ar
    19    14    17    1
    20    17    18    1
    21    17    19    1
    22    17    20    1
    23    14    15   ar
    24    15    16   ar
    25     4     5   ar
    26     5     6   ar
    27     6     7    1
    28    29    30    2
    29    30    31    1
    30    31    23    1
    31    30    26    1
    32     6     1   ar
    33    16    11   ar
    34     8     9    1
@<TRIPOS>MOLECULE
*****
 31 34 0 0 0
SMALL
GASTEIGER

@<TRIPOS>ATOM
      1 C          -5.9147  -19.6746   21.5520 C.ar    1  UNL1        0.0284
      2 C          -6.1793  -20.6245   20.4217 C.ar    1  UNL1        0.0027
      3 C          -7.3379  -20.3880   19.4988 C.ar    1  UNL1        0.0339
      4 C          -8.2318  -19.2014   19.7061 C.ar    1  UNL1        0.1311
      5 N          -7.9671  -18.2514   20.8364 N.ar    1  UNL1       -0.2035
      6 C          -6.8086  -18.4880   21.7594 C.ar    1  UNL1        0.2196
      7 F          -6.5440  -17.5380   22.8896 F       1  UNL1       -0.1835
      8 N          -9.3903  -18.9649   18.7832 N.pl3   1  UNL1       -0.3144
      9 H          -9.2543  -18.4817   17.9362 H       1  UNL1        0.1485
     10 C         -10.7561  -19.4644   19.1506 C.3     1  UNL1        0.1169
     11 C         -11.3045  -19.2075   20.5229 C.ar    1  UNL1        0.0166
     12 C         -10.9334  -20.1120   21.6605 C.ar    1  UNL1        0.0004
     13 C         -11.4818  -19.8550   23.0327 C.ar    1  UNL1        0.0228
     14 C         -12.4015  -18.6935   23.2675 C.ar    1  UNL1        0.1526
     15 N         -12.7727  -17.7890   22.1299 N.ar    1  UNL1       -0.2401
     16 C         -12.2242  -18.0460   20.7577 C.ar    1  UNL1        0.0961
     17 C         -12.9499  -18.4366   24.6398 C.3     1  UNL1        0.4348
     18 F         -13.4984  -18.1797   26.0121 F       1  UNL1       -0.1644
     19 F         -11.7113  -19.0274   25.2454 F       1  UNL1       -0.1644
     20 F         -14.1886  -17.8458   24.0341 F       1  UNL1       -0.1644
     21 C          -4.7561  -19.9112   22.4749 C.3     1  UNL1        0.0603
     22 C          -1.8693  -17.9228   17.7311 C.3     1  UNL1        0.0307
     23 C          -1.9013  -17.6919   19.2128 C.2     1  UNL1        0.0074
     24 C          -0.9828  -16.6821   19.8346 C.2     1  UNL1        0.2278
     25 N          -1.0148  -16.4512   21.3163 N.2     1  UNL1       -0.0314
     26 C          -1.9654  -17.2301   22.1764 C.2     1  UNL1        0.3716
     27 N          -2.2211  -17.2190   23.6544 N.2     1  UNL1       -0.0311
     28 C          -3.2976  -18.2220   23.9461 C.2     1  UNL1        0.2319
     29 C          -3.7073  -18.8530   22.6484 C.2     1  UNL1        0.0328
     30 C          -2.8839  -18.2399   21.5547 C.2     1  UNL1        0.0704
     31 C          -2.8518  -18.4708   20.0729 C.3     1  UNL1        0.0598
@<TRIPOS>BOND
     1    22    23    1
     2    23    24    2
     3    24    25    1
     4    25    26    2
     5    26    27    1
     6    27    28    2
     7    28    29    1
     8    29    21    1
     9    21     1    1
    10     1     2   ar
    11     2     3   ar
    12     3     4   ar
    13     4     8    1
    14     8    10    1
    15    10    11    1
    16    11    12   ar
    17    12    13   ar
    18    13    14   ar
    19    14    17    1
    20    17    18    1
    21    17    19    1
    22    17    20    1
    23    14    15   ar
    24    15    16   ar
    25     4     5   ar
    26     5     6   ar
    27     6     7    1
    28    29    30    2
    29    30    31    1
    30    31    23    1
    31    30    26    1
    32     6     1   ar
    33    16    11   ar
    34     8     9    1
@<TRIPOS>MOLECULE
*****
 31 34 0 0 0
SMALL
GASTEIGER

@<TRIPOS>ATOM
      1 C           5.7351   -3.9114   21.3787 C.ar    1  UNL1        0.0284
      2 C           7.1513   -4.2896   21.0606 C.ar    1  UNL1        0.0027
      3 C           8.1960   -4.2572   22.1365 C.ar    1  UNL1        0.0339
      4 C           7.8245   -3.8466   23.5306 C.ar    1  UNL1        0.1311
      5 N           6.4082   -3.4683   23.8486 N.ar    1  UNL1       -0.2035
      6 C           5.3635   -3.5007   22.7728 C.ar    1  UNL1        0.2196
      7 F           3.9473   -3.1224   23.0910 F       1  UNL1       -0.1835
      8 N           8.8693   -3.8142   24.6064 N.pl3   1  UNL1       -0.3144
      9 H           9.4458   -3.0228   24.7090 H       1  UNL1        0.1485
     10 C           9.0355   -4.9875   25.5260 C.3     1  UNL1        0.1169
     11 C           8.5023   -4.9242   26.9266 C.ar    1  UNL1        0.0166
     12 C           7.0412   -5.1458   27.1836 C.ar    1  UNL1        0.0004
     13 C           6.5080   -5.0825   28.5842 C.ar    1  UNL1        0.0228
     14 C           7.4359   -4.7975   29.7278 C.ar    1  UNL1        0.1526
     15 N           8.8970   -4.5759   29.4707 N.ar    1  UNL1       -0.2401
     16 C           9.4302   -4.6392   28.0702 C.ar    1  UNL1        0.0961
     17 C           6.9027   -4.7342   31.1284 C.3     1  UNL1        0.4348
     18 F           6.3695   -4.6709   32.5290 F       1  UNL1       -0.1644
     19 F           7.6550   -5.9857   31.4714 F       1  UNL1       -0.1644
     20 F           6.1503   -3.4826   30.7853 F       1  UNL1       -0.1644
     21 C           4.6904   -3.9437   20.3029 C.3     1  UNL1        0.0603
     22 C           0.3806    0.0755   20.5539 C.3     1  UNL1        0.0307
     23 C           1.5729   -0.2506   19.7042 C.2     1  UNL1        0.0074
     24 C           1.9082    0.6083   18.5211 C.2     1  UNL1        0.2278
     25 N           3.1005    0.2822   17.6714 N.2     1  UNL1       -0.0314
     26 C           3.9575   -0.9029   18.0047 C.2     1  UNL1        0.3716
     27 N           5.1863   -1.4673   17.3556 N.2     1  UNL1       -0.0311
     28 C           5.6105   -2.6751   18.1375 C.2     1  UNL1        0.2319
     29 C           4.6437   -2.8572   19.2698 C.2     1  UNL1        0.0328
     30 C           3.6221   -1.7618   19.1877 C.2     1  UNL1        0.0704
     31 C           2.4298   -1.4357   20.0375 C.3     1  UNL1        0.0598
@<TRIPOS>BOND
     1    22    23    1
     2    23    24    2
     3    24    25    1
     4    25    26    2
     5    26    27    1
     6    27    28    2
     7    28    29    1
     8    29    21    1
     9    21     1    1
    10     1     2   ar
    11     2     3   ar
    12     3     4   ar
    13     4     8    1
    14     8    10    1
    15    10    11    1
    16    11    12   ar
    17    12    13   ar
    18    13    14   ar
    19    14    17    1
    20    17    18    1
    21    17    19    1
    22    17    20    1
    23    14    15   ar
    24    15    16   ar
    25     4     5   ar
    26     5     6   ar
    27     6     7    1
    28    29    30    2
    29    30    31    1
    30    31    23    1
    31    30    26    1
    32     6     1   ar
    33    16    11   ar
    34     8     9    1
