@<TRIPOS>MOLECULE
*****
 31 35 0 0 0
SMALL
GASTEIGER

@<TRIPOS>ATOM
      1 N          -3.6138    4.4902   23.3950 N.pl3   1  UNL1       -0.2781
      2 C          -4.0079    4.1053   21.9997 C.3     1  UNL1        0.0950
      3 C          -2.7632    3.7216   21.2559 C.3     1  UNL1        0.0388
      4 C          -2.2375    3.2465   19.9337 C.3     1  UNL1        0.0741
      5 N          -0.7492    3.1007   20.0520 N.3     1  UNL1       -0.2688
      6 C          -0.3553    3.4856   21.4472 C.3     1  UNL1        0.0741
      7 C          -1.5999    3.8693   22.1912 C.3     1  UNL1        0.0388
      8 C          -2.1256    4.3444   23.5133 C.3     1  UNL1        0.0950
      9 C          -6.4061    5.8447   26.6536 C.ar    1  UNL1        0.0937
     10 C          -6.7658    6.0721   25.2152 C.ar    1  UNL1        0.1079
     11 N          -5.8350    5.6206   24.1290 N.ar    1  UNL1       -0.2119
     12 C          -4.5446    4.9417   24.4812 C.ar    1  UNL1        0.2202
     13 N          -4.1850    4.7144   25.9196 N.ar    1  UNL1       -0.2119
     14 C          -5.1157    5.1659   27.0058 C.ar    1  UNL1        0.1079
     15 O          -8.4415    7.2617   27.4276 O.2     1  UNL1       -0.2680
     16 C          -7.3369    6.2962   27.7398 C.2     1  UNL1        0.2708
     17 N          -7.1629    5.7822   29.1382 N.am    1  UNL1       -0.1934
     18 O          -8.0937    6.2337   30.2244 O.3     1  UNL1       -0.2949
     19 H          -6.4379    5.1485   29.3431 H       1  UNL1        0.1825
     20 H          -8.7444    6.8518   29.8564 H       1  UNL1        0.2414
     21 C           0.1815    2.6492   18.9658 C.3     1  UNL1        0.0991
     22 C           0.9704    1.3842   19.1319 C.ar    1  UNL1       -0.0061
     23 C           0.5407    0.3591   20.1392 C.ar    1  UNL1       -0.0029
     24 C           1.3295   -0.9058   20.3053 C.ar    1  UNL1       -0.0003
     25 C           2.5481   -1.1458   19.4642 C.ar    1  UNL1       -0.0000
     26 C           3.3369   -2.4107   19.6303 C.ar    1  UNL1       -0.0000
     27 C           4.5555   -2.6506   18.7892 C.ar    1  UNL1       -0.0000
     28 C           4.9852   -1.6255   17.7819 C.ar    1  UNL1       -0.0000
     29 C           4.1964   -0.3606   17.6158 C.ar    1  UNL1       -0.0000
     30 C           2.9779   -0.1207   18.4569 C.ar    1  UNL1       -0.0003
     31 C           2.1890    1.1443   18.2908 C.ar    1  UNL1       -0.0029
@<TRIPOS>BOND
     1    15    16    2
     2    16    17   am
     3    17    18    1
     4    16     9    1
     5     9    10   ar
     6    10    11   ar
     7    11    12   ar
     8    12     1    1
     9     1     2    1
    10     3     2    1
    11     3     4    1
    12     4     5    1
    13     5    21    1
    14    21    22    1
    15    22    23   ar
    16    23    24   ar
    17    24    25   ar
    18    25    26   ar
    19    26    27   ar
    20    27    28   ar
    21    28    29   ar
    22    29    30   ar
    23    30    31   ar
    24     5     6    1
    25     7     6    1
    26     7     8    1
    27    12    13   ar
    28    13    14   ar
    29    14     9   ar
    30     8     1    1
    31     7     3    1
    32    31    22   ar
    33    30    25   ar
    34    17    19    1
    35    18    20    1
@<TRIPOS>MOLECULE
*****
 31 35 0 0 0
SMALL
GASTEIGER

@<TRIPOS>ATOM
      1 N           6.3765   -3.4914   24.1830 N.pl3   1  UNL1       -0.2781
      2 C           6.0947   -2.5840   25.3438 C.3     1  UNL1        0.0950
      3 C           6.4544   -3.3163   26.6025 C.3     1  UNL1        0.0388
      4 C           6.5026   -3.2080   28.0978 C.3     1  UNL1        0.0741
      5 N           7.0365   -4.5010   28.6392 N.3     1  UNL1       -0.2688
      6 C           7.3183   -5.4083   27.4784 C.3     1  UNL1        0.0741
      7 C           6.9586   -4.6761   26.2197 C.3     1  UNL1        0.0388
      8 C           6.9104   -4.7844   24.7244 C.3     1  UNL1        0.0950
      9 C           5.7332   -2.5072   19.8394 C.ar    1  UNL1        0.0937
     10 C           5.8559   -3.9376   20.2741 C.ar    1  UNL1        0.1079
     11 N           6.0704   -4.2657   21.7220 N.ar    1  UNL1       -0.2119
     12 C           6.1621   -3.1633   22.7351 C.ar    1  UNL1        0.2202
     13 N           6.0393   -1.7330   22.3004 N.ar    1  UNL1       -0.2119
     14 C           5.8249   -1.4049   20.8525 C.ar    1  UNL1        0.1079
     15 O           6.6955   -2.0382   17.4721 O.2     1  UNL1       -0.2680
     16 C           5.5187   -2.1791   18.3915 C.2     1  UNL1        0.2708
     17 N           4.1274   -1.9920   17.8630 N.am    1  UNL1       -0.1934
     18 O           3.9130   -1.6640   16.4151 O.3     1  UNL1       -0.2949
     19 H           3.3550   -2.0845   18.4664 H       1  UNL1        0.1825
     20 H           4.7707   -1.6095   15.9654 H       1  UNL1        0.2414
     21 C           7.2510   -4.8291   30.0871 C.3     1  UNL1        0.0991
     22 C           7.2338   -3.7360   31.1143 C.ar    1  UNL1       -0.0061
     23 C           8.4876   -2.9693   31.4145 C.ar    1  UNL1       -0.0029
     24 C           8.4705   -1.8763   32.4417 C.ar    1  UNL1       -0.0003
     25 C           7.1996   -1.5500   33.1686 C.ar    1  UNL1       -0.0000
     26 C           7.1825   -0.4570   34.1957 C.ar    1  UNL1       -0.0000
     27 C           5.9116   -0.1307   34.9225 C.ar    1  UNL1       -0.0000
     28 C           4.6578   -0.8974   34.6222 C.ar    1  UNL1       -0.0000
     29 C           4.6749   -1.9904   33.5951 C.ar    1  UNL1       -0.0000
     30 C           5.9458   -2.3167   32.8683 C.ar    1  UNL1       -0.0003
     31 C           5.9629   -3.4098   31.8411 C.ar    1  UNL1       -0.0029
@<TRIPOS>BOND
     1    15    16    2
     2    16    17   am
     3    17    18    1
     4    16     9    1
     5     9    10   ar
     6    10    11   ar
     7    11    12   ar
     8    12     1    1
     9     1     2    1
    10     3     2    1
    11     3     4    1
    12     4     5    1
    13     5    21    1
    14    21    22    1
    15    22    23   ar
    16    23    24   ar
    17    24    25   ar
    18    25    26   ar
    19    26    27   ar
    20    27    28   ar
    21    28    29   ar
    22    29    30   ar
    23    30    31   ar
    24     5     6    1
    25     7     6    1
    26     7     8    1
    27    12    13   ar
    28    13    14   ar
    29    14     9   ar
    30     8     1    1
    31     7     3    1
    32    31    22   ar
    33    30    25   ar
    34    17    19    1
    35    18    20    1
@<TRIPOS>MOLECULE
*****
 31 35 0 0 0
SMALL
GASTEIGER

@<TRIPOS>ATOM
      1 N          -2.0213    3.4954   21.1264 N.pl3   1  UNL1       -0.2781
      2 C          -1.7707    3.5221   19.6476 C.3     1  UNL1        0.0950
      3 C          -0.3167    3.2336   19.4187 C.3     1  UNL1        0.0388
      4 C           0.7368    3.0719   18.3633 C.3     1  UNL1        0.0741
      5 N           2.0361    2.7670   19.0482 N.3     1  UNL1       -0.2688
      6 C           1.7855    2.7403   20.5268 C.3     1  UNL1        0.0741
      7 C           0.3314    3.0288   20.7559 C.3     1  UNL1        0.0388
      8 C          -0.7221    3.1905   21.8112 C.3     1  UNL1        0.0950
      9 C          -5.9763    4.2055   23.1522 C.ar    1  UNL1        0.0937
     10 C          -5.9070    4.1035   21.6572 C.ar    1  UNL1        0.1079
     11 N          -4.5887    3.8669   20.9820 N.ar    1  UNL1       -0.2119
     12 C          -3.3396    3.7321   21.8017 C.ar    1  UNL1        0.2202
     13 N          -3.4090    3.8340   23.2966 N.ar    1  UNL1       -0.2119
     14 C          -4.7273    4.0707   23.9718 C.ar    1  UNL1        0.1079
     15 O          -7.4030    5.4578   24.9260 O.2     1  UNL1       -0.2680
     16 C          -7.2946    4.4422   23.8275 C.2     1  UNL1        0.2708
     17 N          -8.5046    3.6632   23.4042 N.am    1  UNL1       -0.1934
     18 O          -9.8230    3.8999   24.0794 O.3     1  UNL1       -0.2949
     19 H          -8.4335    2.9966   22.6832 H       1  UNL1        0.1825
     20 H          -9.7194    4.5826   24.7606 H       1  UNL1        0.2414
     21 C           3.3544    2.5303   18.3729 C.3     1  UNL1        0.0991
     22 C           3.9319    1.1469   18.3192 C.ar    1  UNL1       -0.0061
     23 C           5.2706    0.9172   17.6828 C.ar    1  UNL1       -0.0029
     24 C           5.8481   -0.4661   17.6291 C.ar    1  UNL1       -0.0003
     25 C           5.0869   -1.6198   18.2118 C.ar    1  UNL1       -0.0000
     26 C           5.6643   -3.0031   18.1581 C.ar    1  UNL1       -0.0000
     27 C           4.9031   -4.1568   18.7408 C.ar    1  UNL1       -0.0000
     28 C           3.5644   -3.9271   19.3772 C.ar    1  UNL1       -0.0000
     29 C           2.9869   -2.5438   19.4310 C.ar    1  UNL1       -0.0000
     30 C           3.7481   -1.3901   18.8482 C.ar    1  UNL1       -0.0003
     31 C           3.1707   -0.0067   18.9019 C.ar    1  UNL1       -0.0029
@<TRIPOS>BOND
     1    15    16    2
     2    16    17   am
     3    17    18    1
     4    16     9    1
     5     9    10   ar
     6    10    11   ar
     7    11    12   ar
     8    12     1    1
     9     1     2    1
    10     3     2    1
    11     3     4    1
    12     4     5    1
    13     5    21    1
    14    21    22    1
    15    22    23   ar
    16    23    24   ar
    17    24    25   ar
    18    25    26   ar
    19    26    27   ar
    20    27    28   ar
    21    28    29   ar
    22    29    30   ar
    23    30    31   ar
    24     5     6    1
    25     7     6    1
    26     7     8    1
    27    12    13   ar
    28    13    14   ar
    29    14     9   ar
    30     8     1    1
    31     7     3    1
    32    31    22   ar
    33    30    25   ar
    34    17    19    1
    35    18    20    1
@<TRIPOS>MOLECULE
*****
 31 35 0 0 0
SMALL
GASTEIGER

@<TRIPOS>ATOM
      1 N           6.6171   -2.4308   31.6986 N.pl3   1  UNL1       -0.2781
      2 C           7.6983   -1.5033   32.1688 C.3     1  UNL1        0.0950
      3 C           7.2015   -0.7962   33.3947 C.3     1  UNL1        0.0388
      4 C           7.5628    0.2141   34.4430 C.3     1  UNL1        0.0741
      5 N           6.3978    0.3481   35.3785 N.3     1  UNL1       -0.2688
      6 C           5.3167   -0.5793   34.9083 C.3     1  UNL1        0.0741
      7 C           5.8134   -1.2865   33.6823 C.3     1  UNL1        0.0388
      8 C           5.4522   -2.2967   32.6340 C.3     1  UNL1        0.0950
      9 C           6.8309   -5.1395   28.1116 C.ar    1  UNL1        0.0937
     10 C           6.9864   -5.7080   29.4910 C.ar    1  UNL1        0.1079
     11 N           6.9152   -4.8051   30.6867 N.ar    1  UNL1       -0.2119
     12 C           6.6884   -3.3337   30.5029 C.ar    1  UNL1        0.2202
     13 N           6.5329   -2.7653   29.1235 N.ar    1  UNL1       -0.2119
     14 C           6.6041   -3.6682   27.9279 C.ar    1  UNL1        0.1079
     15 O           6.8340   -5.4636   25.5338 O.2     1  UNL1       -0.2680
     16 C           6.9022   -6.0425   26.9159 C.2     1  UNL1        0.2708
     17 N           7.0416   -7.5243   27.1023 N.am    1  UNL1       -0.1934
     18 O           7.1129   -8.4273   25.9067 O.3     1  UNL1       -0.2949
     19 H           7.0864   -7.9043   28.0095 H       1  UNL1        0.1825
     20 H           7.0552   -7.8965   25.0968 H       1  UNL1        0.2414
     21 C           6.3265    1.2510   36.5742 C.3     1  UNL1        0.0991
     22 C           4.9984    1.7575   37.0534 C.ar    1  UNL1       -0.0061
     23 C           4.5600    3.1511   36.7132 C.ar    1  UNL1       -0.0029
     24 C           3.2319    3.6576   37.1925 C.ar    1  UNL1       -0.0003
     25 C           2.3422    2.7705   38.0119 C.ar    1  UNL1       -0.0000
     26 C           1.0141    3.2770   38.4911 C.ar    1  UNL1       -0.0000
     27 C           0.1245    2.3898   39.3106 C.ar    1  UNL1       -0.0000
     28 C           0.5629    0.9963   39.6508 C.ar    1  UNL1       -0.0000
     29 C           1.8909    0.4898   39.1715 C.ar    1  UNL1       -0.0000
     30 C           2.7806    1.3769   38.3521 C.ar    1  UNL1       -0.0003
     31 C           4.1087    0.8704   37.8729 C.ar    1  UNL1       -0.0029
@<TRIPOS>BOND
     1    15    16    2
     2    16    17   am
     3    17    18    1
     4    16     9    1
     5     9    10   ar
     6    10    11   ar
     7    11    12   ar
     8    12     1    1
     9     1     2    1
    10     3     2    1
    11     3     4    1
    12     4     5    1
    13     5    21    1
    14    21    22    1
    15    22    23   ar
    16    23    24   ar
    17    24    25   ar
    18    25    26   ar
    19    26    27   ar
    20    27    28   ar
    21    28    29   ar
    22    29    30   ar
    23    30    31   ar
    24     5     6    1
    25     7     6    1
    26     7     8    1
    27    12    13   ar
    28    13    14   ar
    29    14     9   ar
    30     8     1    1
    31     7     3    1
    32    31    22   ar
    33    30    25   ar
    34    17    19    1
    35    18    20    1
@<TRIPOS>MOLECULE
*****
 31 35 0 0 0
SMALL
GASTEIGER

@<TRIPOS>ATOM
      1 N          -2.5290    3.4692   21.5206 N.pl3   1  UNL1       -0.2781
      2 C          -2.1570    3.3542   20.0719 C.3     1  UNL1        0.0950
      3 C          -0.6930    3.0373   19.9932 C.3     1  UNL1        0.0388
      4 C           0.4417    2.7703   19.0492 C.3     1  UNL1        0.0741
      5 N           1.6758    2.5244   19.8657 N.3     1  UNL1       -0.2688
      6 C           1.3037    2.6394   21.3142 C.3     1  UNL1        0.0741
      7 C          -0.1603    2.9564   21.3931 C.3     1  UNL1        0.0388
      8 C          -1.2949    3.2233   22.3370 C.3     1  UNL1        0.0950
      9 C          -6.6278    4.3902   23.1337 C.ar    1  UNL1        0.0937
     10 C          -5.5342    3.9598   24.0659 C.ar    1  UNL1        0.1079
     11 N          -4.1679    3.6528   23.5282 N.ar    1  UNL1       -0.2119
     12 C          -3.8953    3.7762   22.0583 C.ar    1  UNL1        0.2202
     13 N          -4.9888    4.2065   21.1262 N.ar    1  UNL1       -0.2119
     14 C          -6.3551    4.5135   21.6639 C.ar    1  UNL1        0.1079
     15 O          -8.3623    6.1082   24.0222 O.2     1  UNL1       -0.2680
     16 C          -7.9940    4.6971   23.6714 C.2     1  UNL1        0.2708
     17 N          -8.9920    3.5929   23.8583 N.am    1  UNL1       -0.1934
     18 O         -10.3582    3.8999   24.3960 O.3     1  UNL1       -0.2949
     19 H          -8.7503    2.6668   23.6280 H       1  UNL1        0.1825
     20 H         -10.4311    4.8515   24.5696 H       1  UNL1        0.2414
     21 C           3.0421    2.2175   19.3280 C.3     1  UNL1        0.0991
     22 C           3.4746    0.7924   19.1483 C.ar    1  UNL1       -0.0061
     23 C           3.8519    0.2892   17.7865 C.ar    1  UNL1       -0.0029
     24 C           4.2843   -1.1358   17.6068 C.ar    1  UNL1       -0.0003
     25 C           4.3396   -2.0576   18.7889 C.ar    1  UNL1       -0.0000
     26 C           4.7721   -3.4826   18.6091 C.ar    1  UNL1       -0.0000
     27 C           4.8273   -4.4044   19.7912 C.ar    1  UNL1       -0.0000
     28 C           4.4500   -3.9011   21.1530 C.ar    1  UNL1       -0.0000
     29 C           4.0175   -2.4762   21.3327 C.ar    1  UNL1       -0.0000
     30 C           3.9623   -1.5544   20.1506 C.ar    1  UNL1       -0.0003
     31 C           3.5298   -0.1294   20.3303 C.ar    1  UNL1       -0.0029
@<TRIPOS>BOND
     1    15    16    2
     2    16    17   am
     3    17    18    1
     4    16     9    1
     5     9    10   ar
     6    10    11   ar
     7    11    12   ar
     8    12     1    1
     9     1     2    1
    10     3     2    1
    11     3     4    1
    12     4     5    1
    13     5    21    1
    14    21    22    1
    15    22    23   ar
    16    23    24   ar
    17    24    25   ar
    18    25    26   ar
    19    26    27   ar
    20    27    28   ar
    21    28    29   ar
    22    29    30   ar
    23    30    31   ar
    24     5     6    1
    25     7     6    1
    26     7     8    1
    27    12    13   ar
    28    13    14   ar
    29    14     9   ar
    30     8     1    1
    31     7     3    1
    32    31    22   ar
    33    30    25   ar
    34    17    19    1
    35    18    20    1
@<TRIPOS>MOLECULE
*****
 31 35 0 0 0
SMALL
GASTEIGER

@<TRIPOS>ATOM
      1 N           5.8759   -1.5490   33.0246 N.pl3   1  UNL1       -0.2781
      2 C           5.4093   -2.8881   32.5352 C.3     1  UNL1        0.0950
      3 C           6.6097   -3.6521   32.0609 C.3     1  UNL1        0.0388
      4 C           7.0632   -4.9520   31.4652 C.3     1  UNL1        0.0741
      5 N           8.5521   -4.8886   31.2933 N.3     1  UNL1       -0.2688
      6 C           9.0186   -3.5496   31.7827 C.3     1  UNL1        0.0741
      7 C           7.8182   -2.7854   32.2571 C.3     1  UNL1        0.0388
      8 C           7.3646   -1.4857   32.8527 C.3     1  UNL1        0.0950
      9 C           3.2672    1.7062   34.7123 C.ar    1  UNL1        0.0937
     10 C           4.3979    1.1527   35.5279 C.ar    1  UNL1        0.1079
     11 N           5.2675    0.0676   34.9654 N.ar    1  UNL1       -0.2119
     12 C           5.0063   -0.4639   33.5872 C.ar    1  UNL1        0.2202
     13 N           3.8756    0.0896   32.7716 N.ar    1  UNL1       -0.2119
     14 C           3.0061    1.1746   33.3342 C.ar    1  UNL1        0.1079
     15 O           1.8909    3.8849   34.3820 O.2     1  UNL1       -0.2680
     16 C           2.3977    2.7913   35.2748 C.2     1  UNL1        0.2708
     17 N           2.0348    2.7828   36.7303 N.am    1  UNL1       -0.1934
     18 O           1.1653    3.8679   37.2929 O.3     1  UNL1       -0.2949
     19 H           2.3674    2.0650   37.3163 H       1  UNL1        0.1825
     20 H           0.9272    4.4897   36.5875 H       1  UNL1        0.2414
     21 C           9.4216   -5.9737   30.7307 C.3     1  UNL1        0.0991
     22 C           9.2194   -6.4409   29.3197 C.ar    1  UNL1       -0.0061
     23 C           9.4661   -7.8768   28.9626 C.ar    1  UNL1       -0.0029
     24 C           9.2640   -8.3440   27.5517 C.ar    1  UNL1       -0.0003
     25 C           8.8152   -7.3755   26.4978 C.ar    1  UNL1       -0.0000
     26 C           8.6130   -7.8428   25.0869 C.ar    1  UNL1       -0.0000
     27 C           8.1642   -6.8742   24.0331 C.ar    1  UNL1       -0.0000
     28 C           7.9176   -5.4384   24.3903 C.ar    1  UNL1       -0.0000
     29 C           8.1197   -4.9711   25.8012 C.ar    1  UNL1       -0.0000
     30 C           8.5685   -5.9397   26.8550 C.ar    1  UNL1       -0.0003
     31 C           8.7707   -5.4724   28.2660 C.ar    1  UNL1       -0.0029
@<TRIPOS>BOND
     1    15    16    2
     2    16    17   am
     3    17    18    1
     4    16     9    1
     5     9    10   ar
     6    10    11   ar
     7    11    12   ar
     8    12     1    1
     9     1     2    1
    10     3     2    1
    11     3     4    1
    12     4     5    1
    13     5    21    1
    14    21    22    1
    15    22    23   ar
    16    23    24   ar
    17    24    25   ar
    18    25    26   ar
    19    26    27   ar
    20    27    28   ar
    21    28    29   ar
    22    29    30   ar
    23    30    31   ar
    24     5     6    1
    25     7     6    1
    26     7     8    1
    27    12    13   ar
    28    13    14   ar
    29    14     9   ar
    30     8     1    1
    31     7     3    1
    32    31    22   ar
    33    30    25   ar
    34    17    19    1
    35    18    20    1
@<TRIPOS>MOLECULE
*****
 31 35 0 0 0
SMALL
GASTEIGER

@<TRIPOS>ATOM
      1 N           5.9876   -1.5315   33.6176 N.pl3   1  UNL1       -0.2781
      2 C           7.4359   -1.4383   33.2380 C.3     1  UNL1        0.0950
      3 C           7.7470   -2.5782   32.3140 C.3     1  UNL1        0.0388
      4 C           8.8344   -3.2251   31.5083 C.3     1  UNL1        0.0741
      5 N           8.2505   -4.4226   30.8189 N.3     1  UNL1       -0.2688
      6 C           6.8023   -4.5157   31.1985 C.3     1  UNL1        0.0741
      7 C           6.4911   -3.3758   32.1226 C.3     1  UNL1        0.0388
      8 C           5.4038   -2.7289   32.9282 C.3     1  UNL1        0.0950
      9 C           3.7819    1.2867   36.3457 C.ar    1  UNL1        0.0937
     10 C           4.7116    0.2598   36.9212 C.ar    1  UNL1        0.1079
     11 N           5.4469   -0.6796   36.0118 N.ar    1  UNL1       -0.2119
     12 C           5.2524   -0.5921   34.5270 C.ar    1  UNL1        0.2202
     13 N           4.3228    0.4349   33.9516 N.ar    1  UNL1       -0.2119
     14 C           3.5875    1.3743   34.8610 C.ar    1  UNL1        0.1079
     15 O           1.9522    3.0949   36.7099 O.2     1  UNL1       -0.2680
     16 C           3.0467    2.2261   37.2551 C.2     1  UNL1        0.2708
     17 N           3.4060    2.2968   38.7098 N.am    1  UNL1       -0.1934
     18 O           2.6708    3.2362   39.6191 O.3     1  UNL1       -0.2949
     19 H           4.1244    1.7266   39.0676 H       1  UNL1        0.1825
     20 H           2.0005    3.7196   39.1112 H       1  UNL1        0.2414
     21 C           8.9857   -5.3620   29.9095 C.3     1  UNL1        0.0991
     22 C           8.7599   -5.3019   28.4278 C.ar    1  UNL1       -0.0061
     23 C           8.1853   -4.0635   27.8063 C.ar    1  UNL1       -0.0029
     24 C           7.9595   -4.0034   26.3246 C.ar    1  UNL1       -0.0003
     25 C           8.3083   -5.1818   25.4644 C.ar    1  UNL1       -0.0000
     26 C           8.0825   -5.1216   23.9827 C.ar    1  UNL1       -0.0000
     27 C           8.4312   -6.2999   23.1225 C.ar    1  UNL1       -0.0000
     28 C           9.0058   -7.5383   23.7440 C.ar    1  UNL1       -0.0000
     29 C           9.2316   -7.5984   25.2257 C.ar    1  UNL1       -0.0000
     30 C           8.8829   -6.4201   26.0858 C.ar    1  UNL1       -0.0003
     31 C           9.1087   -6.4802   27.5676 C.ar    1  UNL1       -0.0029
@<TRIPOS>BOND
     1    15    16    2
     2    16    17   am
     3    17    18    1
     4    16     9    1
     5     9    10   ar
     6    10    11   ar
     7    11    12   ar
     8    12     1    1
     9     1     2    1
    10     3     2    1
    11     3     4    1
    12     4     5    1
    13     5    21    1
    14    21    22    1
    15    22    23   ar
    16    23    24   ar
    17    24    25   ar
    18    25    26   ar
    19    26    27   ar
    20    27    28   ar
    21    28    29   ar
    22    29    30   ar
    23    30    31   ar
    24     5     6    1
    25     7     6    1
    26     7     8    1
    27    12    13   ar
    28    13    14   ar
    29    14     9   ar
    30     8     1    1
    31     7     3    1
    32    31    22   ar
    33    30    25   ar
    34    17    19    1
    35    18    20    1
@<TRIPOS>MOLECULE
*****
 31 35 0 0 0
SMALL
GASTEIGER

@<TRIPOS>ATOM
      1 N           1.9925    1.1973   27.5894 N.pl3   1  UNL1       -0.2781
      2 C           0.7811    1.7136   26.8709 C.3     1  UNL1        0.0950
      3 C           0.9497    1.4214   25.4094 C.3     1  UNL1        0.0388
      4 C           0.3051    1.5599   24.0620 C.3     1  UNL1        0.0741
      5 N           1.2222    0.9486   23.0445 N.3     1  UNL1       -0.2688
      6 C           2.4335    0.4323   23.7630 C.3     1  UNL1        0.0741
      7 C           2.2650    0.7245   25.2246 C.3     1  UNL1        0.0388
      8 C           2.9095    0.5860   26.5719 C.3     1  UNL1        0.0950
      9 C           2.7432    1.4397   32.0197 C.ar    1  UNL1        0.0937
     10 C           2.5206    2.6936   31.2271 C.ar    1  UNL1        0.1079
     11 N           2.2704    2.6128   29.7503 N.ar    1  UNL1       -0.2119
     12 C           2.2427    1.2781   29.0662 C.ar    1  UNL1        0.2202
     13 N           2.4653    0.0243   29.8589 N.ar    1  UNL1       -0.2119
     14 C           2.7156    0.1051   31.3357 C.ar    1  UNL1        0.1079
     15 O           4.2617    0.9652   34.0738 O.2     1  UNL1       -0.2680
     16 C           2.9935    1.5205   33.4965 C.2     1  UNL1        0.2708
     17 N           1.9755    2.1567   34.3960 N.am    1  UNL1       -0.1934
     18 O           2.2258    2.2375   35.8728 O.3     1  UNL1       -0.2949
     19 H           1.1431    2.5211   34.0171 H       1  UNL1        0.1825
     20 H           3.0844    1.8355   36.0777 H       1  UNL1        0.2414
     21 C           0.9720    0.8678   21.5677 C.3     1  UNL1        0.0991
     22 C           2.0193    0.2942   20.6598 C.ar    1  UNL1       -0.0061
     23 C           2.7938    1.1955   19.7446 C.ar    1  UNL1       -0.0029
     24 C           3.8410    0.6220   18.8367 C.ar    1  UNL1       -0.0003
     25 C           4.1138   -0.8531   18.8440 C.ar    1  UNL1       -0.0000
     26 C           5.1610   -1.4266   17.9362 C.ar    1  UNL1       -0.0000
     27 C           5.4338   -2.9016   17.9436 C.ar    1  UNL1       -0.0000
     28 C           4.6592   -3.8030   18.8588 C.ar    1  UNL1       -0.0000
     29 C           3.6120   -3.2294   19.7666 C.ar    1  UNL1       -0.0000
     30 C           3.3393   -1.7544   19.7593 C.ar    1  UNL1       -0.0003
     31 C           2.2920   -1.1808   20.6672 C.ar    1  UNL1       -0.0029
@<TRIPOS>BOND
     1    15    16    2
     2    16    17   am
     3    17    18    1
     4    16     9    1
     5     9    10   ar
     6    10    11   ar
     7    11    12   ar
     8    12     1    1
     9     1     2    1
    10     3     2    1
    11     3     4    1
    12     4     5    1
    13     5    21    1
    14    21    22    1
    15    22    23   ar
    16    23    24   ar
    17    24    25   ar
    18    25    26   ar
    19    26    27   ar
    20    27    28   ar
    21    28    29   ar
    22    29    30   ar
    23    30    31   ar
    24     5     6    1
    25     7     6    1
    26     7     8    1
    27    12    13   ar
    28    13    14   ar
    29    14     9   ar
    30     8     1    1
    31     7     3    1
    32    31    22   ar
    33    30    25   ar
    34    17    19    1
    35    18    20    1
@<TRIPOS>MOLECULE
*****
 31 35 0 0 0
SMALL
GASTEIGER

@<TRIPOS>ATOM
      1 N          -1.1311    2.7015   27.1136 N.pl3   1  UNL1       -0.2781
      2 C          -1.0500    1.3666   27.7932 C.3     1  UNL1        0.0950
      3 C           0.2265    1.3238   28.5797 C.3     1  UNL1        0.0388
      4 C           1.0655    0.4724   29.4859 C.3     1  UNL1        0.0741
      5 N           2.2919    1.2545   29.8524 N.3     1  UNL1       -0.2688
      6 C           2.2108    2.5893   29.1729 C.3     1  UNL1        0.0741
      7 C           0.9343    2.6321   28.3863 C.3     1  UNL1        0.0388
      8 C           0.0953    3.4835   27.4802 C.3     1  UNL1        0.0950
      9 C          -4.4678    4.1119   24.4439 C.ar    1  UNL1        0.0937
     10 C          -3.1581    3.6885   23.8475 C.ar    1  UNL1        0.1079
     11 N          -2.0459    3.2183   24.7375 N.ar    1  UNL1       -0.2119
     12 C          -2.2433    3.1716   26.2237 C.ar    1  UNL1        0.2202
     13 N          -3.5529    3.5950   26.8200 N.ar    1  UNL1       -0.2119
     14 C          -4.6652    4.0651   25.9301 C.ar    1  UNL1        0.1079
     15 O          -5.3242    5.6541   22.5366 O.2     1  UNL1       -0.2680
     16 C          -5.5800    4.5820   23.5540 C.2     1  UNL1        0.2708
     17 N          -6.9480    3.9801   23.6816 N.am    1  UNL1       -0.1934
     18 O          -8.0602    4.4502   22.7917 O.3     1  UNL1       -0.2949
     19 H          -7.1159    3.2764   24.3494 H       1  UNL1        0.1825
     20 H          -7.7284    5.1408   22.1968 H       1  UNL1        0.2414
     21 C           3.4042    0.7844   30.7423 C.3     1  UNL1        0.0991
     22 C           3.3580    1.0688   32.2145 C.ar    1  UNL1       -0.0061
     23 C           2.3991    2.0897   32.7514 C.ar    1  UNL1       -0.0029
     24 C           2.3530    2.3741   34.2234 C.ar    1  UNL1       -0.0003
     25 C           3.2657    1.6377   35.1586 C.ar    1  UNL1       -0.0000
     26 C           3.2195    1.9221   36.6306 C.ar    1  UNL1       -0.0000
     27 C           4.1322    1.1856   37.5658 C.ar    1  UNL1       -0.0000
     28 C           5.0911    0.1647   37.0289 C.ar    1  UNL1       -0.0000
     29 C           5.1373   -0.1197   35.5568 C.ar    1  UNL1       -0.0000
     30 C           4.2246    0.6167   34.6217 C.ar    1  UNL1       -0.0003
     31 C           4.2707    0.3323   33.1496 C.ar    1  UNL1       -0.0029
@<TRIPOS>BOND
     1    15    16    2
     2    16    17   am
     3    17    18    1
     4    16     9    1
     5     9    10   ar
     6    10    11   ar
     7    11    12   ar
     8    12     1    1
     9     1     2    1
    10     3     2    1
    11     3     4    1
    12     4     5    1
    13     5    21    1
    14    21    22    1
    15    22    23   ar
    16    23    24   ar
    17    24    25   ar
    18    25    26   ar
    19    26    27   ar
    20    27    28   ar
    21    28    29   ar
    22    29    30   ar
    23    30    31   ar
    24     5     6    1
    25     7     6    1
    26     7     8    1
    27    12    13   ar
    28    13    14   ar
    29    14     9   ar
    30     8     1    1
    31     7     3    1
    32    31    22   ar
    33    30    25   ar
    34    17    19    1
    35    18    20    1
