@<TRIPOS>MOLECULE
*****
 25 27 0 0 0
SMALL
GASTEIGER

@<TRIPOS>ATOM
      1 C           0.1624    1.9770   20.2290 C.2     1  UNL1        0.0412
      2 C          -0.1445    2.2634   21.6690 C.2     1  UNL1       -0.0326
      3 C           0.5635    1.5047   22.7521 C.3     1  UNL1        0.0442
      4 C           0.2565    1.7911   24.1921 C.3     1  UNL1        0.0981
      5 N          -0.7586    2.8361   24.5491 N.am    1  UNL1       -0.2754
      6 C          -1.0656    3.1225   25.9891 C.2     1  UNL1        0.2491
      7 O          -2.0807    4.1675   26.3461 O.2     1  UNL1       -0.2699
      8 C          -1.4667    3.5948   23.4661 C.3     1  UNL1        0.0981
      9 C          -1.1596    3.3084   22.0260 C.3     1  UNL1        0.0442
     10 C          -0.3575    2.3638   27.0722 C.ar    1  UNL1        0.0558
     11 C           0.9430    2.8742   27.6182 C.ar    1  UNL1        0.0047
     12 C           1.6511    2.1156   28.7013 C.ar    1  UNL1        0.0025
     13 C           1.0587    0.8465   29.2383 C.ar    1  UNL1        0.0296
     14 C          -0.2418    0.3361   28.6923 C.ar    1  UNL1        0.1403
     15 F          -0.8342   -0.9331   29.2293 F       1  UNL1       -0.2042
     16 C          -0.9499    1.0947   27.6092 C.ar    1  UNL1        0.0341
     17 C           2.1927   -0.1131   19.5149 C.1     1  UNL1       -0.0405
     18 C           1.1776    0.9319   19.8720 C.1     1  UNL1       -0.0583
     19 C           3.7502   -5.0702   19.5472 C.3     1  UNL1        0.0521
     20 C           3.9865   -3.6367   19.1741 C.ar    1  UNL1        0.0600
     21 C           5.2379   -3.2483   18.4439 C.ar    1  UNL1        0.0148
     22 C           5.4742   -1.8148   18.0707 C.ar    1  UNL1        0.0034
     23 C           4.4592   -0.7697   18.4277 C.ar    1  UNL1        0.0276
     24 C           3.2078   -1.1581   19.1579 C.ar    1  UNL1        0.1224
     25 N           2.9715   -2.5916   19.5311 N.ar    1  UNL1       -0.2414
@<TRIPOS>BOND
     1    19    20    1
     2    20    21   ar
     3    21    22   ar
     4    22    23   ar
     5    23    24   ar
     6    24    17    1
     7    17    18    3
     8    18     1    1
     9     1     2    2
    10     2     3    1
    11     3     4    1
    12     4     5    1
    13     5     6   am
    14     6     7    2
    15     6    10    1
    16    10    11   ar
    17    11    12   ar
    18    12    13   ar
    19    13    14   ar
    20    14    15    1
    21    14    16   ar
    22     5     8    1
    23     8     9    1
    24    24    25   ar
    25    25    20   ar
    26     9     2    1
    27    16    10   ar
@<TRIPOS>MOLECULE
*****
 25 27 0 0 0
SMALL
GASTEIGER

@<TRIPOS>ATOM
      1 C           0.3232    2.8297   21.8334 C.2     1  UNL1        0.0412
      2 C           1.0972    1.9042   20.9422 C.2     1  UNL1       -0.0326
      3 C           1.8308    0.7356   21.5304 C.3     1  UNL1        0.0442
      4 C           2.6048   -0.1898   20.6392 C.3     1  UNL1        0.0981
      5 N           2.6452    0.0533   19.1595 N.am    1  UNL1       -0.2754
      6 C           3.4192   -0.8721   18.2682 C.2     1  UNL1        0.2491
      7 O           3.4595   -0.6290   16.7886 O.2     1  UNL1       -0.2699
      8 C           1.9115    1.2219   18.5712 C.3     1  UNL1        0.0981
      9 C           1.1375    2.1474   19.4626 C.3     1  UNL1        0.0442
     10 C           4.1528   -2.0407   18.8565 C.ar    1  UNL1        0.0558
     11 C           5.6016   -1.9097   19.2223 C.ar    1  UNL1        0.0047
     12 C           6.3353   -3.0783   19.8106 C.ar    1  UNL1        0.0025
     13 C           5.6202   -4.3780   20.0331 C.ar    1  UNL1        0.0296
     14 C           4.1714   -4.5090   19.6673 C.ar    1  UNL1        0.1403
     15 F           3.4562   -5.8087   19.8898 F       1  UNL1       -0.2042
     16 C           3.4377   -3.3404   19.0790 C.ar    1  UNL1        0.0341
     17 C           0.2424    2.3435   24.7927 C.1     1  UNL1       -0.0405
     18 C           0.2828    2.5866   23.3131 C.1     1  UNL1       -0.0583
     19 C          -1.3654   -0.4815   28.8466 C.3     1  UNL1        0.0521
     20 C          -0.6018    0.6878   28.2993 C.ar    1  UNL1        0.0600
     21 C           0.1213    1.6141   29.2315 C.ar    1  UNL1        0.0148
     22 C           0.8849    2.7834   28.6842 C.ar    1  UNL1        0.0034
     23 C           0.9253    3.0266   27.2046 C.ar    1  UNL1        0.0276
     24 C           0.2021    2.1004   26.2724 C.ar    1  UNL1        0.1224
     25 N          -0.5614    0.9310   26.8197 N.ar    1  UNL1       -0.2414
@<TRIPOS>BOND
     1    19    20    1
     2    20    21   ar
     3    21    22   ar
     4    22    23   ar
     5    23    24   ar
     6    24    17    1
     7    17    18    3
     8    18     1    1
     9     1     2    2
    10     2     3    1
    11     3     4    1
    12     4     5    1
    13     5     6   am
    14     6     7    2
    15     6    10    1
    16    10    11   ar
    17    11    12   ar
    18    12    13   ar
    19    13    14   ar
    20    14    15    1
    21    14    16   ar
    22     5     8    1
    23     8     9    1
    24    24    25   ar
    25    25    20   ar
    26     9     2    1
    27    16    10   ar
@<TRIPOS>MOLECULE
*****
 25 27 0 0 0
SMALL
GASTEIGER

@<TRIPOS>ATOM
      1 C           4.0341   -2.1529   21.3324 C.2     1  UNL1        0.0412
      2 C           3.1326   -1.1187   21.9388 C.2     1  UNL1       -0.0326
      3 C           3.1363   -0.8976   23.4224 C.3     1  UNL1        0.0442
      4 C           2.2348    0.1365   24.0288 C.3     1  UNL1        0.0981
      5 N           1.3296    0.9497   23.1516 N.am    1  UNL1       -0.2754
      6 C           0.4281    1.9839   23.7580 C.2     1  UNL1        0.2491
      7 O          -0.4770    2.7970   22.8808 O.2     1  UNL1       -0.2699
      8 C           1.3259    0.7286   21.6680 C.3     1  UNL1        0.0981
      9 C           2.2275   -0.3056   21.0616 C.3     1  UNL1        0.0442
     10 C           0.4318    2.2050   25.2416 C.ar    1  UNL1        0.0558
     11 C           1.4217    3.1492   25.8567 C.ar    1  UNL1        0.0047
     12 C           1.4253    3.3703   27.3403 C.ar    1  UNL1        0.0025
     13 C           0.4391    2.6471   28.2088 C.ar    1  UNL1        0.0296
     14 C          -0.5508    1.7029   27.5937 C.ar    1  UNL1        0.1403
     15 F          -1.5371    0.9796   28.4622 F       1  UNL1       -0.2042
     16 C          -0.5545    1.4818   26.1101 C.ar    1  UNL1        0.0341
     17 C           5.8445   -3.7792   23.0868 C.1     1  UNL1       -0.0405
     18 C           4.9393   -2.9661   22.2096 C.1     1  UNL1       -0.0583
     19 C           9.3797   -7.5468   23.6413 C.3     1  UNL1        0.0521
     20 C           8.5173   -6.4762   24.2412 C.ar    1  UNL1        0.0600
     21 C           8.5600   -6.2187   25.7183 C.ar    1  UNL1        0.0148
     22 C           7.6976   -5.1480   26.3182 C.ar    1  UNL1        0.0034
     23 C           6.7924   -4.3349   25.4411 C.ar    1  UNL1        0.0276
     24 C           6.7497   -4.5924   23.9640 C.ar    1  UNL1        0.1224
     25 N           7.6121   -5.6630   23.3641 N.ar    1  UNL1       -0.2414
@<TRIPOS>BOND
     1    19    20    1
     2    20    21   ar
     3    21    22   ar
     4    22    23   ar
     5    23    24   ar
     6    24    17    1
     7    17    18    3
     8    18     1    1
     9     1     2    2
    10     2     3    1
    11     3     4    1
    12     4     5    1
    13     5     6   am
    14     6     7    2
    15     6    10    1
    16    10    11   ar
    17    11    12   ar
    18    12    13   ar
    19    13    14   ar
    20    14    15    1
    21    14    16   ar
    22     5     8    1
    23     8     9    1
    24    24    25   ar
    25    25    20   ar
    26     9     2    1
    27    16    10   ar
@<TRIPOS>MOLECULE
*****
 25 27 0 0 0
SMALL
GASTEIGER

@<TRIPOS>ATOM
      1 C           6.0292   -2.5307   27.5009 C.2     1  UNL1        0.0412
      2 C           6.2083   -2.8872   26.0550 C.2     1  UNL1       -0.0326
      3 C           5.2250   -2.3963   25.0341 C.3     1  UNL1        0.0442
      4 C           5.4041   -2.7529   23.5882 C.3     1  UNL1        0.0981
      5 N           6.5666   -3.6003   23.1630 N.am    1  UNL1       -0.2754
      6 C           6.7456   -3.9568   21.7171 C.2     1  UNL1        0.2491
      7 O           7.9080   -4.8042   21.2920 O.2     1  UNL1       -0.2699
      8 C           7.5499   -4.0912   24.1839 C.3     1  UNL1        0.0981
      9 C           7.3707   -3.7346   25.6299 C.3     1  UNL1        0.0442
     10 C           5.7623   -3.4660   20.6962 C.ar    1  UNL1        0.0558
     11 C           5.9630   -2.1307   20.0429 C.ar    1  UNL1        0.0047
     12 C           4.9798   -1.6399   19.0221 C.ar    1  UNL1        0.0025
     13 C           3.7958   -2.4842   18.6545 C.ar    1  UNL1        0.0296
     14 C           3.5951   -3.8194   19.3078 C.ar    1  UNL1        0.1403
     15 F           2.4110   -4.6639   18.9402 F       1  UNL1       -0.2042
     16 C           4.5783   -4.3103   20.3286 C.ar    1  UNL1        0.0341
     17 C           3.7044   -0.8358   28.3511 C.1     1  UNL1       -0.0405
     18 C           4.8668   -1.6833   27.9260 C.1     1  UNL1       -0.0583
     19 C          -1.4127   -0.2218   29.0132 C.3     1  UNL1        0.0521
     20 C          -0.0165    0.3186   29.1073 C.ar    1  UNL1        0.0600
     21 C           0.2172    1.7063   29.6265 C.ar    1  UNL1        0.0148
     22 C           1.6133    2.2467   29.7205 C.ar    1  UNL1        0.0034
     23 C           2.7757    1.3993   29.2954 C.ar    1  UNL1        0.0276
     24 C           2.5420    0.0116   28.7763 C.ar    1  UNL1        0.1224
     25 N           1.1459   -0.5288   28.6822 N.ar    1  UNL1       -0.2414
@<TRIPOS>BOND
     1    19    20    1
     2    20    21   ar
     3    21    22   ar
     4    22    23   ar
     5    23    24   ar
     6    24    17    1
     7    17    18    3
     8    18     1    1
     9     1     2    2
    10     2     3    1
    11     3     4    1
    12     4     5    1
    13     5     6   am
    14     6     7    2
    15     6    10    1
    16    10    11   ar
    17    11    12   ar
    18    12    13   ar
    19    13    14   ar
    20    14    15    1
    21    14    16   ar
    22     5     8    1
    23     8     9    1
    24    24    25   ar
    25    25    20   ar
    26     9     2    1
    27    16    10   ar
@<TRIPOS>MOLECULE
*****
 25 27 0 0 0
SMALL
GASTEIGER

@<TRIPOS>ATOM
      1 C           8.5330   -7.2248   24.8757 C.2     1  UNL1        0.0412
      2 C           8.5959   -6.9842   26.3550 C.2     1  UNL1       -0.0326
      3 C           8.1624   -5.6637   26.9192 C.3     1  UNL1        0.0442
      4 C           8.2253   -5.4231   28.3984 C.3     1  UNL1        0.0981
      5 N           8.7218   -6.5030   29.3135 N.am    1  UNL1       -0.2754
      6 C           8.7848   -6.2624   30.7927 C.2     1  UNL1        0.2491
      7 O           9.2813   -7.3423   31.7077 O.2     1  UNL1       -0.2699
      8 C           9.1554   -7.8235   28.7493 C.3     1  UNL1        0.0981
      9 C           9.0924   -8.0641   27.2700 C.3     1  UNL1        0.0442
     10 C           8.3512   -4.9419   31.3569 C.ar    1  UNL1        0.0558
     11 C           9.3578   -3.8505   31.5698 C.ar    1  UNL1        0.0047
     12 C           8.9243   -2.5300   32.1340 C.ar    1  UNL1        0.0025
     13 C           7.4842   -2.3009   32.4853 C.ar    1  UNL1        0.0296
     14 C           6.4775   -3.3924   32.2724 C.ar    1  UNL1        0.1403
     15 F           5.0373   -3.1634   32.6237 F       1  UNL1       -0.2042
     16 C           6.9111   -4.7129   31.7082 C.ar    1  UNL1        0.0341
     17 C           7.5400   -5.0650   23.0456 C.1     1  UNL1       -0.0405
     18 C           8.0365   -6.1449   23.9607 C.1     1  UNL1       -0.0583
     19 C           4.3971   -3.5081   19.2117 C.3     1  UNL1        0.0521
     20 C           5.4720   -3.2067   20.2136 C.ar    1  UNL1        0.0600
     21 C           6.0504   -1.8254   20.3004 C.ar    1  UNL1        0.0148
     22 C           7.1254   -1.5240   21.3023 C.ar    1  UNL1        0.0034
     23 C           7.6219   -2.6039   22.2173 C.ar    1  UNL1        0.0276
     24 C           7.0435   -3.9851   22.1305 C.ar    1  UNL1        0.1224
     25 N           5.9686   -4.2865   21.1287 N.ar    1  UNL1       -0.2414
@<TRIPOS>BOND
     1    19    20    1
     2    20    21   ar
     3    21    22   ar
     4    22    23   ar
     5    23    24   ar
     6    24    17    1
     7    17    18    3
     8    18     1    1
     9     1     2    2
    10     2     3    1
    11     3     4    1
    12     4     5    1
    13     5     6   am
    14     6     7    2
    15     6    10    1
    16    10    11   ar
    17    11    12   ar
    18    12    13   ar
    19    13    14   ar
    20    14    15    1
    21    14    16   ar
    22     5     8    1
    23     8     9    1
    24    24    25   ar
    25    25    20   ar
    26     9     2    1
    27    16    10   ar
@<TRIPOS>MOLECULE
*****
 25 27 0 0 0
SMALL
GASTEIGER

@<TRIPOS>ATOM
      1 C          -0.8247    2.3975   27.2147 C.2     1  UNL1        0.0412
      2 C           0.1000    1.8815   26.1524 C.2     1  UNL1       -0.0326
      3 C          -0.2597    2.0376   24.7045 C.3     1  UNL1        0.0442
      4 C           0.6650    1.5217   23.6422 C.3     1  UNL1        0.0981
      5 N           1.9494    0.8495   24.0276 N.am    1  UNL1       -0.2754
      6 C           2.8741    0.3335   22.9653 C.2     1  UNL1        0.2491
      7 O           4.1585   -0.3386   23.3507 O.2     1  UNL1       -0.2699
      8 C           2.3091    0.6934   25.4755 C.3     1  UNL1        0.0981
      9 C           1.3843    1.2094   26.5379 C.3     1  UNL1        0.0442
     10 C           2.5145    0.4897   21.5174 C.ar    1  UNL1        0.0558
     11 C           1.6562   -0.5390   20.8427 C.ar    1  UNL1        0.0047
     12 C           1.2966   -0.3828   19.3948 C.ar    1  UNL1        0.0025
     13 C           1.7951    0.8019   18.6217 C.ar    1  UNL1        0.0296
     14 C           2.6534    1.8306   19.2965 C.ar    1  UNL1        0.1403
     15 F           3.1520    3.0154   18.5233 F       1  UNL1       -0.2042
     16 C           3.0130    1.6744   20.7443 C.ar    1  UNL1        0.0341
     17 C          -3.3935    3.7418   26.4438 C.1     1  UNL1       -0.0405
     18 C          -2.1092    3.0696   26.8293 C.1     1  UNL1       -0.0583
     19 C          -7.3390    4.3360   23.1151 C.3     1  UNL1        0.0521
     20 C          -6.6507    4.7110   24.3940 C.ar    1  UNL1        0.0600
     21 C          -7.2467    5.7581   25.2874 C.ar    1  UNL1        0.0148
     22 C          -6.5584    6.1332   26.5663 C.ar    1  UNL1        0.0034
     23 C          -5.2740    5.4611   26.9518 C.ar    1  UNL1        0.0276
     24 C          -4.6780    4.4140   26.0584 C.ar    1  UNL1        0.1224
     25 N          -5.3663    4.0389   24.7795 N.ar    1  UNL1       -0.2414
@<TRIPOS>BOND
     1    19    20    1
     2    20    21   ar
     3    21    22   ar
     4    22    23   ar
     5    23    24   ar
     6    24    17    1
     7    17    18    3
     8    18     1    1
     9     1     2    2
    10     2     3    1
    11     3     4    1
    12     4     5    1
    13     5     6   am
    14     6     7    2
    15     6    10    1
    16    10    11   ar
    17    11    12   ar
    18    12    13   ar
    19    13    14   ar
    20    14    15    1
    21    14    16   ar
    22     5     8    1
    23     8     9    1
    24    24    25   ar
    25    25    20   ar
    26     9     2    1
    27    16    10   ar
@<TRIPOS>MOLECULE
*****
 25 27 0 0 0
SMALL
GASTEIGER

@<TRIPOS>ATOM
      1 C           3.7071   -0.7960   26.9113 C.2     1  UNL1        0.0412
      2 C           3.5456   -0.6988   25.4232 C.2     1  UNL1       -0.0326
      3 C           4.3436   -1.5941   24.5222 C.3     1  UNL1        0.0442
      4 C           4.1821   -1.4970   23.0341 C.3     1  UNL1        0.0981
      5 N           3.2227   -0.5045   22.4469 N.am    1  UNL1       -0.2754
      6 C           3.0613   -0.4073   20.9589 C.2     1  UNL1        0.2491
      7 O           2.1020    0.5851   20.3718 O.2     1  UNL1       -0.2699
      8 C           2.4248    0.3908   23.3480 C.3     1  UNL1        0.0981
      9 C           2.5863    0.2936   24.8361 C.3     1  UNL1        0.0442
     10 C           3.8593   -1.3026   20.0578 C.ar    1  UNL1        0.0558
     11 C           5.1136   -0.7922   19.4130 C.ar    1  UNL1        0.0047
     12 C           5.9116   -1.6874   18.5120 C.ar    1  UNL1        0.0025
     13 C           5.4551   -3.0931   18.2558 C.ar    1  UNL1        0.0296
     14 C           4.2007   -3.6035   18.9007 C.ar    1  UNL1        0.1403
     15 F           3.7442   -5.0093   18.6446 F       1  UNL1       -0.2042
     16 C           3.4028   -2.7083   19.8017 C.ar    1  UNL1        0.0341
     17 C           5.6258   -2.7808   28.0856 C.1     1  UNL1       -0.0405
     18 C           4.6665   -1.7885   27.4984 C.1     1  UNL1       -0.0583
     19 C           9.3072   -3.9716   31.5540 C.3     1  UNL1        0.0521
     20 C           8.4259   -4.3686   30.4069 C.ar    1  UNL1        0.0600
     21 C           8.5039   -5.7580   29.8471 C.ar    1  UNL1        0.0148
     22 C           7.6227   -6.1550   28.7000 C.ar    1  UNL1        0.0034
     23 C           6.6633   -5.1626   28.1128 C.ar    1  UNL1        0.0276
     24 C           6.5852   -3.7733   28.6727 C.ar    1  UNL1        0.1224
     25 N           7.4665   -3.3763   29.8198 N.ar    1  UNL1       -0.2414
@<TRIPOS>BOND
     1    19    20    1
     2    20    21   ar
     3    21    22   ar
     4    22    23   ar
     5    23    24   ar
     6    24    17    1
     7    17    18    3
     8    18     1    1
     9     1     2    2
    10     2     3    1
    11     3     4    1
    12     4     5    1
    13     5     6   am
    14     6     7    2
    15     6    10    1
    16    10    11   ar
    17    11    12   ar
    18    12    13   ar
    19    13    14   ar
    20    14    15    1
    21    14    16   ar
    22     5     8    1
    23     8     9    1
    24    24    25   ar
    25    25    20   ar
    26     9     2    1
    27    16    10   ar
@<TRIPOS>MOLECULE
*****
 25 27 0 0 0
SMALL
GASTEIGER

@<TRIPOS>ATOM
      1 C         -16.7207   -3.9187   19.3167 C.2     1  UNL1        0.0412
      2 C         -17.1589   -2.5494   19.7441 C.2     1  UNL1       -0.0326
      3 C         -16.1358   -1.4972   20.0542 C.3     1  UNL1        0.0442
      4 C         -16.5741   -0.1278   20.4816 C.3     1  UNL1        0.0981
      5 N         -18.0355    0.1894   20.5989 N.am    1  UNL1       -0.2754
      6 C         -18.4738    1.5588   21.0263 C.2     1  UNL1        0.2491
      7 O         -19.9351    1.8760   21.1436 O.2     1  UNL1       -0.2699
      8 C         -19.0586   -0.8628   20.2888 C.3     1  UNL1        0.0981
      9 C         -18.6203   -2.2322   19.8613 C.3     1  UNL1        0.0442
     10 C         -17.4507    2.6110   21.3365 C.ar    1  UNL1        0.0558
     11 C         -16.7888    3.3652   20.2216 C.ar    1  UNL1        0.0047
     12 C         -15.7657    4.4174   20.5318 C.ar    1  UNL1        0.0025
     13 C         -15.4044    4.7153   21.9568 C.ar    1  UNL1        0.0296
     14 C         -16.0663    3.9610   23.0716 C.ar    1  UNL1        0.1403
     15 F         -15.7050    4.2589   24.4967 F       1  UNL1       -0.2042
     16 C         -17.0894    2.9088   22.7615 C.ar    1  UNL1        0.0341
     17 C         -13.7979   -4.5532   19.0821 C.1     1  UNL1       -0.0405
     18 C         -15.2593   -4.2360   19.1994 C.1     1  UNL1       -0.0583
     19 C          -9.9757   -8.0371   18.5786 C.3     1  UNL1        0.0521
     20 C         -10.4255   -6.6124   18.7131 C.ar    1  UNL1        0.0600
     21 C          -9.4139   -5.5051   18.7302 C.ar    1  UNL1        0.0148
     22 C          -9.8636   -4.0804   18.8646 C.ar    1  UNL1        0.0034
     23 C         -11.3249   -3.7631   18.9819 C.ar    1  UNL1        0.0276
     24 C         -12.3365   -4.8705   18.9648 C.ar    1  UNL1        0.1224
     25 N         -11.8868   -6.2952   18.8303 N.ar    1  UNL1       -0.2414
@<TRIPOS>BOND
     1    19    20    1
     2    20    21   ar
     3    21    22   ar
     4    22    23   ar
     5    23    24   ar
     6    24    17    1
     7    17    18    3
     8    18     1    1
     9     1     2    2
    10     2     3    1
    11     3     4    1
    12     4     5    1
    13     5     6   am
    14     6     7    2
    15     6    10    1
    16    10    11   ar
    17    11    12   ar
    18    12    13   ar
    19    13    14   ar
    20    14    15    1
    21    14    16   ar
    22     5     8    1
    23     8     9    1
    24    24    25   ar
    25    25    20   ar
    26     9     2    1
    27    16    10   ar
@<TRIPOS>MOLECULE
*****
 25 27 0 0 0
SMALL
GASTEIGER

@<TRIPOS>ATOM
      1 C           1.8863    0.8616   25.6966 C.2     1  UNL1        0.0412
      2 C           1.9885    0.5386   24.2354 C.2     1  UNL1       -0.0326
      3 C           3.0074   -0.4523   23.7558 C.3     1  UNL1        0.0442
      4 C           3.1096   -0.7752   22.2946 C.3     1  UNL1        0.0981
      5 N           2.1930   -0.1073   21.3129 N.am    1  UNL1       -0.2754
      6 C           2.2952   -0.4302   19.8517 C.2     1  UNL1        0.2491
      7 O           1.3786    0.2377   18.8701 O.2     1  UNL1       -0.2699
      8 C           1.1741    0.8836   21.7925 C.3     1  UNL1        0.0981
      9 C           1.0719    1.2066   23.2538 C.3     1  UNL1        0.0442
     10 C           3.3141   -1.4211   19.3721 C.ar    1  UNL1        0.0558
     11 C           4.5827   -0.9418   18.7312 C.ar    1  UNL1        0.0047
     12 C           5.6016   -1.9327   18.2516 C.ar    1  UNL1        0.0025
     13 C           5.3518   -3.4029   18.4129 C.ar    1  UNL1        0.0296
     14 C           4.0832   -3.8822   19.0538 C.ar    1  UNL1        0.1403
     15 F           3.8333   -5.3525   19.2151 F       1  UNL1       -0.2042
     16 C           3.0643   -2.8913   19.5334 C.ar    1  UNL1        0.0341
     17 C           3.7195   -0.4742   27.6600 C.1     1  UNL1       -0.0405
     18 C           2.8029    0.1936   26.6783 C.1     1  UNL1       -0.0583
     19 C           5.2399   -1.2899   32.5614 C.3     1  UNL1        0.0521
     20 C           5.3964   -1.5500   31.0924 C.ar    1  UNL1        0.0600
     21 C           6.4694   -2.4780   30.6051 C.ar    1  UNL1        0.0148
     22 C           6.6258   -2.7380   29.1361 C.ar    1  UNL1        0.0034
     23 C           5.7092   -2.0701   28.1544 C.ar    1  UNL1        0.0276
     24 C           4.6362   -1.1422   28.6417 C.ar    1  UNL1        0.1224
     25 N           4.4798   -0.8821   30.1107 N.ar    1  UNL1       -0.2414
@<TRIPOS>BOND
     1    19    20    1
     2    20    21   ar
     3    21    22   ar
     4    22    23   ar
     5    23    24   ar
     6    24    17    1
     7    17    18    3
     8    18     1    1
     9     1     2    2
    10     2     3    1
    11     3     4    1
    12     4     5    1
    13     5     6   am
    14     6     7    2
    15     6    10    1
    16    10    11   ar
    17    11    12   ar
    18    12    13   ar
    19    13    14   ar
    20    14    15    1
    21    14    16   ar
    22     5     8    1
    23     8     9    1
    24    24    25   ar
    25    25    20   ar
    26     9     2    1
    27    16    10   ar
