@<TRIPOS>MOLECULE
*****
 30 34 0 0 0
SMALL
GASTEIGER

@<TRIPOS>ATOM
      1 C           5.7875   -1.8649   27.0858 C.3     1  UNL1        0.1301
      2 N           6.2774   -3.0512   27.8621 N.ar    1  UNL1       -0.3276
      3 C           6.7669   -4.3444   27.2807 C.ar    1  UNL1        0.0492
      4 C           7.1557   -5.2451   28.4155 C.ar    1  UNL1       -0.0064
      5 C           6.9065   -4.5085   29.6982 C.ar    1  UNL1        0.0131
      6 C           7.1038   -4.8972   31.1334 C.ar    1  UNL1        0.0027
      7 C           6.7582   -3.9301   32.2267 C.ar    1  UNL1        0.0177
      8 C           6.2153   -2.5742   31.8848 C.ar    1  UNL1        0.0683
      9 C           6.0181   -2.1855   30.4495 C.ar    1  UNL1        0.0348
     10 C           6.3637   -3.1526   29.3562 C.ar    1  UNL1        0.0609
     11 C           7.6865   -6.6195   28.1341 C.3     1  UNL1        0.0447
     12 C           7.8284   -7.0933   26.7180 C.3     1  UNL1        0.0736
     13 N           7.4395   -6.1926   25.5833 N.3     1  UNL1       -0.2922
     14 C           6.9088   -4.8182   25.8646 C.3     1  UNL1        0.1128
     15 H           6.7203   -6.6828   25.0514 H       1  UNL1        0.1236
     16 N           5.8697   -1.6071   32.9781 N.ar    1  UNL1       -0.2729
     17 C           6.7487   -0.4189   33.2338 C.ar    1  UNL1        0.0860
     18 C           6.4031    0.5482   34.3271 C.ar    1  UNL1        0.0561
     19 C           5.1785    0.3271   35.1646 C.ar    1  UNL1        0.1453
     20 C           4.2995   -0.8611   34.9089 C.ar    1  UNL1        0.0980
     21 C           4.6451   -1.8282   33.8156 C.ar    1  UNL1        0.2679
     22 O           3.7661   -3.0165   33.5598 O.2     1  UNL1       -0.2665
     23 O           4.8329    1.2942   36.2579 O.3     1  UNL1       -0.4704
     24 C           4.3016    0.7885   37.5663 C.3     1  UNL1        0.2320
     25 C           3.0058    1.3184   38.1048 C.ar    1  UNL1        0.0212
     26 C           2.1810    0.4793   39.0352 C.ar    1  UNL1       -0.0007
     27 C           0.8852    1.0093   39.5736 C.ar    1  UNL1       -0.0002
     28 C           0.4142    2.3784   39.1817 C.ar    1  UNL1       -0.0000
     29 C           1.2389    3.2176   38.2513 C.ar    1  UNL1       -0.0002
     30 C           2.5347    2.6876   37.7128 C.ar    1  UNL1       -0.0007
@<TRIPOS>BOND
     1     1     2    1
     2     2     3   ar
     3     3     4   ar
     4     4     5   ar
     5     5     6   ar
     6     6     7   ar
     7     7     8   ar
     8     8    16    1
     9    16    17   ar
    10    17    18   ar
    11    18    19   ar
    12    19    23    1
    13    23    24    1
    14    24    25    1
    15    25    26   ar
    16    26    27   ar
    17    27    28   ar
    18    28    29   ar
    19    29    30   ar
    20    19    20   ar
    21    20    21   ar
    22    21    22    2
    23     8     9   ar
    24     9    10   ar
    25     4    11    1
    26    11    12    1
    27    12    13    1
    28    13    14    1
    29    10     2   ar
    30    14     3    1
    31    10     5   ar
    32    21    16   ar
    33    30    25   ar
    34    13    15    1
@<TRIPOS>MOLECULE
*****
 30 34 0 0 0
SMALL
GASTEIGER

@<TRIPOS>ATOM
      1 C           6.6829   -3.6933   26.5521 C.3     1  UNL1        0.1301
      2 N           7.4154   -4.8547   25.9482 N.ar    1  UNL1       -0.3276
      3 C           7.9669   -6.0335   26.6941 C.ar    1  UNL1        0.0492
      4 C           8.6172   -6.9486   25.6993 C.ar    1  UNL1       -0.0064
      5 C           8.4676   -6.3353   24.3385 C.ar    1  UNL1        0.0131
      6 C           8.9118   -6.7881   22.9793 C.ar    1  UNL1        0.0027
      7 C           8.6132   -5.9468   21.7738 C.ar    1  UNL1        0.0177
      8 C           7.8704   -4.6527   21.9276 C.ar    1  UNL1        0.0683
      9 C           7.4262   -4.2000   23.2869 C.ar    1  UNL1        0.0348
     10 C           7.7248   -5.0413   24.4924 C.ar    1  UNL1        0.0609
     11 C           9.2616   -8.2219   26.1609 C.3     1  UNL1        0.0447
     12 C           9.2557   -8.5803   27.6175 C.3     1  UNL1        0.0736
     13 N           8.6053   -7.6652   28.6123 N.3     1  UNL1       -0.2922
     14 C           7.9609   -6.3918   28.1506 C.3     1  UNL1        0.1128
     15 H           9.3250   -7.4036   29.2861 H       1  UNL1        0.1236
     16 N           7.5718   -3.8114   20.7222 N.ar    1  UNL1       -0.2729
     17 C           8.6660   -3.0183   20.0715 C.ar    1  UNL1        0.0860
     18 C           8.3674   -2.1770   18.8660 C.ar    1  UNL1        0.0561
     19 C           6.9746   -2.1289   18.3114 C.ar    1  UNL1        0.1453
     20 C           5.8804   -2.9220   18.9620 C.ar    1  UNL1        0.0980
     21 C           6.1790   -3.7633   20.1675 C.ar    1  UNL1        0.2679
     22 O           5.0848   -4.5565   20.8183 O.2     1  UNL1       -0.2665
     23 O           6.6760   -1.2876   17.1059 O.3     1  UNL1       -0.4704
     24 C           6.4319    0.1843   17.2603 C.3     1  UNL1        0.2320
     25 C           5.0809    0.6804   17.6831 C.ar    1  UNL1        0.0212
     26 C           4.9206    2.0850   18.1842 C.ar    1  UNL1       -0.0007
     27 C           3.5697    2.5809   18.6069 C.ar    1  UNL1       -0.0002
     28 C           2.3789    1.6722   18.5285 C.ar    1  UNL1       -0.0000
     29 C           2.5390    0.2675   18.0273 C.ar    1  UNL1       -0.0002
     30 C           3.8901   -0.2285   17.6046 C.ar    1  UNL1       -0.0007
@<TRIPOS>BOND
     1     1     2    1
     2     2     3   ar
     3     3     4   ar
     4     4     5   ar
     5     5     6   ar
     6     6     7   ar
     7     7     8   ar
     8     8    16    1
     9    16    17   ar
    10    17    18   ar
    11    18    19   ar
    12    19    23    1
    13    23    24    1
    14    24    25    1
    15    25    26   ar
    16    26    27   ar
    17    27    28   ar
    18    28    29   ar
    19    29    30   ar
    20    19    20   ar
    21    20    21   ar
    22    21    22    2
    23     8     9   ar
    24     9    10   ar
    25     4    11    1
    26    11    12    1
    27    12    13    1
    28    13    14    1
    29    10     2   ar
    30    14     3    1
    31    10     5   ar
    32    21    16   ar
    33    30    25   ar
    34    13    15    1
@<TRIPOS>MOLECULE
*****
 30 34 0 0 0
SMALL
GASTEIGER

@<TRIPOS>ATOM
      1 C           5.5153   -1.0673   29.1521 C.3     1  UNL1        0.1301
      2 N           5.9978   -2.4693   28.9249 N.ar    1  UNL1       -0.3276
      3 C           6.3499   -3.4642   29.9909 C.ar    1  UNL1        0.0492
      4 C           6.7827   -4.7323   29.3166 C.ar    1  UNL1       -0.0064
      5 C           6.6981   -4.5211   27.8340 C.ar    1  UNL1        0.0131
      6 C           7.0001   -5.4217   26.6731 C.ar    1  UNL1        0.0027
      7 C           6.8171   -4.9237   25.2700 C.ar    1  UNL1        0.0177
      8 C           6.3320   -3.5251   25.0279 C.ar    1  UNL1        0.0683
      9 C           6.0300   -2.6245   26.1888 C.ar    1  UNL1        0.0348
     10 C           6.2130   -3.1225   27.5918 C.ar    1  UNL1        0.0609
     11 C           7.1978   -5.9154   30.1399 C.3     1  UNL1        0.0447
     12 C           7.1802   -5.8304   31.6373 C.3     1  UNL1        0.0736
     13 N           6.7474   -4.5623   32.3116 N.3     1  UNL1       -0.2922
     14 C           6.3322   -3.3792   31.4883 C.3     1  UNL1        0.1128
     15 H           7.5277   -4.2570   32.8933 H       1  UNL1        0.1236
     16 N           6.1490   -3.0271   23.6249 N.ar    1  UNL1       -0.2729
     17 C           4.9713   -3.4823   22.8152 C.ar    1  UNL1        0.0860
     18 C           4.7882   -2.9842   21.4121 C.ar    1  UNL1        0.0561
     19 C           5.7829   -2.0311   20.8189 C.ar    1  UNL1        0.1453
     20 C           6.9606   -1.5759   21.6285 C.ar    1  UNL1        0.0980
     21 C           7.1437   -2.0739   23.0316 C.ar    1  UNL1        0.2679
     22 O           8.3214   -1.6187   23.8414 O.2     1  UNL1       -0.2665
     23 O           5.5999   -1.5331   19.4158 O.3     1  UNL1       -0.4704
     24 C           4.3051   -1.7732   18.6977 C.3     1  UNL1        0.2320
     25 C           3.1313   -0.8729   18.9462 C.ar    1  UNL1        0.0212
     26 C           2.9792    0.3956   18.1602 C.ar    1  UNL1       -0.0007
     27 C           1.8055    1.2958   18.4089 C.ar    1  UNL1       -0.0002
     28 C           0.7838    0.9275   19.4435 C.ar    1  UNL1       -0.0000
     29 C           0.9357   -0.3410   20.2295 C.ar    1  UNL1       -0.0002
     30 C           2.1095   -1.2412   19.9809 C.ar    1  UNL1       -0.0007
@<TRIPOS>BOND
     1     1     2    1
     2     2     3   ar
     3     3     4   ar
     4     4     5   ar
     5     5     6   ar
     6     6     7   ar
     7     7     8   ar
     8     8    16    1
     9    16    17   ar
    10    17    18   ar
    11    18    19   ar
    12    19    23    1
    13    23    24    1
    14    24    25    1
    15    25    26   ar
    16    26    27   ar
    17    27    28   ar
    18    28    29   ar
    19    29    30   ar
    20    19    20   ar
    21    20    21   ar
    22    21    22    2
    23     8     9   ar
    24     9    10   ar
    25     4    11    1
    26    11    12    1
    27    12    13    1
    28    13    14    1
    29    10     2   ar
    30    14     3    1
    31    10     5   ar
    32    21    16   ar
    33    30    25   ar
    34    13    15    1
@<TRIPOS>MOLECULE
*****
 30 34 0 0 0
SMALL
GASTEIGER

@<TRIPOS>ATOM
      1 C           7.7573   -6.9108   27.6571 C.3     1  UNL1        0.1301
      2 N           7.2551   -5.5825   28.1402 N.ar    1  UNL1       -0.3276
      3 C           7.1146   -5.1611   29.5730 C.ar    1  UNL1        0.0492
      4 C           6.5780   -3.7605   29.5937 C.ar    1  UNL1       -0.0064
      5 C           6.3869   -3.3163   28.1738 C.ar    1  UNL1        0.0131
      6 C           5.8859   -2.0320   27.5827 C.ar    1  UNL1        0.0027
      7 C           5.8033   -1.8736   26.0933 C.ar    1  UNL1        0.0177
      8 C           6.2218   -2.9997   25.1950 C.ar    1  UNL1        0.0683
      9 C           6.7228   -4.2840   25.7861 C.ar    1  UNL1        0.0348
     10 C           6.8054   -4.4424   27.2755 C.ar    1  UNL1        0.0609
     11 C           6.3328   -3.0706   30.9028 C.3     1  UNL1        0.0447
     12 C           6.6241   -3.7813   32.1912 C.3     1  UNL1        0.0736
     13 N           7.1607   -5.1819   32.1705 N.3     1  UNL1       -0.2922
     14 C           7.4060   -5.8718   30.8614 C.3     1  UNL1        0.1128
     15 H           6.4976   -5.7589   32.6877 H       1  UNL1        0.1236
     16 N           6.1392   -2.8413   23.7057 N.ar    1  UNL1       -0.2729
     17 C           5.1821   -3.6822   22.9141 C.ar    1  UNL1        0.0860
     18 C           5.0995   -3.5238   21.4247 C.ar    1  UNL1        0.0561
     19 C           5.9741   -2.5247   20.7271 C.ar    1  UNL1        0.1453
     20 C           6.9313   -1.6839   21.5187 C.ar    1  UNL1        0.0980
     21 C           7.0139   -1.8422   23.0081 C.ar    1  UNL1        0.2679
     22 O           7.9710   -1.0014   23.7998 O.2     1  UNL1       -0.2665
     23 O           5.8916   -2.3663   19.2377 O.3     1  UNL1       -0.4704
     24 C           4.5625   -2.4488   18.5473 C.3     1  UNL1        0.2320
     25 C           3.5112   -1.4136   18.8177 C.ar    1  UNL1        0.0212
     26 C           2.5033   -1.6347   19.9064 C.ar    1  UNL1       -0.0007
     27 C           1.4521   -0.5995   20.1768 C.ar    1  UNL1       -0.0002
     28 C           1.4087    0.6568   19.3585 C.ar    1  UNL1       -0.0000
     29 C           2.4165    0.8780   18.2697 C.ar    1  UNL1       -0.0002
     30 C           3.4678   -0.1572   17.9993 C.ar    1  UNL1       -0.0007
@<TRIPOS>BOND
     1     1     2    1
     2     2     3   ar
     3     3     4   ar
     4     4     5   ar
     5     5     6   ar
     6     6     7   ar
     7     7     8   ar
     8     8    16    1
     9    16    17   ar
    10    17    18   ar
    11    18    19   ar
    12    19    23    1
    13    23    24    1
    14    24    25    1
    15    25    26   ar
    16    26    27   ar
    17    27    28   ar
    18    28    29   ar
    19    29    30   ar
    20    19    20   ar
    21    20    21   ar
    22    21    22    2
    23     8     9   ar
    24     9    10   ar
    25     4    11    1
    26    11    12    1
    27    12    13    1
    28    13    14    1
    29    10     2   ar
    30    14     3    1
    31    10     5   ar
    32    21    16   ar
    33    30    25   ar
    34    13    15    1
@<TRIPOS>MOLECULE
*****
 30 34 0 0 0
SMALL
GASTEIGER

@<TRIPOS>ATOM
      1 C           5.7227   -1.5302   27.1182 C.3     1  UNL1        0.1301
      2 N           6.3327   -2.8849   26.9113 N.ar    1  UNL1       -0.3276
      3 C           6.6710   -3.8733   27.9877 C.ar    1  UNL1        0.0492
      4 C           7.2589   -5.0882   27.3333 C.ar    1  UNL1       -0.0064
      5 C           7.2839   -4.8507   25.8524 C.ar    1  UNL1        0.0131
      6 C           7.7539   -5.6985   24.7077 C.ar    1  UNL1        0.0027
      7 C           7.6516   -5.1845   23.3022 C.ar    1  UNL1        0.0177
      8 C           7.0792   -3.8228   23.0414 C.ar    1  UNL1        0.0683
      9 C           6.6092   -2.9750   24.1861 C.ar    1  UNL1        0.0348
     10 C           6.7115   -3.4890   25.5916 C.ar    1  UNL1        0.0609
     11 C           7.6954   -6.2538   28.1704 C.3     1  UNL1        0.0447
     12 C           7.5441   -6.2045   29.6619 C.3     1  UNL1        0.0736
     13 N           6.9562   -4.9895   30.3163 N.3     1  UNL1       -0.2922
     14 C           6.5197   -3.8239   29.4792 C.3     1  UNL1        0.1128
     15 H           7.6575   -4.6377   30.9680 H       1  UNL1        0.1236
     16 N           6.9769   -3.3089   21.6359 N.ar    1  UNL1       -0.2729
     17 C           8.0789   -2.4682   21.0627 C.ar    1  UNL1        0.0860
     18 C           7.9766   -1.9542   19.6572 C.ar    1  UNL1        0.0561
     19 C           6.7722   -2.2810   18.8250 C.ar    1  UNL1        0.1453
     20 C           5.6702   -3.1217   19.3982 C.ar    1  UNL1        0.0980
     21 C           5.7725   -3.6356   20.8037 C.ar    1  UNL1        0.2679
     22 O           4.6704   -4.4763   21.3769 O.2     1  UNL1       -0.2665
     23 O           6.6699   -1.7670   17.4195 O.3     1  UNL1       -0.4704
     24 C           6.4107   -0.3108   17.1704 C.3     1  UNL1        0.2320
     25 C           5.1313    0.3147   17.6417 C.ar    1  UNL1        0.0212
     26 C           5.1469    1.6836   18.2548 C.ar    1  UNL1       -0.0007
     27 C           3.8676    2.3090   18.7259 C.ar    1  UNL1       -0.0002
     28 C           2.5726    1.5655   18.5840 C.ar    1  UNL1       -0.0000
     29 C           2.5568    0.1966   17.9709 C.ar    1  UNL1       -0.0002
     30 C           3.8362   -0.4288   17.4997 C.ar    1  UNL1       -0.0007
@<TRIPOS>BOND
     1     1     2    1
     2     2     3   ar
     3     3     4   ar
     4     4     5   ar
     5     5     6   ar
     6     6     7   ar
     7     7     8   ar
     8     8    16    1
     9    16    17   ar
    10    17    18   ar
    11    18    19   ar
    12    19    23    1
    13    23    24    1
    14    24    25    1
    15    25    26   ar
    16    26    27   ar
    17    27    28   ar
    18    28    29   ar
    19    29    30   ar
    20    19    20   ar
    21    20    21   ar
    22    21    22    2
    23     8     9   ar
    24     9    10   ar
    25     4    11    1
    26    11    12    1
    27    12    13    1
    28    13    14    1
    29    10     2   ar
    30    14     3    1
    31    10     5   ar
    32    21    16   ar
    33    30    25   ar
    34    13    15    1
@<TRIPOS>MOLECULE
*****
 30 34 0 0 0
SMALL
GASTEIGER

@<TRIPOS>ATOM
      1 C           1.8460    3.7591   34.3832 C.3     1  UNL1        0.1301
      2 N           2.5553    2.4619   34.1298 N.ar    1  UNL1       -0.3276
      3 C           3.4189    1.7234   35.1089 C.ar    1  UNL1        0.0492
      4 C           3.9229    0.4805   34.4370 C.ar    1  UNL1       -0.0064
      5 C           3.3706    0.4510   33.0426 C.ar    1  UNL1        0.0131
      6 C           3.5282   -0.5328   31.9213 C.ar    1  UNL1        0.0027
      7 C           2.8405   -0.2920   30.6102 C.ar    1  UNL1        0.0177
      8 C           1.9953    0.9326   30.4203 C.ar    1  UNL1        0.0683
      9 C           1.8377    1.9163   31.5416 C.ar    1  UNL1        0.0348
     10 C           2.5254    1.6755   32.8528 C.ar    1  UNL1        0.0609
     11 C           4.8195   -0.4637   35.1816 C.3     1  UNL1        0.0447
     12 C           5.2122   -0.1651   36.5981 C.3     1  UNL1        0.0736
     13 N           4.7083    1.0778   37.2700 N.3     1  UNL1       -0.2922
     14 C           3.8116    2.0220   36.5254 C.3     1  UNL1        0.1128
     15 H           5.5291    1.6129   37.5532 H       1  UNL1        0.1236
     16 N           1.3076    1.1734   29.1091 N.ar    1  UNL1       -0.2729
     17 C           2.1058    1.5877   27.9087 C.ar    1  UNL1        0.0860
     18 C           1.4181    1.8285   26.5975 C.ar    1  UNL1        0.0561
     19 C          -0.0677    1.6549   26.4868 C.ar    1  UNL1        0.1453
     20 C          -0.8658    1.2406   27.6873 C.ar    1  UNL1        0.0980
     21 C          -0.1782    0.9998   28.9984 C.ar    1  UNL1        0.2679
     22 O          -0.9763    0.5855   30.1990 O.2     1  UNL1       -0.2665
     23 O          -0.7553    1.8957   25.1756 O.3     1  UNL1       -0.4704
     24 C          -1.2566    3.2671   24.8324 C.3     1  UNL1        0.2320
     25 C          -2.7167    3.5860   24.9609 C.ar    1  UNL1        0.0212
     26 C          -3.2510    4.1511   26.2436 C.ar    1  UNL1       -0.0007
     27 C          -4.7110    4.4699   26.3720 C.ar    1  UNL1       -0.0002
     28 C          -5.6368    4.2238   25.2178 C.ar    1  UNL1       -0.0000
     29 C          -5.1026    3.6587   23.9350 C.ar    1  UNL1       -0.0002
     30 C          -3.6425    3.3398   23.8066 C.ar    1  UNL1       -0.0007
@<TRIPOS>BOND
     1     1     2    1
     2     2     3   ar
     3     3     4   ar
     4     4     5   ar
     5     5     6   ar
     6     6     7   ar
     7     7     8   ar
     8     8    16    1
     9    16    17   ar
    10    17    18   ar
    11    18    19   ar
    12    19    23    1
    13    23    24    1
    14    24    25    1
    15    25    26   ar
    16    26    27   ar
    17    27    28   ar
    18    28    29   ar
    19    29    30   ar
    20    19    20   ar
    21    20    21   ar
    22    21    22    2
    23     8     9   ar
    24     9    10   ar
    25     4    11    1
    26    11    12    1
    27    12    13    1
    28    13    14    1
    29    10     2   ar
    30    14     3    1
    31    10     5   ar
    32    21    16   ar
    33    30    25   ar
    34    13    15    1
@<TRIPOS>MOLECULE
*****
 30 34 0 0 0
SMALL
GASTEIGER

@<TRIPOS>ATOM
      1 C          -5.3768    3.5297   19.2241 C.3     1  UNL1        0.1301
      2 N          -4.7934    3.7025   20.5951 N.ar    1  UNL1       -0.3276
      3 C          -5.5294    4.1770   21.8130 C.ar    1  UNL1        0.0492
      4 C          -4.5625    4.1990   22.9596 C.ar    1  UNL1       -0.0064
      5 C          -3.2290    3.7380   22.4503 C.ar    1  UNL1        0.0131
      6 C          -1.9032    3.5580   23.1284 C.ar    1  UNL1        0.0027
      7 C          -0.7201    3.0712   22.3452 C.ar    1  UNL1        0.0177
      8 C          -0.8629    2.7644   20.8839 C.ar    1  UNL1        0.0683
      9 C          -2.1886    2.9444   20.2058 C.ar    1  UNL1        0.0348
     10 C          -3.3717    3.4312   20.9890 C.ar    1  UNL1        0.0609
     11 C          -5.0212    4.6358   24.3192 C.3     1  UNL1        0.0447
     12 C          -6.4468    5.0508   24.5323 C.3     1  UNL1        0.0736
     13 N          -7.4137    5.0289   23.3857 N.3     1  UNL1       -0.2922
     14 C          -6.9550    4.5920   22.0260 C.3     1  UNL1        0.1128
     15 H          -7.7720    5.9785   23.2845 H       1  UNL1        0.1236
     16 N           0.3202    2.2775   20.1007 N.ar    1  UNL1       -0.2729
     17 C           1.1805    3.2551   19.3563 C.ar    1  UNL1        0.0860
     18 C           2.3636    2.7682   18.5731 C.ar    1  UNL1        0.0561
     19 C           2.6863    1.3039   18.5344 C.ar    1  UNL1        0.1453
     20 C           1.8260    0.3264   19.2788 C.ar    1  UNL1        0.0980
     21 C           0.6429    0.8132   20.0620 C.ar    1  UNL1        0.2679
     22 O          -0.2175   -0.1643   20.8064 O.2     1  UNL1       -0.2665
     23 O           3.8693    0.8171   17.7512 O.3     1  UNL1       -0.4704
     24 C           3.9281   -0.6090   17.2898 C.3     1  UNL1        0.2320
     25 C           4.6163   -1.6421   18.1319 C.ar    1  UNL1        0.0212
     26 C           6.1083   -1.6136   18.2836 C.ar    1  UNL1       -0.0007
     27 C           6.7964   -2.6467   19.1256 C.ar    1  UNL1       -0.0002
     28 C           5.9926   -3.7083   19.8161 C.ar    1  UNL1       -0.0000
     29 C           4.5005   -3.7368   19.6645 C.ar    1  UNL1       -0.0002
     30 C           3.8123   -2.7037   18.8224 C.ar    1  UNL1       -0.0007
@<TRIPOS>BOND
     1     1     2    1
     2     2     3   ar
     3     3     4   ar
     4     4     5   ar
     5     5     6   ar
     6     6     7   ar
     7     7     8   ar
     8     8    16    1
     9    16    17   ar
    10    17    18   ar
    11    18    19   ar
    12    19    23    1
    13    23    24    1
    14    24    25    1
    15    25    26   ar
    16    26    27   ar
    17    27    28   ar
    18    28    29   ar
    19    29    30   ar
    20    19    20   ar
    21    20    21   ar
    22    21    22    2
    23     8     9   ar
    24     9    10   ar
    25     4    11    1
    26    11    12    1
    27    12    13    1
    28    13    14    1
    29    10     2   ar
    30    14     3    1
    31    10     5   ar
    32    21    16   ar
    33    30    25   ar
    34    13    15    1
@<TRIPOS>MOLECULE
*****
 30 34 0 0 0
SMALL
GASTEIGER

@<TRIPOS>ATOM
      1 C           1.7485    3.6490   34.0367 C.3     1  UNL1        0.1301
      2 N           2.5032    2.3618   33.8842 N.ar    1  UNL1       -0.3276
      3 C           3.3027    1.6766   34.9525 C.ar    1  UNL1        0.0492
      4 C           3.8846    0.4250   34.3652 C.ar    1  UNL1       -0.0064
      5 C           3.4447    0.3367   32.9339 C.ar    1  UNL1        0.0131
      6 C           3.7113   -0.6790   31.8628 C.ar    1  UNL1        0.0027
      7 C           3.1241   -0.4978   30.4944 C.ar    1  UNL1        0.0177
      8 C           2.2704    0.6992   30.1971 C.ar    1  UNL1        0.0683
      9 C           2.0038    1.7149   31.2682 C.ar    1  UNL1        0.0348
     10 C           2.5910    1.5337   32.6366 C.ar    1  UNL1        0.0609
     11 C           4.7397   -0.4725   35.2096 C.3     1  UNL1        0.0447
     12 C           5.0130   -0.1185   36.6414 C.3     1  UNL1        0.0736
     13 N           4.4311    1.1331   37.2287 N.3     1  UNL1       -0.2922
     14 C           3.5760    2.0306   36.3843 C.3     1  UNL1        0.1128
     15 H           5.2155    1.6968   37.5565 H       1  UNL1        0.1236
     16 N           1.6833    0.8804   28.8287 N.ar    1  UNL1       -0.2729
     17 C           2.5726    1.2228   27.6704 C.ar    1  UNL1        0.0860
     18 C           1.9854    1.4041   26.3021 C.ar    1  UNL1        0.0561
     19 C           0.5090    1.2429   26.0921 C.ar    1  UNL1        0.1453
     20 C          -0.3803    0.9004   27.2504 C.ar    1  UNL1        0.0980
     21 C           0.2068    0.7192   28.6188 C.ar    1  UNL1        0.2679
     22 O          -0.6825    0.3767   29.7771 O.2     1  UNL1       -0.2665
     23 O          -0.0782    1.4241   24.7237 O.3     1  UNL1       -0.4704
     24 C           0.7871    1.8952   23.5926 C.3     1  UNL1        0.2320
     25 C           1.1691    0.9468   22.4951 C.ar    1  UNL1        0.0212
     26 C           0.3368    0.8664   21.2497 C.ar    1  UNL1       -0.0007
     27 C           0.7189   -0.0820   20.1523 C.ar    1  UNL1       -0.0002
     28 C           1.9332   -0.9500   20.3001 C.ar    1  UNL1       -0.0000
     29 C           2.7656   -0.8697   21.5454 C.ar    1  UNL1       -0.0002
     30 C           2.3835    0.0787   22.6429 C.ar    1  UNL1       -0.0007
@<TRIPOS>BOND
     1     1     2    1
     2     2     3   ar
     3     3     4   ar
     4     4     5   ar
     5     5     6   ar
     6     6     7   ar
     7     7     8   ar
     8     8    16    1
     9    16    17   ar
    10    17    18   ar
    11    18    19   ar
    12    19    23    1
    13    23    24    1
    14    24    25    1
    15    25    26   ar
    16    26    27   ar
    17    27    28   ar
    18    28    29   ar
    19    29    30   ar
    20    19    20   ar
    21    20    21   ar
    22    21    22    2
    23     8     9   ar
    24     9    10   ar
    25     4    11    1
    26    11    12    1
    27    12    13    1
    28    13    14    1
    29    10     2   ar
    30    14     3    1
    31    10     5   ar
    32    21    16   ar
    33    30    25   ar
    34    13    15    1
@<TRIPOS>MOLECULE
*****
 30 34 0 0 0
SMALL
GASTEIGER

@<TRIPOS>ATOM
      1 C           8.4601    1.3798   34.1737 C.3     1  UNL1        0.1301
      2 N           7.1404    0.8205   34.6159 N.ar    1  UNL1       -0.3276
      3 C           6.2801    1.3594   35.7202 C.ar    1  UNL1        0.0492
      4 C           5.0573    0.4962   35.8184 C.ar    1  UNL1       -0.0064
      5 C           5.1620   -0.5762   34.7748 C.ar    1  UNL1        0.0131
      6 C           4.2513   -1.7093   34.4052 C.ar    1  UNL1        0.0027
      7 C           4.6281   -2.6420   33.2924 C.ar    1  UNL1        0.0177
      8 C           5.9155   -2.4415   32.5493 C.ar    1  UNL1        0.0683
      9 C           6.8262   -1.3084   32.9189 C.ar    1  UNL1        0.0348
     10 C           6.4494   -0.3757   34.0316 C.ar    1  UNL1        0.0609
     11 C           4.0066    0.7981   36.8454 C.3     1  UNL1        0.0447
     12 C           4.1786    1.9633   37.7742 C.3     1  UNL1        0.0736
     13 N           5.4014    2.8265   37.6760 N.3     1  UNL1       -0.2922
     14 C           6.4521    2.5246   36.6490 C.3     1  UNL1        0.1128
     15 H           5.8605    2.7913   38.5861 H       1  UNL1        0.1236
     16 N           6.2922   -3.3742   31.4365 N.ar    1  UNL1       -0.2729
     17 C           6.7473   -4.7689   31.7487 C.ar    1  UNL1        0.0860
     18 C           7.1241   -5.7016   30.6359 C.ar    1  UNL1        0.0561
     19 C           7.0457   -5.2395   29.2110 C.ar    1  UNL1        0.1453
     20 C           6.5906   -3.8448   28.8989 C.ar    1  UNL1        0.0980
     21 C           6.2139   -2.9121   30.0116 C.ar    1  UNL1        0.2679
     22 O           5.7588   -1.5173   29.6995 O.2     1  UNL1       -0.2665
     23 O           7.4225   -6.1722   28.0983 O.3     1  UNL1       -0.4704
     24 C           6.7173   -6.0870   26.7771 C.3     1  UNL1        0.2320
     25 C           7.4897   -6.2552   25.5023 C.ar    1  UNL1        0.0212
     26 C           7.4969   -5.1581   24.4794 C.ar    1  UNL1       -0.0007
     27 C           8.2693   -5.3264   23.2047 C.ar    1  UNL1       -0.0002
     28 C           9.0345   -6.5917   22.9529 C.ar    1  UNL1       -0.0000
     29 C           9.0274   -7.6888   23.9758 C.ar    1  UNL1       -0.0002
     30 C           8.2549   -7.5206   25.2505 C.ar    1  UNL1       -0.0007
@<TRIPOS>BOND
     1     1     2    1
     2     2     3   ar
     3     3     4   ar
     4     4     5   ar
     5     5     6   ar
     6     6     7   ar
     7     7     8   ar
     8     8    16    1
     9    16    17   ar
    10    17    18   ar
    11    18    19   ar
    12    19    23    1
    13    23    24    1
    14    24    25    1
    15    25    26   ar
    16    26    27   ar
    17    27    28   ar
    18    28    29   ar
    19    29    30   ar
    20    19    20   ar
    21    20    21   ar
    22    21    22    2
    23     8     9   ar
    24     9    10   ar
    25     4    11    1
    26    11    12    1
    27    12    13    1
    28    13    14    1
    29    10     2   ar
    30    14     3    1
    31    10     5   ar
    32    21    16   ar
    33    30    25   ar
    34    13    15    1
