@<TRIPOS>MOLECULE
*****
 24 26 0 0 0
SMALL
GASTEIGER

@<TRIPOS>ATOM
      1 C          -7.2700  -16.5403   23.3886 C.ar    1  UNL1        0.2036
      2 N          -6.1727  -17.2376   22.6406 N.ar    1  UNL1       -0.2147
      3 C          -4.7639  -17.1831   23.1525 C.ar    1  UNL1        0.0911
      4 C          -4.4523  -16.4312   24.4125 C.ar    1  UNL1        0.0801
      5 C          -5.5496  -15.7338   25.1606 C.ar    1  UNL1        0.2645
      6 O          -5.2380  -14.9820   26.4205 O.2     1  UNL1       -0.2668
      7 N          -6.9585  -15.7884   24.6486 N.ar    1  UNL1       -0.2667
      8 C          -8.0558  -15.0910   25.3966 C.3     1  UNL1        0.1363
      9 C          -3.6666  -17.8805   22.4044 C.ar    1  UNL1        0.0485
     10 C          -3.7047  -19.3702   22.2334 C.ar    1  UNL1        0.0244
     11 C          -2.6074  -20.0676   21.4853 C.ar    1  UNL1        0.0991
     12 N          -1.4720  -19.2753   20.9083 N.ar    1  UNL1       -0.2400
     13 C          -1.4338  -17.7855   21.0794 C.ar    1  UNL1        0.1285
     14 C          -2.5311  -17.0881   21.8274 C.ar    1  UNL1        0.1606
     15 F          -2.4930  -15.5984   21.9985 F       1  UNL1       -0.2025
     16 C         -11.1209  -17.4541   23.0961 C.3     1  UNL1        0.1350
     17 C          -9.7121  -17.3996   23.6081 C.3     1  UNL1        0.1230
     18 N          -8.6790  -16.5948   22.8766 N.pl3   1  UNL1       -0.2744
     19 C          -9.0547  -15.8446   21.6333 C.3     1  UNL1        0.1256
     20 C         -10.4635  -15.8991   21.1214 C.3     1  UNL1        0.1635
     21 O         -11.4967  -16.7039   21.8528 O.3     1  UNL1       -0.3527
     22 C         -13.6107  -17.9482   23.6500 C.3     1  UNL1        0.0026
     23 C         -12.1541  -18.2589   23.8276 C.3     1  UNL1        0.0289
     24 C         -11.7305  -19.3743   24.7366 C.3     1  UNL1        0.0026
@<TRIPOS>BOND
     1    22    23    1
     2    23    24    1
     3    23    16    1
     4    16    17    1
     5    17    18    1
     6    18     1    1
     7     1     2   ar
     8     2     3   ar
     9     3     9    1
    10     9    10   ar
    11    10    11   ar
    12    11    12   ar
    13    12    13   ar
    14    13    14   ar
    15    14    15    1
    16     3     4   ar
    17     4     5   ar
    18     5     6    2
    19     5     7   ar
    20     7     8    1
    21    18    19    1
    22    19    20    1
    23    20    21    1
    24    21    16    1
    25     7     1   ar
    26    14     9   ar
@<TRIPOS>MOLECULE
*****
 24 26 0 0 0
SMALL
GASTEIGER

@<TRIPOS>ATOM
      1 C          -7.2356  -16.9529   23.5670 C.ar    1  UNL1        0.2036
      2 N          -6.1256  -17.6120   22.8033 N.ar    1  UNL1       -0.2147
      3 C          -4.6998  -17.2350   23.0771 C.ar    1  UNL1        0.0911
      4 C          -4.3841  -16.1988   24.1148 C.ar    1  UNL1        0.0801
      5 C          -5.4942  -15.5396   24.8785 C.ar    1  UNL1        0.2645
      6 O          -5.1785  -14.5035   25.9161 O.2     1  UNL1       -0.2668
      7 N          -6.9200  -15.9167   24.6046 N.ar    1  UNL1       -0.2667
      8 C          -8.0300  -15.2576   25.3684 C.3     1  UNL1        0.1363
      9 C          -3.5898  -17.8941   22.3134 C.ar    1  UNL1        0.0485
     10 C          -3.5988  -19.3802   22.1098 C.ar    1  UNL1        0.0244
     11 C          -2.4887  -20.0393   21.3460 C.ar    1  UNL1        0.0991
     12 N          -1.3696  -19.2124   20.7859 N.ar    1  UNL1       -0.2400
     13 C          -1.3606  -17.7262   20.9895 C.ar    1  UNL1        0.1285
     14 C          -2.4706  -17.0671   21.7533 C.ar    1  UNL1        0.1606
     15 F          -2.4616  -15.5810   21.9569 F       1  UNL1       -0.2025
     16 C         -10.6380  -17.5973   21.6283 C.3     1  UNL1        0.1350
     17 C          -9.2123  -17.2202   21.9022 C.3     1  UNL1        0.1230
     18 N          -8.6615  -17.3300   23.2931 N.pl3   1  UNL1       -0.2744
     19 C          -9.5363  -17.8167   24.4101 C.3     1  UNL1        0.1256
     20 C         -10.9621  -18.1938   24.1361 C.3     1  UNL1        0.1635
     21 O         -11.5129  -18.0841   22.7452 O.3     1  UNL1       -0.3527
     22 C         -11.8065  -16.2014   19.7747 C.3     1  UNL1        0.0026
     23 C         -11.1889  -17.4876   20.2374 C.3     1  UNL1        0.0289
     24 C         -11.1221  -18.6640   19.3093 C.3     1  UNL1        0.0026
@<TRIPOS>BOND
     1    22    23    1
     2    23    24    1
     3    23    16    1
     4    16    17    1
     5    17    18    1
     6    18     1    1
     7     1     2   ar
     8     2     3   ar
     9     3     9    1
    10     9    10   ar
    11    10    11   ar
    12    11    12   ar
    13    12    13   ar
    14    13    14   ar
    15    14    15    1
    16     3     4   ar
    17     4     5   ar
    18     5     6    2
    19     5     7   ar
    20     7     8    1
    21    18    19    1
    22    19    20    1
    23    20    21    1
    24    21    16    1
    25     7     1   ar
    26    14     9   ar
@<TRIPOS>MOLECULE
*****
 24 26 0 0 0
SMALL
GASTEIGER

@<TRIPOS>ATOM
      1 C          -7.7718  -18.1324   21.6349 C.ar    1  UNL1        0.2036
      2 N          -6.2742  -18.1319   21.5508 N.ar    1  UNL1       -0.2147
      3 C          -5.5808  -18.9683   20.5166 C.ar    1  UNL1        0.0911
      4 C          -6.3851  -19.8053   19.5664 C.ar    1  UNL1        0.0801
      5 C          -7.8828  -19.8058   19.6505 C.ar    1  UNL1        0.2645
      6 O          -8.6870  -20.6427   18.7005 O.2     1  UNL1       -0.2668
      7 N          -8.5761  -18.9693   20.6848 N.ar    1  UNL1       -0.2667
      8 C         -10.0738  -18.9697   20.7689 C.3     1  UNL1        0.1363
      9 C          -4.0832  -18.9679   20.4325 C.ar    1  UNL1        0.0485
     10 C          -3.4020  -18.4777   19.1892 C.ar    1  UNL1        0.0244
     11 C          -1.9044  -18.4773   19.1051 C.ar    1  UNL1        0.0991
     12 N          -1.0879  -18.9669   20.2643 N.ar    1  UNL1       -0.2400
     13 C          -1.7691  -19.4571   21.5076 C.ar    1  UNL1        0.1285
     14 C          -3.2668  -19.4576   21.5917 C.ar    1  UNL1        0.1606
     15 F          -3.9480  -19.9477   22.8349 F       1  UNL1       -0.2025
     16 C          -8.4127  -16.0037   24.9225 C.3     1  UNL1        0.1350
     17 C          -7.7195  -16.8402   23.8882 C.3     1  UNL1        0.1230
     18 N          -8.4652  -17.2959   22.6692 N.pl3   1  UNL1       -0.2744
     19 C          -9.9042  -16.9152   22.4843 C.3     1  UNL1        0.1256
     20 C         -10.5975  -16.0787   23.5185 C.3     1  UNL1        0.1635
     21 O          -9.8518  -15.6230   24.7376 O.3     1  UNL1       -0.3527
     22 C          -6.1782  -15.3731   26.0883 C.3     1  UNL1        0.0026
     23 C          -7.6670  -15.5480   26.1416 C.3     1  UNL1        0.0289
     24 C          -8.4100  -15.2671   27.4139 C.3     1  UNL1        0.0026
@<TRIPOS>BOND
     1    22    23    1
     2    23    24    1
     3    23    16    1
     4    16    17    1
     5    17    18    1
     6    18     1    1
     7     1     2   ar
     8     2     3   ar
     9     3     9    1
    10     9    10   ar
    11    10    11   ar
    12    11    12   ar
    13    12    13   ar
    14    13    14   ar
    15    14    15    1
    16     3     4   ar
    17     4     5   ar
    18     5     6    2
    19     5     7   ar
    20     7     8    1
    21    18    19    1
    22    19    20    1
    23    20    21    1
    24    21    16    1
    25     7     1   ar
    26    14     9   ar
@<TRIPOS>MOLECULE
*****
 24 26 0 0 0
SMALL
GASTEIGER

@<TRIPOS>ATOM
      1 C          -6.4228  -17.8593   22.5778 C.ar    1  UNL1        0.2036
      2 N          -7.9134  -18.0271   22.5719 N.ar    1  UNL1       -0.2147
      3 C          -8.7680  -17.1702   23.4580 C.ar    1  UNL1        0.0911
      4 C          -8.1322  -16.1455   24.3501 C.ar    1  UNL1        0.0801
      5 C          -6.6416  -15.9778   24.3560 C.ar    1  UNL1        0.2645
      6 O          -6.0057  -14.9532   25.2481 O.2     1  UNL1       -0.2668
      7 N          -5.7869  -16.8347   23.4699 N.ar    1  UNL1       -0.2667
      8 C          -4.2963  -16.6670   23.4758 C.3     1  UNL1        0.1363
      9 C         -10.2586  -17.3379   23.4521 C.ar    1  UNL1        0.0485
     10 C         -11.1099  -16.4502   22.5935 C.ar    1  UNL1        0.0244
     11 C         -12.6004  -16.6180   22.5876 C.ar    1  UNL1        0.0991
     12 N         -13.2398  -17.6734   23.4403 N.ar    1  UNL1       -0.2400
     13 C         -12.3885  -18.5612   24.2990 C.ar    1  UNL1        0.1285
     14 C         -10.8980  -18.3935   24.3049 C.ar    1  UNL1        0.1606
     15 F         -10.0467  -19.2812   25.1635 F       1  UNL1       -0.2025
     16 C          -3.4221  -19.0366   20.2626 C.3     1  UNL1        0.1350
     17 C          -4.2768  -18.1797   21.1488 C.3     1  UNL1        0.1230
     18 N          -5.5681  -18.7162   21.6916 N.pl3   1  UNL1       -0.2744
     19 C          -6.0047  -20.1096   21.3484 C.3     1  UNL1        0.1256
     20 C          -5.1500  -20.9665   20.4623 C.3     1  UNL1        0.1635
     21 O          -3.8587  -20.4299   19.9194 O.3     1  UNL1       -0.3527
     22 C          -2.0962  -17.8575   18.3648 C.3     1  UNL1        0.0026
     23 C          -2.1308  -18.5001   19.7197 C.3     1  UNL1        0.0289
     24 C          -0.8741  -18.6061   20.5318 C.3     1  UNL1        0.0026
@<TRIPOS>BOND
     1    22    23    1
     2    23    24    1
     3    23    16    1
     4    16    17    1
     5    17    18    1
     6    18     1    1
     7     1     2   ar
     8     2     3   ar
     9     3     9    1
    10     9    10   ar
    11    10    11   ar
    12    11    12   ar
    13    12    13   ar
    14    13    14   ar
    15    14    15    1
    16     3     4   ar
    17     4     5   ar
    18     5     6    2
    19     5     7   ar
    20     7     8    1
    21    18    19    1
    22    19    20    1
    23    20    21    1
    24    21    16    1
    25     7     1   ar
    26    14     9   ar
@<TRIPOS>MOLECULE
*****
 24 26 0 0 0
SMALL
GASTEIGER

@<TRIPOS>ATOM
      1 C          -6.7589  -16.9054   23.6604 C.ar    1  UNL1        0.2036
      2 N          -8.0640  -17.1259   22.9547 N.ar    1  UNL1       -0.2147
      3 C          -9.3375  -16.6068   23.5536 C.ar    1  UNL1        0.0911
      4 C          -9.3059  -15.8671   24.8582 C.ar    1  UNL1        0.0801
      5 C          -8.0008  -15.6466   25.5639 C.ar    1  UNL1        0.2645
      6 O          -7.9691  -14.9070   26.8684 O.2     1  UNL1       -0.2668
      7 N          -6.7272  -16.1658   24.9649 N.ar    1  UNL1       -0.2667
      8 C          -5.4221  -15.9453   25.6706 C.3     1  UNL1        0.1363
      9 C         -10.6427  -16.8272   22.8479 C.ar    1  UNL1        0.0485
     10 C         -10.9173  -16.1356   21.5455 C.ar    1  UNL1        0.0244
     11 C         -12.2224  -16.3561   20.8398 C.ar    1  UNL1        0.0991
     12 N         -13.2530  -17.2682   21.4366 N.ar    1  UNL1       -0.2400
     13 C         -12.9784  -17.9599   22.7390 C.ar    1  UNL1        0.1285
     14 C         -11.6732  -17.7394   23.4447 C.ar    1  UNL1        0.1606
     15 F         -11.3986  -18.4310   24.7471 F       1  UNL1       -0.2025
     16 C          -4.2563  -19.0423   21.4421 C.3     1  UNL1        0.1350
     17 C          -5.5297  -18.5232   22.0410 C.3     1  UNL1        0.1230
     18 N          -5.4854  -17.4246   23.0614 N.pl3   1  UNL1       -0.2744
     19 C          -4.1676  -16.8452   23.4828 C.3     1  UNL1        0.1256
     20 C          -2.8941  -17.3643   22.8838 C.3     1  UNL1        0.1635
     21 O          -2.9385  -18.4629   21.8635 O.3     1  UNL1       -0.3527
     22 C          -3.1487  -20.3383   19.4816 C.3     1  UNL1        0.0026
     23 C          -4.3007  -20.1409   20.4217 C.3     1  UNL1        0.0289
     24 C          -5.4971  -21.0421   20.3415 C.3     1  UNL1        0.0026
@<TRIPOS>BOND
     1    22    23    1
     2    23    24    1
     3    23    16    1
     4    16    17    1
     5    17    18    1
     6    18     1    1
     7     1     2   ar
     8     2     3   ar
     9     3     9    1
    10     9    10   ar
    11    10    11   ar
    12    11    12   ar
    13    12    13   ar
    14    13    14   ar
    15    14    15    1
    16     3     4   ar
    17     4     5   ar
    18     5     6    2
    19     5     7   ar
    20     7     8    1
    21    18    19    1
    22    19    20    1
    23    20    21    1
    24    21    16    1
    25     7     1   ar
    26    14     9   ar
@<TRIPOS>MOLECULE
*****
 24 26 0 0 0
SMALL
GASTEIGER

@<TRIPOS>ATOM
      1 C         -13.0085   -5.0407   18.0680 C.ar    1  UNL1        0.2036
      2 N         -13.2935   -3.5791   17.8877 N.ar    1  UNL1       -0.2147
      3 C         -12.2451   -2.5626   18.2309 C.ar    1  UNL1        0.0911
      4 C         -10.9118   -3.0078   18.7544 C.ar    1  UNL1        0.0801
      5 C         -10.6268   -4.4694   18.9347 C.ar    1  UNL1        0.2645
      6 O          -9.2935   -4.9146   19.4582 O.2     1  UNL1       -0.2668
      7 N         -11.6752   -5.4858   18.5915 N.ar    1  UNL1       -0.2667
      8 C         -11.3903   -6.9475   18.7718 C.3     1  UNL1        0.1363
      9 C         -12.5301   -1.1010   18.0505 C.ar    1  UNL1        0.0485
     10 C         -13.7761   -0.5024   18.6328 C.ar    1  UNL1        0.0244
     11 C         -14.0610    0.9592   18.4525 C.ar    1  UNL1        0.0991
     12 N         -13.1000    1.8222   17.6899 N.ar    1  UNL1       -0.2400
     13 C         -11.8539    1.2236   17.1076 C.ar    1  UNL1        0.1285
     14 C         -11.5690   -0.2380   17.2879 C.ar    1  UNL1        0.1606
     15 F         -10.3230   -0.8367   16.7056 F       1  UNL1       -0.2025
     16 C         -16.0539   -7.5584   18.4375 C.3     1  UNL1        0.1350
     17 C         -15.0055   -6.5420   18.7807 C.3     1  UNL1        0.1230
     18 N         -14.0569   -6.0571   17.7247 N.pl3   1  UNL1       -0.2744
     19 C         -14.1567   -6.5885   16.3256 C.3     1  UNL1        0.1256
     20 C         -15.2051   -7.6049   15.9824 C.3     1  UNL1        0.1635
     21 O         -16.1537   -8.0899   17.0384 O.3     1  UNL1       -0.3527
     22 C         -18.2926   -7.3168   19.7336 C.3     1  UNL1        0.0026
     23 C         -17.0025   -8.0434   19.4934 C.3     1  UNL1        0.0289
     24 C         -16.6610   -9.2549   20.3093 C.3     1  UNL1        0.0026
@<TRIPOS>BOND
     1    22    23    1
     2    23    24    1
     3    23    16    1
     4    16    17    1
     5    17    18    1
     6    18     1    1
     7     1     2   ar
     8     2     3   ar
     9     3     9    1
    10     9    10   ar
    11    10    11   ar
    12    11    12   ar
    13    12    13   ar
    14    13    14   ar
    15    14    15    1
    16     3     4   ar
    17     4     5   ar
    18     5     6    2
    19     5     7   ar
    20     7     8    1
    21    18    19    1
    22    19    20    1
    23    20    21    1
    24    21    16    1
    25     7     1   ar
    26    14     9   ar
@<TRIPOS>MOLECULE
*****
 24 26 0 0 0
SMALL
GASTEIGER

@<TRIPOS>ATOM
      1 C          -6.9425  -18.4373   21.5734 C.ar    1  UNL1        0.2036
      2 N          -6.6497  -17.7027   22.8480 N.ar    1  UNL1       -0.2147
      3 C          -7.7475  -16.9698   23.5604 C.ar    1  UNL1        0.0911
      4 C          -9.1383  -16.9716   22.9984 C.ar    1  UNL1        0.0801
      5 C          -9.4311  -17.7063   21.7238 C.ar    1  UNL1        0.2645
      6 O         -10.8218  -17.7082   21.1617 O.2     1  UNL1       -0.2668
      7 N          -8.3332  -18.4392   21.0113 N.ar    1  UNL1       -0.2667
      8 C          -8.6261  -19.1739   19.7368 C.3     1  UNL1        0.1363
      9 C          -7.4547  -16.2351   24.8350 C.ar    1  UNL1        0.0485
     10 C          -8.5134  -16.1131   25.8905 C.ar    1  UNL1        0.0244
     11 C          -8.2205  -15.3784   27.1651 C.ar    1  UNL1        0.0991
     12 N          -6.8690  -14.7657   27.3841 N.ar    1  UNL1       -0.2400
     13 C          -5.8102  -14.8878   26.3285 C.ar    1  UNL1        0.1285
     14 C          -6.1031  -15.6225   25.0539 C.ar    1  UNL1        0.1606
     15 F          -5.0444  -15.7445   23.9984 F       1  UNL1       -0.2025
     16 C          -3.4951  -19.1776   19.7520 C.3     1  UNL1        0.1350
     17 C          -4.5930  -18.4448   20.4644 C.3     1  UNL1        0.1230
     18 N          -5.8446  -19.1702   20.8610 N.pl3   1  UNL1       -0.2744
     19 C          -5.9983  -20.6285   20.5450 C.3     1  UNL1        0.1256
     20 C          -4.9004  -21.3613   19.8326 C.3     1  UNL1        0.1635
     21 O          -3.6488  -20.6358   19.4361 O.3     1  UNL1       -0.3527
     22 C          -2.2147  -17.6405   18.0944 C.3     1  UNL1        0.0026
     23 C          -2.2435  -18.4521   19.3555 C.3     1  UNL1        0.0289
     24 C          -1.0209  -18.5382   20.2200 C.3     1  UNL1        0.0026
@<TRIPOS>BOND
     1    22    23    1
     2    23    24    1
     3    23    16    1
     4    16    17    1
     5    17    18    1
     6    18     1    1
     7     1     2   ar
     8     2     3   ar
     9     3     9    1
    10     9    10   ar
    11    10    11   ar
    12    11    12   ar
    13    12    13   ar
    14    13    14   ar
    15    14    15    1
    16     3     4   ar
    17     4     5   ar
    18     5     6    2
    19     5     7   ar
    20     7     8    1
    21    18    19    1
    22    19    20    1
    23    20    21    1
    24    21    16    1
    25     7     1   ar
    26    14     9   ar
@<TRIPOS>MOLECULE
*****
 24 26 0 0 0
SMALL
GASTEIGER

@<TRIPOS>ATOM
      1 C          -7.7824  -18.5546   21.3076 C.ar    1  UNL1        0.2036
      2 N          -6.2978  -18.3512   21.3752 N.ar    1  UNL1       -0.2147
      3 C          -5.3909  -19.1422   20.4798 C.ar    1  UNL1        0.0911
      4 C          -5.9686  -20.1366   19.5167 C.ar    1  UNL1        0.0801
      5 C          -7.4532  -20.3399   19.4490 C.ar    1  UNL1        0.2645
      6 O          -8.0309  -21.3342   18.4859 O.2     1  UNL1       -0.2668
      7 N          -8.3601  -19.5489   20.3445 N.ar    1  UNL1       -0.2667
      8 C          -9.8447  -19.7522   20.2768 C.3     1  UNL1        0.1363
      9 C          -3.9063  -18.9389   20.5475 C.ar    1  UNL1        0.0485
     10 C          -3.1408  -18.5830   19.3077 C.ar    1  UNL1        0.0244
     11 C          -1.6561  -18.3796   19.3754 C.ar    1  UNL1        0.0991
     12 N          -0.9371  -18.5322   20.6829 N.ar    1  UNL1       -0.2400
     13 C          -1.7026  -18.8882   21.9228 C.ar    1  UNL1        0.1285
     14 C          -3.1872  -19.0915   21.8551 C.ar    1  UNL1        0.1606
     15 F          -3.9528  -19.4474   23.0949 F       1  UNL1       -0.2025
     16 C         -11.0813  -17.0192   22.8919 C.3     1  UNL1        0.1350
     17 C         -10.1744  -17.8101   21.9965 C.3     1  UNL1        0.1230
     18 N          -8.6894  -17.7635   22.2030 N.pl3   1  UNL1       -0.2744
     19 C          -8.1113  -16.9259   23.3049 C.3     1  UNL1        0.1256
     20 C          -9.0182  -16.1349   24.2003 C.3     1  UNL1        0.1635
     21 O         -10.5032  -16.1816   23.9938 O.3     1  UNL1       -0.3527
     22 C         -13.4517  -17.6619   23.7393 C.3     1  UNL1        0.0026
     23 C         -12.5663  -17.0658   22.6854 C.3     1  UNL1        0.0289
     24 C         -13.1659  -16.5162   21.4251 C.3     1  UNL1        0.0026
@<TRIPOS>BOND
     1    22    23    1
     2    23    24    1
     3    23    16    1
     4    16    17    1
     5    17    18    1
     6    18     1    1
     7     1     2   ar
     8     2     3   ar
     9     3     9    1
    10     9    10   ar
    11    10    11   ar
    12    11    12   ar
    13    12    13   ar
    14    13    14   ar
    15    14    15    1
    16     3     4   ar
    17     4     5   ar
    18     5     6    2
    19     5     7   ar
    20     7     8    1
    21    18    19    1
    22    19    20    1
    23    20    21    1
    24    21    16    1
    25     7     1   ar
    26    14     9   ar
@<TRIPOS>MOLECULE
*****
 24 26 0 0 0
SMALL
GASTEIGER

@<TRIPOS>ATOM
      1 C         -13.3860   -3.3388   18.2436 C.ar    1  UNL1        0.2036
      2 N         -14.2173   -4.5863   18.2931 N.ar    1  UNL1       -0.2147
      3 C         -13.5898   -5.8906   18.6866 C.ar    1  UNL1        0.0911
      4 C         -12.1308   -5.9475   19.0306 C.ar    1  UNL1        0.0801
      5 C         -11.2995   -4.6999   18.9811 C.ar    1  UNL1        0.2645
      6 O          -9.8406   -4.7567   19.3251 O.2     1  UNL1       -0.2668
      7 N         -11.9271   -3.3955   18.5876 N.ar    1  UNL1       -0.2667
      8 C         -11.0957   -2.1480   18.5381 C.3     1  UNL1        0.1363
      9 C         -14.4211   -7.1382   18.7361 C.ar    1  UNL1        0.0485
     10 C         -15.6300   -7.1993   19.6220 C.ar    1  UNL1        0.0244
     11 C         -16.4613   -8.4468   19.6715 C.ar    1  UNL1        0.0991
     12 N         -16.0838   -9.6333   18.8350 N.ar    1  UNL1       -0.2400
     13 C         -14.8749   -9.5723   17.9491 C.ar    1  UNL1        0.1285
     14 C         -14.0435   -8.3248   17.8996 C.ar    1  UNL1        0.1606
     15 F         -12.8347   -8.2637   17.0137 F       1  UNL1       -0.2025
     16 C         -15.2656    0.1470   18.5011 C.3     1  UNL1        0.1350
     17 C         -14.6380   -1.1573   18.8945 C.3     1  UNL1        0.1230
     18 N         -14.0136   -2.0344   17.8501 N.pl3   1  UNL1       -0.2744
     19 C         -14.0168   -1.6072   16.4123 C.3     1  UNL1        0.1256
     20 C         -14.6444   -0.3029   16.0188 C.3     1  UNL1        0.1635
     21 O         -15.2688    0.5742   17.0632 O.3     1  UNL1       -0.3527
     22 C         -16.8307    0.4354   20.5546 C.3     1  UNL1        0.0026
     23 C         -15.8900    1.0241   19.5455 C.3     1  UNL1        0.0289
     24 C         -15.5738    2.4900   19.5807 C.3     1  UNL1        0.0026
@<TRIPOS>BOND
     1    22    23    1
     2    23    24    1
     3    23    16    1
     4    16    17    1
     5    17    18    1
     6    18     1    1
     7     1     2   ar
     8     2     3   ar
     9     3     9    1
    10     9    10   ar
    11    10    11   ar
    12    11    12   ar
    13    12    13   ar
    14    13    14   ar
    15    14    15    1
    16     3     4   ar
    17     4     5   ar
    18     5     6    2
    19     5     7   ar
    20     7     8    1
    21    18    19    1
    22    19    20    1
    23    20    21    1
    24    21    16    1
    25     7     1   ar
    26    14     9   ar
