@<TRIPOS>MOLECULE
*****
 22 25 0 0 0
SMALL
GASTEIGER

@<TRIPOS>ATOM
      1 C          -8.4260  -17.9686   21.5931 C.2     1  UNL1        0.3394
      2 O          -8.4347  -18.5954   20.2304 O.2     1  UNL1       -0.2452
      3 C         -11.1566  -16.3800   21.0274 C.3     1  UNL1        0.0271
      4 C         -11.6576  -17.1614   22.2057 C.2     1  UNL1       -0.0344
      5 C         -13.0693  -16.9814   22.6796 C.2     1  UNL1       -0.0078
      6 C         -13.5703  -17.7627   23.8579 C.2     1  UNL1        0.0006
      7 C         -12.6596  -18.7241   24.5623 C.2     1  UNL1        0.0153
      8 C         -11.2479  -18.9042   24.0884 C.2     1  UNL1        0.0667
      9 N         -10.1274  -19.7724   24.5791 N.2     1  UNL1       -0.2476
     10 C          -8.9339  -19.5276   23.7041 C.2     1  UNL1        0.1013
     11 C          -9.3168  -18.5081   22.6726 C.2     1  UNL1        0.0814
     12 C         -10.7469  -18.1228   22.9101 C.3     1  UNL1        0.0886
     13 O          -7.5263  -16.8021   21.8763 O.3     1  UNL1       -0.4456
     14 C          -8.0033  -15.6826   22.7533 C.3     1  UNL1        0.2087
     15 C          -7.5940  -15.6332   24.1955 C.3     1  UNL1        0.0445
     16 C          -6.1676  -15.3475   24.5610 C.3     1  UNL1        0.0210
     17 C          -5.7584  -15.2982   26.0033 C.3     1  UNL1        0.0722
     18 N          -6.7757  -15.5345   27.0801 N.3     1  UNL1       -0.2727
     19 C          -8.2021  -15.8202   26.7146 C.3     1  UNL1        0.0722
     20 C          -8.6113  -15.8695   25.2722 C.3     1  UNL1        0.0210
     21 C          -7.0473  -15.5717   26.3036 C.3     1  UNL1        0.0722
     22 C          -7.4174  -15.6163   24.9996 C.3     1  UNL1        0.0210
@<TRIPOS>BOND
     1     3     4    1
     2     4     5    2
     3     5     6    1
     4     6     7    2
     5     7     8    1
     6     8     9    2
     7     9    10    1
     8    10    11    2
     9    11     1    1
    10     1     2    2
    11     1    13    1
    12    13    14    1
    13    14    15    1
    14    15    16    1
    15    16    17    1
    16    17    18    1
    17    18    19    1
    18    19    20    1
    19    18    21    1
    20    21    22    1
    21    11    12    1
    22    12     4    1
    23    12     8    1
    24    20    15    1
    25    22    15    1
@<TRIPOS>MOLECULE
*****
 22 25 0 0 0
SMALL
GASTEIGER

@<TRIPOS>ATOM
      1 C          -8.8412  -18.0662   21.2104 C.2     1  UNL1        0.3394
      2 O          -8.4041  -19.4201   20.7353 O.2     1  UNL1       -0.2452
      3 C          -9.5075  -19.2027   24.1368 C.3     1  UNL1        0.0271
      4 C         -10.8913  -18.7135   23.8273 C.2     1  UNL1       -0.0344
      5 C         -11.9898  -18.8840   24.8343 C.2     1  UNL1       -0.0078
      6 C         -13.3736  -18.3948   24.5247 C.2     1  UNL1        0.0006
      7 C         -13.6588  -17.7350   23.2082 C.2     1  UNL1        0.0153
      8 C         -12.5603  -17.5645   22.2012 C.2     1  UNL1        0.0667
      9 N         -12.5413  -16.9575   20.8296 N.2     1  UNL1       -0.2476
     10 C         -11.1458  -17.0715   20.2915 C.2     1  UNL1        0.1013
     11 C         -10.3023  -17.7490   21.3305 C.2     1  UNL1        0.0814
     12 C         -11.1765  -18.0537   22.5107 C.3     1  UNL1        0.0886
     13 O          -7.8169  -17.0292   21.5654 O.3     1  UNL1       -0.4456
     14 C          -8.2138  -15.8283   22.3717 C.3     1  UNL1        0.2087
     15 C          -7.7558  -15.6951   23.7938 C.3     1  UNL1        0.0445
     16 C          -8.7584  -15.7115   24.9094 C.3     1  UNL1        0.0210
     17 C          -8.3003  -15.5783   26.3315 C.3     1  UNL1        0.0722
     18 N          -6.8396  -15.4286   26.6381 N.3     1  UNL1       -0.2727
     19 C          -5.8370  -15.4122   25.5225 C.3     1  UNL1        0.0722
     20 C          -6.2951  -15.5454   24.1003 C.3     1  UNL1        0.0210
     21 C          -7.0428  -15.4984   25.8432 C.3     1  UNL1        0.0722
     22 C          -7.4569  -15.6188   24.5573 C.3     1  UNL1        0.0210
@<TRIPOS>BOND
     1     3     4    1
     2     4     5    2
     3     5     6    1
     4     6     7    2
     5     7     8    1
     6     8     9    2
     7     9    10    1
     8    10    11    2
     9    11     1    1
    10     1     2    2
    11     1    13    1
    12    13    14    1
    13    14    15    1
    14    15    16    1
    15    16    17    1
    16    17    18    1
    17    18    19    1
    18    19    20    1
    19    18    21    1
    20    21    22    1
    21    11    12    1
    22    12     4    1
    23    12     8    1
    24    20    15    1
    25    22    15    1
@<TRIPOS>MOLECULE
*****
 22 25 0 0 0
SMALL
GASTEIGER

@<TRIPOS>ATOM
      1 C          -8.0065  -16.4724   22.0186 C.2     1  UNL1        0.3394
      2 O          -8.1211  -15.1267   21.3661 O.2     1  UNL1       -0.2452
      3 C          -5.5946  -15.1996   23.7106 C.3     1  UNL1        0.0271
      4 C          -6.4407  -15.5853   24.8876 C.2     1  UNL1       -0.0344
      5 C          -5.9640  -15.2974   26.2804 C.2     1  UNL1       -0.0078
      6 C          -6.8100  -15.6831   27.4575 C.2     1  UNL1        0.0006
      7 C          -8.1328  -16.3567   27.2417 C.2     1  UNL1        0.0153
      8 C          -8.6094  -16.6446   25.8490 C.2     1  UNL1        0.0667
      9 N          -9.8590  -17.2917   25.3295 N.2     1  UNL1       -0.2476
     10 C          -9.7852  -17.3060   23.8313 C.2     1  UNL1        0.1013
     11 C          -8.4901  -16.6677   23.4250 C.2     1  UNL1        0.0814
     12 C          -7.7634  -16.2589   24.6719 C.3     1  UNL1        0.0886
     13 O          -7.4081  -17.6229   21.2646 O.3     1  UNL1       -0.4456
     14 C          -6.7767  -18.7610   22.0103 C.3     1  UNL1        0.2087
     15 C          -5.3924  -19.2152   21.6533 C.3     1  UNL1        0.0445
     16 C          -5.1798  -20.1174   20.4739 C.3     1  UNL1        0.0210
     17 C          -3.7955  -20.5716   20.1170 C.3     1  UNL1        0.0722
     18 N          -2.6237  -20.1236   20.9394 N.3     1  UNL1       -0.2727
     19 C          -2.8363  -19.2215   22.1188 C.3     1  UNL1        0.0722
     20 C          -4.2207  -18.7673   22.4758 C.3     1  UNL1        0.0210
     21 C          -3.3636  -19.8486   21.1738 C.3     1  UNL1        0.0722
     22 C          -4.6153  -19.4378   21.4967 C.3     1  UNL1        0.0210
@<TRIPOS>BOND
     1     3     4    1
     2     4     5    2
     3     5     6    1
     4     6     7    2
     5     7     8    1
     6     8     9    2
     7     9    10    1
     8    10    11    2
     9    11     1    1
    10     1     2    2
    11     1    13    1
    12    13    14    1
    13    14    15    1
    14    15    16    1
    15    16    17    1
    16    17    18    1
    17    18    19    1
    18    19    20    1
    19    18    21    1
    20    21    22    1
    21    11    12    1
    22    12     4    1
    23    12     8    1
    24    20    15    1
    25    22    15    1
@<TRIPOS>MOLECULE
*****
 22 25 0 0 0
SMALL
GASTEIGER

@<TRIPOS>ATOM
      1 C          -7.2998  -18.6944   21.7024 C.2     1  UNL1        0.3394
      2 O          -7.0142  -20.0277   22.3273 O.2     1  UNL1       -0.2452
      3 C          -9.8660  -19.2149   19.8467 C.3     1  UNL1        0.0271
      4 C         -10.5130  -18.2069   20.7496 C.2     1  UNL1       -0.0344
      5 C         -11.9450  -17.8164   20.5334 C.2     1  UNL1       -0.0078
      6 C         -12.5920  -16.8084   21.4364 C.2     1  UNL1        0.0006
      7 C         -11.8070  -16.1909   22.5555 C.2     1  UNL1        0.0153
      8 C         -10.3750  -16.5814   22.7716 C.2     1  UNL1        0.0667
      9 N          -9.3575  -16.1453   23.7839 N.2     1  UNL1       -0.2476
     10 C          -8.0817  -16.8837   23.5065 C.2     1  UNL1        0.1013
     11 C          -8.3107  -17.7762   22.3229 C.2     1  UNL1        0.0814
     12 C          -9.7280  -17.5894   21.8687 C.3     1  UNL1        0.0886
     13 O          -6.5744  -18.2792   20.4567 O.3     1  UNL1       -0.4456
     14 C          -5.6011  -19.2179   19.8075 C.3     1  UNL1        0.2087
     15 C          -4.1344  -19.0957   20.0969 C.3     1  UNL1        0.0445
     16 C          -3.5643  -19.6945   21.3484 C.3     1  UNL1        0.0210
     17 C          -2.0976  -19.5722   21.6378 C.3     1  UNL1        0.0722
     18 N          -1.2008  -18.8511   20.6756 N.3     1  UNL1       -0.2727
     19 C          -1.7709  -18.2522   19.4240 C.3     1  UNL1        0.0722
     20 C          -3.2377  -18.3745   19.1346 C.3     1  UNL1        0.0210
     21 C          -1.9981  -18.8925   20.4741 C.3     1  UNL1        0.0722
     22 C          -3.3244  -19.0030   20.2124 C.3     1  UNL1        0.0210
@<TRIPOS>BOND
     1     3     4    1
     2     4     5    2
     3     5     6    1
     4     6     7    2
     5     7     8    1
     6     8     9    2
     7     9    10    1
     8    10    11    2
     9    11     1    1
    10     1     2    2
    11     1    13    1
    12    13    14    1
    13    14    15    1
    14    15    16    1
    15    16    17    1
    16    17    18    1
    17    18    19    1
    18    19    20    1
    19    18    21    1
    20    21    22    1
    21    11    12    1
    22    12     4    1
    23    12     8    1
    24    20    15    1
    25    22    15    1
@<TRIPOS>MOLECULE
*****
 22 25 0 0 0
SMALL
GASTEIGER

@<TRIPOS>ATOM
      1 C          -7.3599  -18.4634   22.1102 C.2     1  UNL1        0.3394
      2 O          -7.6771  -17.0480   21.7284 O.2     1  UNL1       -0.2452
      3 C          -4.9264  -16.9718   23.5776 C.3     1  UNL1        0.0271
      4 C          -4.0828  -17.8939   22.7480 C.2     1  UNL1       -0.0344
      5 C          -2.5874  -17.8374   22.8498 C.2     1  UNL1       -0.0078
      6 C          -1.7438  -18.7595   22.0202 C.2     1  UNL1        0.0006
      7 C          -2.3957  -19.7380   21.0888 C.2     1  UNL1        0.0153
      8 C          -3.8912  -19.7944   20.9870 C.2     1  UNL1        0.0667
      9 N          -4.8097  -20.6476   20.1633 N.2     1  UNL1       -0.2476
     10 C          -6.2208  -20.2528   20.4838 C.2     1  UNL1        0.1013
     11 C          -6.1745  -19.1557   21.5056 C.2     1  UNL1        0.0814
     12 C          -4.7347  -18.8723   21.8166 C.3     1  UNL1        0.0886
     13 O          -8.2281  -19.1866   23.0969 O.3     1  UNL1       -0.4456
     14 C          -9.5130  -19.8155   22.6455 C.3     1  UNL1        0.2087
     15 C         -10.5935  -18.9658   22.0452 C.3     1  UNL1        0.0445
     16 C         -11.7460  -18.5104   22.8903 C.3     1  UNL1        0.0210
     17 C         -12.8265  -17.6606   22.2899 C.3     1  UNL1        0.0722
     18 N         -12.7545  -17.2663   20.8444 N.3     1  UNL1       -0.2727
     19 C         -11.6019  -17.7217   19.9994 C.3     1  UNL1        0.0722
     20 C         -10.5214  -18.5715   20.5998 C.3     1  UNL1        0.0210
     21 C         -12.1387  -17.7330   21.1290 C.3     1  UNL1        0.0722
     22 C         -11.1617  -18.5014   21.6717 C.3     1  UNL1        0.0210
@<TRIPOS>BOND
     1     3     4    1
     2     4     5    2
     3     5     6    1
     4     6     7    2
     5     7     8    1
     6     8     9    2
     7     9    10    1
     8    10    11    2
     9    11     1    1
    10     1     2    2
    11     1    13    1
    12    13    14    1
    13    14    15    1
    14    15    16    1
    15    16    17    1
    16    17    18    1
    17    18    19    1
    18    19    20    1
    19    18    21    1
    20    21    22    1
    21    11    12    1
    22    12     4    1
    23    12     8    1
    24    20    15    1
    25    22    15    1
@<TRIPOS>MOLECULE
*****
 22 25 0 0 0
SMALL
GASTEIGER

@<TRIPOS>ATOM
      1 C          -7.6237  -19.1113   21.2154 C.2     1  UNL1        0.3394
      2 O          -7.3184  -20.0657   22.3315 O.2     1  UNL1       -0.2452
      3 C          -8.6194  -17.0645   23.4780 C.3     1  UNL1        0.0271
      4 C          -9.9144  -17.1242   22.7234 C.2     1  UNL1       -0.0344
      5 C         -11.0941  -16.3261   23.1940 C.2     1  UNL1       -0.0078
      6 C         -12.3891  -16.3858   22.4394 C.2     1  UNL1        0.0006
      7 C         -12.5045  -17.2434   21.2143 C.2     1  UNL1        0.0153
      8 C         -11.3248  -18.0415   20.7437 C.2     1  UNL1        0.0667
      9 N         -11.1405  -18.9691   19.5794 N.2     1  UNL1       -0.2476
     10 C          -9.7317  -19.4827   19.6144 C.2     1  UNL1        0.1013
     11 C          -9.0452  -18.8726   20.8003 C.2     1  UNL1        0.0814
     12 C         -10.0298  -17.9818   21.4983 C.3     1  UNL1        0.0886
     13 O          -6.5073  -18.3954   20.5144 O.3     1  UNL1       -0.4456
     14 C          -5.4983  -19.1729   19.7224 C.3     1  UNL1        0.2087
     15 C          -4.0376  -19.0472   20.0396 C.3     1  UNL1        0.0445
     16 C          -3.4776  -19.7025   21.2672 C.3     1  UNL1        0.0210
     17 C          -2.0169  -19.5768   21.5844 C.3     1  UNL1        0.0722
     18 N          -1.1162  -18.7958   20.6740 N.3     1  UNL1       -0.2727
     19 C          -1.6762  -18.1405   19.4464 C.3     1  UNL1        0.0722
     20 C          -3.1370  -18.2662   19.1292 C.3     1  UNL1        0.0210
     21 C          -1.9099  -18.8368   20.4587 C.3     1  UNL1        0.0722
     22 C          -3.2307  -18.9504   20.1718 C.3     1  UNL1        0.0210
@<TRIPOS>BOND
     1     3     4    1
     2     4     5    2
     3     5     6    1
     4     6     7    2
     5     7     8    1
     6     8     9    2
     7     9    10    1
     8    10    11    2
     9    11     1    1
    10     1     2    2
    11     1    13    1
    12    13    14    1
    13    14    15    1
    14    15    16    1
    15    16    17    1
    16    17    18    1
    17    18    19    1
    18    19    20    1
    19    18    21    1
    20    21    22    1
    21    11    12    1
    22    12     4    1
    23    12     8    1
    24    20    15    1
    25    22    15    1
@<TRIPOS>MOLECULE
*****
 22 25 0 0 0
SMALL
GASTEIGER

@<TRIPOS>ATOM
      1 C          -7.6213  -18.3710   22.1426 C.2     1  UNL1        0.3394
      2 O          -8.3500  -17.6129   21.0730 O.2     1  UNL1       -0.2452
      3 C          -6.0785  -20.5220   20.3279 C.3     1  UNL1        0.0271
      4 C          -4.8526  -19.8777   20.9040 C.2     1  UNL1       -0.0344
      5 C          -3.4913  -20.3687   20.5091 C.2     1  UNL1       -0.0078
      6 C          -2.2654  -19.7245   21.0852 C.2     1  UNL1        0.0006
      7 C          -2.4006  -18.5891   22.0561 C.2     1  UNL1        0.0153
      8 C          -3.7618  -18.0981   22.4510 C.2     1  UNL1        0.0667
      9 N          -4.2047  -17.0060   23.3789 N.2     1  UNL1       -0.2476
     10 C          -5.7044  -16.9752   23.3764 C.2     1  UNL1        0.1013
     11 C          -6.1883  -18.0484   22.4468 C.2     1  UNL1        0.0814
     12 C          -4.9878  -18.7424   21.8749 C.3     1  UNL1        0.0886
     13 O          -8.3256  -19.4519   22.9080 O.3     1  UNL1       -0.4456
     14 C          -9.6570  -19.9582   22.4378 C.3     1  UNL1        0.2087
     15 C         -10.9047  -19.1847   22.7457 C.3     1  UNL1        0.0445
     16 C         -11.6162  -18.4430   21.6532 C.3     1  UNL1        0.0210
     17 C         -12.8640  -17.6695   21.9612 C.3     1  UNL1        0.0722
     18 N         -13.4003  -17.6377   23.3617 N.3     1  UNL1       -0.2727
     19 C         -12.6888  -18.3794   24.4542 C.3     1  UNL1        0.0722
     20 C         -11.4410  -19.1530   24.1462 C.3     1  UNL1        0.0210
     21 C         -12.7132  -18.0753   23.2413 C.3     1  UNL1        0.0722
     22 C         -11.5850  -18.7747   22.9629 C.3     1  UNL1        0.0210
@<TRIPOS>BOND
     1     3     4    1
     2     4     5    2
     3     5     6    1
     4     6     7    2
     5     7     8    1
     6     8     9    2
     7     9    10    1
     8    10    11    2
     9    11     1    1
    10     1     2    2
    11     1    13    1
    12    13    14    1
    13    14    15    1
    14    15    16    1
    15    16    17    1
    16    17    18    1
    17    18    19    1
    18    19    20    1
    19    18    21    1
    20    21    22    1
    21    11    12    1
    22    12     4    1
    23    12     8    1
    24    20    15    1
    25    22    15    1
@<TRIPOS>MOLECULE
*****
 22 25 0 0 0
SMALL
GASTEIGER

@<TRIPOS>ATOM
      1 C          -7.6619  -17.8719   22.4069 C.2     1  UNL1        0.3394
      2 O          -8.5638  -18.3883   23.4885 O.2     1  UNL1       -0.2452
      3 C          -4.6073  -17.5433   23.3350 C.3     1  UNL1        0.0271
      4 C          -4.3499  -18.5659   22.2681 C.2     1  UNL1       -0.0344
      5 C          -2.9518  -19.0433   22.0085 C.2     1  UNL1       -0.0078
      6 C          -2.6944  -20.0658   20.9416 C.2     1  UNL1        0.0006
      7 C          -3.8351  -20.6110   20.1344 C.2     1  UNL1        0.0153
      8 C          -5.2332  -20.1336   20.3941 C.2     1  UNL1        0.0667
      9 N          -6.5477  -20.4868   19.7638 N.2     1  UNL1       -0.2476
     10 C          -7.6175  -19.6826   20.4411 C.2     1  UNL1        0.1013
     11 C          -6.9642  -18.8324   21.4900 C.2     1  UNL1        0.0814
     12 C          -5.4906  -19.1111   21.4610 C.3     1  UNL1        0.0886
     13 O          -7.4577  -16.3950   22.2423 O.3     1  UNL1       -0.4456
     14 C          -8.0626  -15.4397   23.2280 C.3     1  UNL1        0.2087
     15 C          -7.6074  -15.4486   24.6572 C.3     1  UNL1        0.0445
     16 C          -6.1742  -15.1568   24.9897 C.3     1  UNL1        0.0210
     17 C          -5.7190  -15.1657   26.4189 C.3     1  UNL1        0.0722
     18 N          -6.6971  -15.4664   27.5157 N.3     1  UNL1       -0.2727
     19 C          -8.1304  -15.7583   27.1832 C.3     1  UNL1        0.0722
     20 C          -8.5856  -15.7494   25.7539 C.3     1  UNL1        0.0210
     21 C          -6.9933  -15.4730   26.7474 C.3     1  UNL1        0.0722
     22 C          -7.4049  -15.4650   25.4551 C.3     1  UNL1        0.0210
@<TRIPOS>BOND
     1     3     4    1
     2     4     5    2
     3     5     6    1
     4     6     7    2
     5     7     8    1
     6     8     9    2
     7     9    10    1
     8    10    11    2
     9    11     1    1
    10     1     2    2
    11     1    13    1
    12    13    14    1
    13    14    15    1
    14    15    16    1
    15    16    17    1
    16    17    18    1
    17    18    19    1
    18    19    20    1
    19    18    21    1
    20    21    22    1
    21    11    12    1
    22    12     4    1
    23    12     8    1
    24    20    15    1
    25    22    15    1
@<TRIPOS>MOLECULE
*****
 22 25 0 0 0
SMALL
GASTEIGER

@<TRIPOS>ATOM
      1 C          -6.8756  -18.9245   21.5056 C.2     1  UNL1        0.3394
      2 O          -6.5986  -20.3141   21.9977 O.2     1  UNL1       -0.2452
      3 C          -4.5440  -17.4086   23.1073 C.3     1  UNL1        0.0271
      4 C          -5.6876  -16.6656   23.7319 C.2     1  UNL1       -0.0344
      5 C          -5.4214  -15.6040   24.7576 C.2     1  UNL1       -0.0078
      6 C          -6.5650  -14.8610   25.3821 C.2     1  UNL1        0.0006
      7 C          -7.9748  -15.1796   24.9810 C.2     1  UNL1        0.0153
      8 C          -8.2410  -16.2411   23.9553 C.2     1  UNL1        0.0667
      9 N          -9.5146  -16.7694   23.3648 N.2     1  UNL1       -0.2476
     10 C          -9.1582  -17.8389   22.3752 C.2     1  UNL1        0.1013
     11 C          -7.6643  -17.9716   22.3542 C.2     1  UNL1        0.0814
     12 C          -7.0974  -16.9841   23.3307 C.3     1  UNL1        0.0886
     13 O          -6.3639  -18.4877   20.1649 O.3     1  UNL1       -0.4456
     14 C          -5.3054  -19.2904   19.4682 C.3     1  UNL1        0.2087
     15 C          -3.8593  -19.0762   19.8040 C.3     1  UNL1        0.0445
     16 C          -3.2165  -19.8774   20.8971 C.3     1  UNL1        0.0210
     17 C          -1.7703  -19.6632   21.2328 C.3     1  UNL1        0.0722
     18 N          -0.9669  -18.6477   20.4756 N.3     1  UNL1       -0.2727
     19 C          -1.6098  -17.8465   19.3825 C.3     1  UNL1        0.0722
     20 C          -3.0560  -18.0607   19.0467 C.3     1  UNL1        0.0210
     21 C          -1.7562  -18.7299   20.2557 C.3     1  UNL1        0.0722
     22 C          -3.0638  -18.9235   19.9520 C.3     1  UNL1        0.0210
@<TRIPOS>BOND
     1     3     4    1
     2     4     5    2
     3     5     6    1
     4     6     7    2
     5     7     8    1
     6     8     9    2
     7     9    10    1
     8    10    11    2
     9    11     1    1
    10     1     2    2
    11     1    13    1
    12    13    14    1
    13    14    15    1
    14    15    16    1
    15    16    17    1
    16    17    18    1
    17    18    19    1
    18    19    20    1
    19    18    21    1
    20    21    22    1
    21    11    12    1
    22    12     4    1
    23    12     8    1
    24    20    15    1
    25    22    15    1
