@<TRIPOS>MOLECULE
*****
 38 41 0 0 0
SMALL
GASTEIGER

@<TRIPOS>ATOM
      1 C           8.1504   -8.2329   27.0234 C.ar    1  UNL1       -0.0062
      2 C           7.6109   -7.1422   27.9007 C.ar    1  UNL1       -0.0032
      3 C           7.1656   -5.8441   27.2954 C.ar    1  UNL1       -0.0045
      4 C           7.2598   -5.6364   25.8128 C.ar    1  UNL1       -0.0205
      5 C           7.7992   -6.7270   24.9356 C.ar    1  UNL1       -0.0045
      6 C           8.2446   -8.0252   25.5409 C.ar    1  UNL1       -0.0032
      7 C           8.5957   -9.5310   27.6287 C.3     1  UNL1        0.0991
      8 C           5.6371  -12.8696   28.2210 C.3     1  UNL1        0.0571
      9 C           7.0946  -13.1031   28.4871 C.3     1  UNL1        0.0331
     10 C           8.0809  -11.9903   28.2896 C.3     1  UNL1        0.0738
     11 N           7.6095  -10.6439   27.8261 N.3     1  UNL1       -0.2689
     12 C           6.1519  -10.4103   27.5601 C.3     1  UNL1        0.0738
     13 C           5.1657  -11.5231   27.7575 C.3     1  UNL1        0.0331
     14 N           4.6509  -13.9824   28.4184 N.3     1  UNL1       -0.2923
     15 H           5.1377  -14.8504   28.1947 H       1  UNL1        0.1236
     16 C           3.3672  -13.9934   27.6424 C.3     1  UNL1        0.1341
     17 C           1.7982  -13.2755   29.5848 C.3     1  UNL1        0.0738
     18 C           2.0564  -14.1062   28.3627 C.2     1  UNL1        0.1669
     19 O           1.0036  -15.0495   27.8610 O.2     1  UNL1       -0.2946
     20 C           6.8144   -4.3382   25.2075 C.3     1  UNL1        0.0476
     21 C           6.3312   -4.2992   23.7881 C.3     1  UNL1        0.0944
     22 N           5.3694   -3.2338   23.3523 N.am    1  UNL1       -0.3005
     23 C           4.9367   -3.1551   21.9182 C.2     1  UNL1        0.2459
     24 O           5.4659   -4.1418   20.9199 O.2     1  UNL1       -0.2701
     25 H           5.0222   -2.5863   24.0075 H       1  UNL1        0.1497
     26 C           3.9749   -2.0898   21.4824 C.ar    1  UNL1        0.0534
     27 C           3.6679   -0.9384   22.3934 C.ar    1  UNL1        0.0045
     28 C           2.7061    0.1270   21.9576 C.ar    1  UNL1        0.0001
     29 C           2.0513    0.0409   20.6108 C.ar    1  UNL1        0.0000
     30 C           2.3583   -1.1105   19.6998 C.ar    1  UNL1        0.0001
     31 C           3.3201   -2.1759   20.1356 C.ar    1  UNL1        0.0045
     32 C           1.0895    1.1063   20.1750 C.ar    1  UNL1        0.0001
     33 C           0.0489    1.6132   21.1292 C.ar    1  UNL1        0.0023
     34 C          -0.9129    2.6785   20.6934 C.ar    1  UNL1        0.0296
     35 C          -0.8342    3.2370   19.3035 C.ar    1  UNL1        0.1401
     36 F          -1.7960    4.3023   18.8677 F       1  UNL1       -0.2042
     37 C           0.2063    2.7301   18.3493 C.ar    1  UNL1        0.0296
     38 C           1.1681    1.6648   18.7851 C.ar    1  UNL1        0.0023
@<TRIPOS>BOND
     1    17    18    1
     2    18    19    2
     3    18    16    1
     4    16    14    1
     5    14     8    1
     6     8     9    1
     7     9    10    1
     8    10    11    1
     9    11     7    1
    10     7     1    1
    11     1     2   ar
    12     2     3   ar
    13     3     4   ar
    14     4    20    1
    15    20    21    1
    16    21    22    1
    17    22    23   am
    18    23    24    2
    19    23    26    1
    20    26    27   ar
    21    27    28   ar
    22    28    29   ar
    23    29    32    1
    24    32    33   ar
    25    33    34   ar
    26    34    35   ar
    27    35    36    1
    28    35    37   ar
    29    37    38   ar
    30    29    30   ar
    31    30    31   ar
    32     4     5   ar
    33     5     6   ar
    34    11    12    1
    35    12    13    1
    36    13     8    1
    37     6     1   ar
    38    31    26   ar
    39    38    32   ar
    40    14    15    1
    41    22    25    1
@<TRIPOS>MOLECULE
*****
 38 41 0 0 0
SMALL
GASTEIGER

@<TRIPOS>ATOM
      1 C           7.7900   -3.2791   31.2216 C.ar    1  UNL1       -0.0062
      2 C           7.7246   -2.5741   29.8991 C.ar    1  UNL1       -0.0032
      3 C           7.2766   -3.3161   28.6750 C.ar    1  UNL1       -0.0045
      4 C           6.8939   -4.7632   28.7732 C.ar    1  UNL1       -0.0205
      5 C           6.9593   -5.4682   30.0955 C.ar    1  UNL1       -0.0045
      6 C           7.4073   -4.7261   31.3198 C.ar    1  UNL1       -0.0032
      7 C           8.2380   -2.5370   32.4457 C.3     1  UNL1        0.0991
      8 C           5.3047   -0.0211   34.7512 C.3     1  UNL1        0.0571
      9 C           6.7735    0.2699   34.8387 C.3     1  UNL1        0.0331
     10 C           7.7513   -0.5688   34.0702 C.3     1  UNL1        0.0738
     11 N           7.2602   -1.6984   33.2142 N.3     1  UNL1       -0.2689
     12 C           5.7914   -1.9893   33.1267 C.3     1  UNL1        0.0738
     13 C           4.8136   -1.1507   33.8952 C.3     1  UNL1        0.0331
     14 N           4.3269    0.8176   35.5197 N.3     1  UNL1       -0.2923
     15 H           4.6716    1.7770   35.4860 H       1  UNL1        0.1236
     16 C           4.0442    0.5094   36.9602 C.3     1  UNL1        0.1341
     17 C           5.6630    2.3740   37.7681 C.3     1  UNL1        0.0738
     18 C           4.5158    1.4448   38.0338 C.2     1  UNL1        0.1669
     19 O           3.8404    1.4508   39.3731 O.2     1  UNL1       -0.2946
     20 C           6.4459   -5.5052   27.5489 C.3     1  UNL1        0.0476
     21 C           6.9359   -5.0840   26.1953 C.3     1  UNL1        0.0944
     22 N           6.0816   -4.2082   25.3275 N.am    1  UNL1       -0.3005
     23 C           6.2140   -4.2735   23.8348 C.2     1  UNL1        0.2459
     24 O           7.2007   -5.2147   23.2098 O.2     1  UNL1       -0.2701
     25 H           5.4340   -3.5904   25.7377 H       1  UNL1        0.1497
     26 C           5.3597   -3.3977   22.9670 C.ar    1  UNL1        0.0534
     27 C           4.5751   -2.2742   23.5770 C.ar    1  UNL1        0.0045
     28 C           3.7207   -1.3984   22.7092 C.ar    1  UNL1        0.0001
     29 C           3.6509   -1.6461   21.2315 C.ar    1  UNL1        0.0000
     30 C           4.4356   -2.7696   20.6215 C.ar    1  UNL1        0.0001
     31 C           5.2899   -3.6454   21.4892 C.ar    1  UNL1        0.0045
     32 C           2.7966   -0.7703   20.3637 C.ar    1  UNL1        0.0001
     33 C           3.3588   -0.1893   19.1002 C.ar    1  UNL1        0.0023
     34 C           2.5044    0.6865   18.2324 C.ar    1  UNL1        0.0296
     35 C           1.0879    0.9814   18.6281 C.ar    1  UNL1        0.1401
     36 F           0.2336    1.8572   17.7604 F       1  UNL1       -0.2042
     37 C           0.5258    0.4004   19.8916 C.ar    1  UNL1        0.0296
     38 C           1.3801   -0.4754   20.7594 C.ar    1  UNL1        0.0023
@<TRIPOS>BOND
     1    17    18    1
     2    18    19    2
     3    18    16    1
     4    16    14    1
     5    14     8    1
     6     8     9    1
     7     9    10    1
     8    10    11    1
     9    11     7    1
    10     7     1    1
    11     1     2   ar
    12     2     3   ar
    13     3     4   ar
    14     4    20    1
    15    20    21    1
    16    21    22    1
    17    22    23   am
    18    23    24    2
    19    23    26    1
    20    26    27   ar
    21    27    28   ar
    22    28    29   ar
    23    29    32    1
    24    32    33   ar
    25    33    34   ar
    26    34    35   ar
    27    35    36    1
    28    35    37   ar
    29    37    38   ar
    30    29    30   ar
    31    30    31   ar
    32     4     5   ar
    33     5     6   ar
    34    11    12    1
    35    12    13    1
    36    13     8    1
    37     6     1   ar
    38    31    26   ar
    39    38    32   ar
    40    14    15    1
    41    22    25    1
@<TRIPOS>MOLECULE
*****
 38 41 0 0 0
SMALL
GASTEIGER

@<TRIPOS>ATOM
      1 C           8.5054   -4.8877   22.7259 C.ar    1  UNL1       -0.0062
      2 C           7.6932   -4.3897   23.8846 C.ar    1  UNL1       -0.0032
      3 C           7.3242   -5.3240   24.9984 C.ar    1  UNL1       -0.0045
      4 C           7.7673   -6.7564   24.9537 C.ar    1  UNL1       -0.0205
      5 C           8.5794   -7.2544   23.7951 C.ar    1  UNL1       -0.0045
      6 C           8.9484   -6.3201   22.6811 C.ar    1  UNL1       -0.0032
      7 C           8.8744   -3.9534   21.6120 C.3     1  UNL1        0.0991
      8 C           5.8095   -2.8184   18.5187 C.3     1  UNL1        0.0571
      9 C           7.1613   -2.1683   18.5090 C.3     1  UNL1        0.0331
     10 C           8.1829   -2.5466   19.5401 C.3     1  UNL1        0.0738
     11 N           7.8528   -3.5750   20.5809 N.3     1  UNL1       -0.2689
     12 C           6.5010   -4.2251   20.5906 C.3     1  UNL1        0.0738
     13 C           5.4794   -3.8467   19.5595 C.3     1  UNL1        0.0331
     14 N           4.7879   -2.4400   17.4876 N.3     1  UNL1       -0.2923
     15 H           5.2699   -2.4205   16.5889 H       1  UNL1        0.1236
     16 C           4.0449   -1.1427   17.6088 C.3     1  UNL1        0.1341
     17 C           2.7074   -1.2106   19.8352 C.3     1  UNL1        0.0738
     18 C           3.7482   -0.5720   18.9639 C.2     1  UNL1        0.1669
     19 O           4.4922    0.6373   19.4477 O.2     1  UNL1       -0.2946
     20 C           7.3982   -7.6908   26.0677 C.3     1  UNL1        0.0476
     21 C           7.9468   -7.4684   27.4459 C.3     1  UNL1        0.0944
     22 N           7.2689   -6.5075   28.3770 N.am    1  UNL1       -0.3005
     23 C           7.8940   -5.1747   28.6650 C.2     1  UNL1        0.2459
     24 O           9.1971   -4.8029   28.0219 O.2     1  UNL1       -0.2701
     25 H           6.4136   -6.7516   28.7990 H       1  UNL1        0.1497
     26 C           7.2160   -4.2138   29.5961 C.ar    1  UNL1        0.0534
     27 C           6.6642   -2.9222   29.0695 C.ar    1  UNL1        0.0045
     28 C           5.9862   -1.9613   30.0006 C.ar    1  UNL1        0.0001
     29 C           5.8600   -2.2919   31.4582 C.ar    1  UNL1        0.0000
     30 C           6.4118   -3.5836   31.9848 C.ar    1  UNL1        0.0001
     31 C           7.0898   -4.5445   31.0537 C.ar    1  UNL1        0.0045
     32 C           5.1820   -1.3310   32.3893 C.ar    1  UNL1        0.0001
     33 C           5.4787   -1.3750   33.8591 C.ar    1  UNL1        0.0023
     34 C           4.8008   -0.4141   34.7901 C.ar    1  UNL1        0.0296
     35 C           3.8260    0.5908   34.2516 C.ar    1  UNL1        0.1401
     36 F           3.1480    1.5517   35.1826 F       1  UNL1       -0.2042
     37 C           3.5293    0.6348   32.7819 C.ar    1  UNL1        0.0296
     38 C           4.2073   -0.3261   31.8507 C.ar    1  UNL1        0.0023
@<TRIPOS>BOND
     1    17    18    1
     2    18    19    2
     3    18    16    1
     4    16    14    1
     5    14     8    1
     6     8     9    1
     7     9    10    1
     8    10    11    1
     9    11     7    1
    10     7     1    1
    11     1     2   ar
    12     2     3   ar
    13     3     4   ar
    14     4    20    1
    15    20    21    1
    16    21    22    1
    17    22    23   am
    18    23    24    2
    19    23    26    1
    20    26    27   ar
    21    27    28   ar
    22    28    29   ar
    23    29    32    1
    24    32    33   ar
    25    33    34   ar
    26    34    35   ar
    27    35    36    1
    28    35    37   ar
    29    37    38   ar
    30    29    30   ar
    31    30    31   ar
    32     4     5   ar
    33     5     6   ar
    34    11    12    1
    35    12    13    1
    36    13     8    1
    37     6     1   ar
    38    31    26   ar
    39    38    32   ar
    40    14    15    1
    41    22    25    1
@<TRIPOS>MOLECULE
*****
 38 41 0 0 0
SMALL
GASTEIGER

@<TRIPOS>ATOM
      1 C           6.9037   -3.0199   30.8657 C.ar    1  UNL1       -0.0062
      2 C           6.9056   -4.5074   31.0588 C.ar    1  UNL1       -0.0032
      3 C           6.8089   -5.4181   29.8709 C.ar    1  UNL1       -0.0045
      4 C           6.7104   -4.8414   28.4897 C.ar    1  UNL1       -0.0205
      5 C           6.7085   -3.3539   28.2965 C.ar    1  UNL1       -0.0045
      6 C           6.8052   -2.4431   29.4845 C.ar    1  UNL1       -0.0032
      7 C           7.0004   -2.1092   32.0536 C.3     1  UNL1        0.0991
      8 C           3.5291    0.5366   33.1488 C.3     1  UNL1        0.0571
      9 C           3.8313   -0.6821   33.9693 C.3     1  UNL1        0.0331
     10 C           4.9884   -1.5641   33.6042 C.3     1  UNL1        0.0738
     11 N           5.8433   -1.2272   32.4187 N.3     1  UNL1       -0.2689
     12 C           5.5412   -0.0085   31.5982 C.3     1  UNL1        0.0738
     13 C           4.3841    0.8735   31.9633 C.3     1  UNL1        0.0331
     14 N           2.3720    1.4186   33.5139 N.3     1  UNL1       -0.2923
     15 H           1.9795    1.7665   32.6391 H       1  UNL1        0.1236
     16 C           2.5879    2.6121   34.3965 C.3     1  UNL1        0.1341
     17 C           4.5876    2.5090   36.0520 C.3     1  UNL1        0.0738
     18 C           3.1128    2.4294   35.7897 C.2     1  UNL1        0.1669
     19 O           2.1630    2.1673   36.9207 O.2     1  UNL1       -0.2946
     20 C           6.6137   -5.7521   27.3018 C.3     1  UNL1        0.0476
     21 C           7.0839   -5.2831   25.9569 C.3     1  UNL1        0.0944
     22 N           6.2074   -4.3959   25.1235 N.am    1  UNL1       -0.3005
     23 C           6.3598   -4.3788   23.6313 C.2     1  UNL1        0.2459
     24 O           7.3888   -5.2491   22.9726 O.2     1  UNL1       -0.2701
     25 H           5.5320   -3.8247   25.5558 H       1  UNL1        0.1497
     26 C           5.4834   -3.4916   22.7979 C.ar    1  UNL1        0.0534
     27 C           5.4141   -3.6875   21.3124 C.ar    1  UNL1        0.0045
     28 C           4.5376   -2.8003   20.4789 C.ar    1  UNL1        0.0001
     29 C           3.7304   -1.7172   21.1310 C.ar    1  UNL1        0.0000
     30 C           3.7997   -1.5213   22.6166 C.ar    1  UNL1        0.0001
     31 C           4.6761   -2.4085   23.4500 C.ar    1  UNL1        0.0045
     32 C           2.8539   -0.8299   20.2977 C.ar    1  UNL1        0.0001
     33 C           1.4313   -0.5844   20.7053 C.ar    1  UNL1        0.0023
     34 C           0.5548    0.3028   19.8719 C.ar    1  UNL1        0.0296
     35 C           1.1008    0.9445   18.6309 C.ar    1  UNL1        0.1401
     36 F           0.2244    1.8317   17.7975 F       1  UNL1       -0.2042
     37 C           2.5233    0.6990   18.2232 C.ar    1  UNL1        0.0296
     38 C           3.3999   -0.1883   19.0566 C.ar    1  UNL1        0.0023
@<TRIPOS>BOND
     1    17    18    1
     2    18    19    2
     3    18    16    1
     4    16    14    1
     5    14     8    1
     6     8     9    1
     7     9    10    1
     8    10    11    1
     9    11     7    1
    10     7     1    1
    11     1     2   ar
    12     2     3   ar
    13     3     4   ar
    14     4    20    1
    15    20    21    1
    16    21    22    1
    17    22    23   am
    18    23    24    2
    19    23    26    1
    20    26    27   ar
    21    27    28   ar
    22    28    29   ar
    23    29    32    1
    24    32    33   ar
    25    33    34   ar
    26    34    35   ar
    27    35    36    1
    28    35    37   ar
    29    37    38   ar
    30    29    30   ar
    31    30    31   ar
    32     4     5   ar
    33     5     6   ar
    34    11    12    1
    35    12    13    1
    36    13     8    1
    37     6     1   ar
    38    31    26   ar
    39    38    32   ar
    40    14    15    1
    41    22    25    1
@<TRIPOS>MOLECULE
*****
 38 41 0 0 0
SMALL
GASTEIGER

@<TRIPOS>ATOM
      1 C           7.3487   -1.9503   31.5745 C.ar    1  UNL1       -0.0062
      2 C           7.2910   -3.3460   32.1214 C.ar    1  UNL1       -0.0032
      3 C           6.9978   -4.4983   31.2069 C.ar    1  UNL1       -0.0045
      4 C           6.7623   -4.2550   29.7456 C.ar    1  UNL1       -0.0205
      5 C           6.8201   -2.8595   29.1988 C.ar    1  UNL1       -0.0045
      6 C           7.1133   -1.7071   30.1132 C.ar    1  UNL1       -0.0032
      7 C           7.6420   -0.7981   32.4890 C.3     1  UNL1        0.0991
      8 C           5.1268   -0.1447   36.1628 C.3     1  UNL1        0.0571
      9 C           4.4777   -0.5434   34.8707 C.3     1  UNL1        0.0331
     10 C           5.3161   -0.7612   33.6461 C.3     1  UNL1        0.0738
     11 N           6.8036   -0.5803   33.7136 N.3     1  UNL1       -0.2689
     12 C           7.4527   -0.1816   35.0057 C.3     1  UNL1        0.0738
     13 C           6.6143    0.0363   36.2303 C.3     1  UNL1        0.0331
     14 N           4.2885    0.0731   37.3874 N.3     1  UNL1       -0.2923
     15 H           3.7184   -0.7642   37.5067 H       1  UNL1        0.1236
     16 C           3.3558    1.2458   37.4591 C.3     1  UNL1        0.1341
     17 C           1.4724    0.5863   39.1227 C.3     1  UNL1        0.0738
     18 C           2.5804    1.5117   38.7152 C.2     1  UNL1        0.1669
     19 O           2.9129    2.7029   39.5639 O.2     1  UNL1       -0.2946
     20 C           6.4691   -5.4074   28.8312 C.3     1  UNL1        0.0476
     21 C           6.9901   -5.4000   27.4246 C.3     1  UNL1        0.0944
     22 N           6.1668   -4.8011   26.3230 N.am    1  UNL1       -0.3005
     23 C           6.6755   -3.6072   25.5707 C.2     1  UNL1        0.2459
     24 O           8.0074   -3.0122   25.9201 O.2     1  UNL1       -0.2701
     25 H           5.2927   -5.1916   26.0938 H       1  UNL1        0.1497
     26 C           5.8522   -3.0083   24.4692 C.ar    1  UNL1        0.0534
     27 C           5.1759   -1.6850   24.6729 C.ar    1  UNL1        0.0045
     28 C           4.3525   -1.0861   23.5713 C.ar    1  UNL1        0.0001
     29 C           4.2056   -1.8104   22.2660 C.ar    1  UNL1        0.0000
     30 C           4.8820   -3.1337   22.0623 C.ar    1  UNL1        0.0001
     31 C           5.7053   -3.7326   23.1639 C.ar    1  UNL1        0.0045
     32 C           3.3823   -1.2115   21.1644 C.ar    1  UNL1        0.0001
     33 C           3.8682   -1.2730   19.7466 C.ar    1  UNL1        0.0023
     34 C           3.0449   -0.6741   18.6450 C.ar    1  UNL1        0.0296
     35 C           1.7358   -0.0137   18.9612 C.ar    1  UNL1        0.1401
     36 F           0.9125    0.5853   17.8596 F       1  UNL1       -0.2042
     37 C           1.2499    0.0478   20.3790 C.ar    1  UNL1        0.0296
     38 C           2.0732   -0.5511   21.4806 C.ar    1  UNL1        0.0023
@<TRIPOS>BOND
     1    17    18    1
     2    18    19    2
     3    18    16    1
     4    16    14    1
     5    14     8    1
     6     8     9    1
     7     9    10    1
     8    10    11    1
     9    11     7    1
    10     7     1    1
    11     1     2   ar
    12     2     3   ar
    13     3     4   ar
    14     4    20    1
    15    20    21    1
    16    21    22    1
    17    22    23   am
    18    23    24    2
    19    23    26    1
    20    26    27   ar
    21    27    28   ar
    22    28    29   ar
    23    29    32    1
    24    32    33   ar
    25    33    34   ar
    26    34    35   ar
    27    35    36    1
    28    35    37   ar
    29    37    38   ar
    30    29    30   ar
    31    30    31   ar
    32     4     5   ar
    33     5     6   ar
    34    11    12    1
    35    12    13    1
    36    13     8    1
    37     6     1   ar
    38    31    26   ar
    39    38    32   ar
    40    14    15    1
    41    22    25    1
@<TRIPOS>MOLECULE
*****
 38 41 0 0 0
SMALL
GASTEIGER

@<TRIPOS>ATOM
      1 C           7.0695   -0.8767   33.3600 C.ar    1  UNL1       -0.0062
      2 C           8.3469   -1.5834   33.0147 C.ar    1  UNL1       -0.0032
      3 C           8.3051   -2.9035   32.3038 C.ar    1  UNL1       -0.0045
      4 C           6.9861   -3.5170   31.9381 C.ar    1  UNL1       -0.0205
      5 C           5.7088   -2.8105   32.2833 C.ar    1  UNL1       -0.0045
      6 C           5.7505   -1.4903   32.9943 C.ar    1  UNL1       -0.0032
      7 C           7.1113    0.4434   34.0710 C.3     1  UNL1        0.0991
      8 C           3.5116    1.8835   36.3554 C.3     1  UNL1        0.0571
      9 C           4.2731    0.6833   36.8345 C.3     1  UNL1        0.0331
     10 C           5.4730    0.2033   36.0730 C.3     1  UNL1        0.0738
     11 N           5.9114    0.9234   34.8324 N.3     1  UNL1       -0.2689
     12 C           5.1499    2.1237   34.3533 C.3     1  UNL1        0.0738
     13 C           3.9500    2.6037   35.1148 C.3     1  UNL1        0.0331
     14 N           2.3117    2.3636   37.1168 N.3     1  UNL1       -0.2923
     15 H           2.2584    3.3725   36.9768 H       1  UNL1        0.1236
     16 C           2.2170    2.1260   38.5948 C.3     1  UNL1        0.1341
     17 C           1.2312   -0.0115   39.6945 C.3     1  UNL1        0.0738
     18 C           1.0464    1.3781   39.1607 C.2     1  UNL1        0.1669
     19 O          -0.3090    2.0198   39.1929 O.2     1  UNL1       -0.2946
     20 C           6.9444   -4.8372   31.2271 C.3     1  UNL1        0.0476
     21 C           7.6737   -5.0129   29.9282 C.3     1  UNL1        0.0944
     22 N           6.9873   -4.6929   28.6335 N.am    1  UNL1       -0.3005
     23 C           7.0248   -3.2952   28.0901 C.2     1  UNL1        0.2459
     24 O           7.7488   -2.2176   28.8416 O.2     1  UNL1       -0.2701
     25 H           6.5121   -5.4001   28.1403 H       1  UNL1        0.1497
     26 C           6.3384   -2.9751   26.7954 C.ar    1  UNL1        0.0534
     27 C           6.5725   -3.8361   25.5896 C.ar    1  UNL1        0.0045
     28 C           5.8861   -3.5160   24.2948 C.ar    1  UNL1        0.0001
     29 C           4.9656   -2.3350   24.2058 C.ar    1  UNL1        0.0000
     30 C           4.7315   -1.4741   25.4117 C.ar    1  UNL1        0.0001
     31 C           5.4179   -1.7941   26.7064 C.ar    1  UNL1        0.0045
     32 C           4.2792   -2.0150   22.9111 C.ar    1  UNL1        0.0001
     33 C           4.5761   -2.8256   21.6844 C.ar    1  UNL1        0.0023
     34 C           3.8897   -2.5056   20.3897 C.ar    1  UNL1        0.0296
     35 C           2.9064   -1.3749   20.3216 C.ar    1  UNL1        0.1401
     36 F           2.2200   -1.0548   19.0268 F       1  UNL1       -0.2042
     37 C           2.6095   -0.5643   21.5482 C.ar    1  UNL1        0.0296
     38 C           3.2959   -0.8843   22.8430 C.ar    1  UNL1        0.0023
@<TRIPOS>BOND
     1    17    18    1
     2    18    19    2
     3    18    16    1
     4    16    14    1
     5    14     8    1
     6     8     9    1
     7     9    10    1
     8    10    11    1
     9    11     7    1
    10     7     1    1
    11     1     2   ar
    12     2     3   ar
    13     3     4   ar
    14     4    20    1
    15    20    21    1
    16    21    22    1
    17    22    23   am
    18    23    24    2
    19    23    26    1
    20    26    27   ar
    21    27    28   ar
    22    28    29   ar
    23    29    32    1
    24    32    33   ar
    25    33    34   ar
    26    34    35   ar
    27    35    36    1
    28    35    37   ar
    29    37    38   ar
    30    29    30   ar
    31    30    31   ar
    32     4     5   ar
    33     5     6   ar
    34    11    12    1
    35    12    13    1
    36    13     8    1
    37     6     1   ar
    38    31    26   ar
    39    38    32   ar
    40    14    15    1
    41    22    25    1
@<TRIPOS>MOLECULE
*****
 38 41 0 0 0
SMALL
GASTEIGER

@<TRIPOS>ATOM
      1 C          -0.9999    3.4001   27.2181 C.ar    1  UNL1       -0.0062
      2 C          -1.4363    1.9684   27.3169 C.ar    1  UNL1       -0.0032
      3 C          -0.6046    0.9819   28.0819 C.ar    1  UNL1       -0.0045
      4 C           0.6634    1.4272   28.7481 C.ar    1  UNL1       -0.0205
      5 C           1.0998    2.8589   28.6493 C.ar    1  UNL1       -0.0045
      6 C           0.2681    3.8454   27.8844 C.ar    1  UNL1       -0.0032
      7 C          -1.8316    4.3866   26.4532 C.3     1  UNL1        0.0991
      8 C          -3.4725    3.2887   22.4094 C.3     1  UNL1        0.0571
      9 C          -4.3936    3.3978   23.5882 C.3     1  UNL1        0.0331
     10 C          -3.8467    3.7637   24.9361 C.3     1  UNL1        0.0738
     11 N          -2.3786    4.0206   25.1053 N.3     1  UNL1       -0.2689
     12 C          -1.4574    3.9115   23.9265 C.3     1  UNL1        0.0738
     13 C          -2.0044    3.5456   22.5786 C.3     1  UNL1        0.0331
     14 N          -4.0195    2.9227   21.0615 N.3     1  UNL1       -0.2923
     15 H          -3.2319    2.9261   20.4133 H       1  UNL1        0.1236
     16 C          -5.0974    3.7584   20.4374 C.3     1  UNL1        0.1341
     17 C          -4.5367    3.8684   17.9029 C.3     1  UNL1        0.0738
     18 C          -5.4919    3.5287   19.0085 C.2     1  UNL1        0.1669
     19 O          -6.8414    2.9594   18.6853 O.2     1  UNL1       -0.2946
     20 C           1.4951    0.4407   29.5131 C.3     1  UNL1        0.0476
     21 C           2.3687   -0.5328   28.7787 C.3     1  UNL1        0.0944
     22 N           2.3852   -0.5420   27.2788 N.am    1  UNL1       -0.3005
     23 C           3.6020   -1.0229   26.5452 C.2     1  UNL1        0.2459
     24 O           4.8022   -1.4946   27.3114 O.2     1  UNL1       -0.2701
     25 H           1.5975   -0.2324   26.7760 H       1  UNL1        0.1497
     26 C           3.6186   -1.0321   25.0453 C.ar    1  UNL1        0.0534
     27 C           2.7869   -0.0459   24.2800 C.ar    1  UNL1        0.0045
     28 C           2.8035   -0.0551   22.7801 C.ar    1  UNL1        0.0001
     29 C           3.6518   -1.0505   22.0455 C.ar    1  UNL1        0.0000
     30 C           4.4835   -2.0367   22.8109 C.ar    1  UNL1        0.0001
     31 C           4.4669   -2.0275   24.3107 C.ar    1  UNL1        0.0045
     32 C           3.6683   -1.0597   20.5457 C.ar    1  UNL1        0.0001
     33 C           4.4625   -2.0986   19.8107 C.ar    1  UNL1        0.0023
     34 C           4.4791   -2.1078   18.3109 C.ar    1  UNL1        0.0296
     35 C           3.7015   -1.0782   17.5459 C.ar    1  UNL1        0.1401
     36 F           3.7181   -1.0874   16.0461 F       1  UNL1       -0.2042
     37 C           2.9074   -0.0393   18.2808 C.ar    1  UNL1        0.0296
     38 C           2.8908   -0.0300   19.7807 C.ar    1  UNL1        0.0023
@<TRIPOS>BOND
     1    17    18    1
     2    18    19    2
     3    18    16    1
     4    16    14    1
     5    14     8    1
     6     8     9    1
     7     9    10    1
     8    10    11    1
     9    11     7    1
    10     7     1    1
    11     1     2   ar
    12     2     3   ar
    13     3     4   ar
    14     4    20    1
    15    20    21    1
    16    21    22    1
    17    22    23   am
    18    23    24    2
    19    23    26    1
    20    26    27   ar
    21    27    28   ar
    22    28    29   ar
    23    29    32    1
    24    32    33   ar
    25    33    34   ar
    26    34    35   ar
    27    35    36    1
    28    35    37   ar
    29    37    38   ar
    30    29    30   ar
    31    30    31   ar
    32     4     5   ar
    33     5     6   ar
    34    11    12    1
    35    12    13    1
    36    13     8    1
    37     6     1   ar
    38    31    26   ar
    39    38    32   ar
    40    14    15    1
    41    22    25    1
@<TRIPOS>MOLECULE
*****
 38 41 0 0 0
SMALL
GASTEIGER

@<TRIPOS>ATOM
      1 C          -1.8790    4.2747   26.0627 C.ar    1  UNL1       -0.0062
      2 C          -1.4609    4.7072   24.6886 C.ar    1  UNL1       -0.0032
      3 C          -2.4084    4.5597   23.5352 C.ar    1  UNL1       -0.0045
      4 C          -3.7740    3.9796   23.7558 C.ar    1  UNL1       -0.0205
      5 C          -4.1921    3.5471   25.1298 C.ar    1  UNL1       -0.0045
      6 C          -3.2446    3.6946   26.2833 C.ar    1  UNL1       -0.0032
      7 C          -0.9315    4.4222   27.2162 C.3     1  UNL1        0.0991
      8 C           0.6803    0.7659   29.2859 C.3     1  UNL1        0.0571
      9 C          -0.2717    0.6185   28.1361 C.3     1  UNL1        0.0331
     10 C          -0.8090    1.8373   27.4462 C.3     1  UNL1        0.0738
     11 N          -0.3943    3.2035   27.9061 N.3     1  UNL1       -0.2689
     12 C           0.5577    3.3509   29.0558 C.3     1  UNL1        0.0738
     13 C           1.0950    2.1321   29.7457 C.3     1  UNL1        0.0331
     14 N           1.2175   -0.4528   29.9758 N.3     1  UNL1       -0.2923
     15 H           0.7593   -0.5022   30.8857 H       1  UNL1        0.1236
     16 C           2.6907   -0.5854   30.2251 C.3     1  UNL1        0.1341
     17 C           3.2936    0.6946   32.4042 C.3     1  UNL1        0.0738
     18 C           3.2163   -0.5879   31.6300 C.2     1  UNL1        0.1669
     19 O           3.6646   -1.8729   32.2607 O.2     1  UNL1       -0.2946
     20 C          -4.7215    3.8321   22.6022 C.3     1  UNL1        0.0476
     21 C          -4.1947    3.8023   21.1981 C.3     1  UNL1        0.0944
     22 N          -3.0791    2.8676   20.8353 N.am    1  UNL1       -0.3005
     23 C          -1.7575    3.4162   20.3851 C.2     1  UNL1        0.2459
     24 O          -1.5517    4.8994   20.2977 O.2     1  UNL1       -0.2701
     25 H          -3.2142    1.8942   20.8927 H       1  UNL1        0.1497
     26 C          -0.6418    2.4815   20.0223 C.ar    1  UNL1        0.0534
     27 C           0.0422    2.6102   18.6936 C.ar    1  UNL1        0.0045
     28 C           1.1580    1.6755   18.3308 C.ar    1  UNL1        0.0001
     29 C           1.5896    0.6122   19.2967 C.ar    1  UNL1        0.0000
     30 C           0.9054    0.4835   20.6255 C.ar    1  UNL1        0.0001
     31 C          -0.2102    1.4182   20.9882 C.ar    1  UNL1        0.0045
     32 C           2.7052   -0.3225   18.9340 C.ar    1  UNL1        0.0001
     33 C           3.5892   -0.0159   17.7614 C.ar    1  UNL1        0.0023
     34 C           4.7048   -0.9506   17.3987 C.ar    1  UNL1        0.0296
     35 C           4.9366   -2.1918   18.2084 C.ar    1  UNL1        0.1401
     36 F           6.0523   -3.1265   17.8456 F       1  UNL1       -0.2042
     37 C           4.0527   -2.4984   19.3808 C.ar    1  UNL1        0.0296
     38 C           2.9370   -1.5637   19.7436 C.ar    1  UNL1        0.0023
@<TRIPOS>BOND
     1    17    18    1
     2    18    19    2
     3    18    16    1
     4    16    14    1
     5    14     8    1
     6     8     9    1
     7     9    10    1
     8    10    11    1
     9    11     7    1
    10     7     1    1
    11     1     2   ar
    12     2     3   ar
    13     3     4   ar
    14     4    20    1
    15    20    21    1
    16    21    22    1
    17    22    23   am
    18    23    24    2
    19    23    26    1
    20    26    27   ar
    21    27    28   ar
    22    28    29   ar
    23    29    32    1
    24    32    33   ar
    25    33    34   ar
    26    34    35   ar
    27    35    36    1
    28    35    37   ar
    29    37    38   ar
    30    29    30   ar
    31    30    31   ar
    32     4     5   ar
    33     5     6   ar
    34    11    12    1
    35    12    13    1
    36    13     8    1
    37     6     1   ar
    38    31    26   ar
    39    38    32   ar
    40    14    15    1
    41    22    25    1
@<TRIPOS>MOLECULE
*****
 38 41 0 0 0
SMALL
GASTEIGER

@<TRIPOS>ATOM
      1 C           3.1700   -1.2664   19.5879 C.ar    1  UNL1       -0.0062
      2 C           1.7607   -1.1229   20.0815 C.ar    1  UNL1       -0.0032
      3 C           0.9201    0.0324   19.6250 C.ar    1  UNL1       -0.0045
      4 C           1.4887    1.0444   18.6749 C.ar    1  UNL1       -0.0205
      5 C           2.8978    0.9010   18.1813 C.ar    1  UNL1       -0.0045
      6 C           3.7385   -0.2544   18.6378 C.ar    1  UNL1       -0.0032
      7 C           4.0106   -2.4217   20.0444 C.3     1  UNL1        0.0991
      8 C           5.2715   -2.7228   24.3537 C.3     1  UNL1        0.0571
      9 C           5.6348   -3.8116   23.3881 C.3     1  UNL1        0.0331
     10 C           5.2145   -3.7113   21.9517 C.3     1  UNL1        0.0738
     11 N           4.4309   -2.5221   21.4809 N.3     1  UNL1       -0.2689
     12 C           4.0676   -1.4332   22.4464 C.3     1  UNL1        0.0738
     13 C           4.4879   -1.5336   23.8828 C.3     1  UNL1        0.0331
     14 N           5.6918   -2.8231   25.7901 N.3     1  UNL1       -0.2923
     15 H           5.8909   -1.8738   26.1056 H       1  UNL1        0.1236
     16 C           6.8761   -3.6624   26.1681 C.3     1  UNL1        0.1341
     17 C           7.0345   -6.2481   26.3659 C.3     1  UNL1        0.0738
     18 C           6.6815   -4.9187   26.9643 C.2     1  UNL1        0.1669
     19 O           6.1340   -4.8456   28.3589 O.2     1  UNL1       -0.2946
     20 C           0.6480    2.1998   18.2183 C.3     1  UNL1        0.0476
     21 C           0.4498    3.3844   19.1169 C.3     1  UNL1        0.0944
     22 N           0.5985    3.2326   20.6017 N.am    1  UNL1       -0.3005
     23 C          -0.5703    2.7897   21.4312 C.2     1  UNL1        0.2459
     24 O          -1.8877    2.4987   20.7756 O.2     1  UNL1       -0.2701
     25 H           1.4632    3.4235   21.0320 H       1  UNL1        0.1497
     26 C          -0.4216    2.6379   22.9160 C.ar    1  UNL1        0.0534
     27 C           0.6216    1.7164   23.4749 C.ar    1  UNL1        0.0045
     28 C           0.7703    1.5645   24.9598 C.ar    1  UNL1        0.0001
     29 C          -0.1243    2.3342   25.8857 C.ar    1  UNL1        0.0000
     30 C          -1.1676    3.2557   25.3268 C.ar    1  UNL1        0.0001
     31 C          -1.3162    3.4075   23.8419 C.ar    1  UNL1        0.0045
     32 C           0.0244    2.1823   27.3706 C.ar    1  UNL1        0.0001
     33 C          -0.5129    0.9617   28.0572 C.ar    1  UNL1        0.0023
     34 C          -0.3642    0.8098   29.5421 C.ar    1  UNL1        0.0296
     35 C           0.3217    1.8786   30.3403 C.ar    1  UNL1        0.1401
     36 F           0.4704    1.7268   31.8252 F       1  UNL1       -0.2042
     37 C           0.8590    3.0992   29.6538 C.ar    1  UNL1        0.0296
     38 C           0.7103    3.2511   28.1689 C.ar    1  UNL1        0.0023
@<TRIPOS>BOND
     1    17    18    1
     2    18    19    2
     3    18    16    1
     4    16    14    1
     5    14     8    1
     6     8     9    1
     7     9    10    1
     8    10    11    1
     9    11     7    1
    10     7     1    1
    11     1     2   ar
    12     2     3   ar
    13     3     4   ar
    14     4    20    1
    15    20    21    1
    16    21    22    1
    17    22    23   am
    18    23    24    2
    19    23    26    1
    20    26    27   ar
    21    27    28   ar
    22    28    29   ar
    23    29    32    1
    24    32    33   ar
    25    33    34   ar
    26    34    35   ar
    27    35    36    1
    28    35    37   ar
    29    37    38   ar
    30    29    30   ar
    31    30    31   ar
    32     4     5   ar
    33     5     6   ar
    34    11    12    1
    35    12    13    1
    36    13     8    1
    37     6     1   ar
    38    31    26   ar
    39    38    32   ar
    40    14    15    1
    41    22    25    1
