@<TRIPOS>MOLECULE
*****
 23 25 0 0 0
SMALL
GASTEIGER

@<TRIPOS>ATOM
      1 C          -7.6314  -18.2891   22.0784 C.2     1  UNL1        0.2270
      2 O          -7.4913  -17.0121   21.3039 O.2     1  UNL1       -0.2747
      3 N          -6.4715  -19.2345   22.1820 N.am    1  UNL1       -0.2641
      4 H          -6.5634  -20.0727   22.6903 H       1  UNL1        0.1567
      5 C          -5.1714  -18.9030   21.5112 C.ar    1  UNL1        0.1655
      6 N          -4.9461  -18.7888   20.0326 N.ar    1  UNL1       -0.2239
      7 C          -3.5039  -18.4427   19.8088 C.ar    1  UNL1        0.0893
      8 C          -2.7111  -18.2055   18.5577 C.ar    1  UNL1        0.0205
      9 C          -1.2522  -17.8685   18.6469 C.ar    1  UNL1        0.0130
     10 C          -0.5861  -17.7687   19.9872 C.ar    1  UNL1        0.0583
     11 CL          0.8729  -17.4317   20.0764 Cl      1  UNL1       -0.0822
     12 C          -1.3789  -18.0060   21.2383 C.ar    1  UNL1        0.0195
     13 C          -2.8378  -18.3430   21.1490 C.ar    1  UNL1        0.0506
     14 S          -3.8683  -18.6274   22.2012 S.2     1  UNL1       -0.0514
     15 C         -10.4004  -21.2914   25.2907 C.3     1  UNL1        0.0000
     16 C         -10.3159  -20.1218   24.3554 C.3     1  UNL1        0.0005
     17 C          -9.0158  -19.7903   23.6846 C.3     1  UNL1        0.0091
     18 C          -8.9314  -18.6207   22.7492 C.3     1  UNL1        0.0769
     19 C         -10.1470  -17.7826   22.4846 C.3     1  UNL1        0.0091
     20 C         -11.4470  -18.1142   23.1554 C.3     1  UNL1        0.0005
     21 C         -11.8644  -16.9151   22.3567 C.3     1  UNL1        0.0000
     22 C         -12.8920  -18.0293   23.5488 C.3     1  UNL1        0.0000
     23 C         -11.5315  -19.2837   24.0908 C.3     1  UNL1        0.0000
@<TRIPOS>BOND
     1    15    16    1
     2    16    17    1
     3    17    18    1
     4    18     1    1
     5     1     2    2
     6     1     3   am
     7     3     5    1
     8     5     6   ar
     9     6     7   ar
    10     7     8   ar
    11     8     9   ar
    12     9    10   ar
    13    10    11    1
    14    10    12   ar
    15    12    13   ar
    16    13    14   ar
    17    18    19    1
    18    19    20    1
    19    20    21    1
    20    20    22    1
    21    20    23    1
    22    23    16    1
    23    14     5   ar
    24    13     7   ar
    25     3     4    1
@<TRIPOS>MOLECULE
*****
 23 25 0 0 0
SMALL
GASTEIGER

@<TRIPOS>ATOM
      1 C          -7.8934  -17.7055   21.8827 C.2     1  UNL1        0.2270
      2 O          -7.3769  -16.3319   21.5717 O.2     1  UNL1       -0.2747
      3 N          -7.0035  -18.8997   21.7040 N.am    1  UNL1       -0.2641
      4 H          -7.3425  -19.8011   21.9081 H       1  UNL1        0.1567
      5 C          -5.5970  -18.7203   21.2143 C.ar    1  UNL1        0.1655
      6 N          -5.1613  -18.6799   19.7796 N.ar    1  UNL1       -0.2239
      7 C          -3.6744  -18.4846   19.7520 C.ar    1  UNL1        0.0893
      8 C          -2.6981  -18.3694   18.6191 C.ar    1  UNL1        0.0205
      9 C          -1.2384  -18.1740   18.9039 C.ar    1  UNL1        0.0130
     10 C          -0.7551  -18.0936   20.3216 C.ar    1  UNL1        0.0583
     11 CL          0.7047  -17.8982   20.6064 Cl      1  UNL1       -0.0822
     12 C          -1.7314  -18.2088   21.4545 C.ar    1  UNL1        0.0195
     13 C          -3.1910  -18.4042   21.1697 C.ar    1  UNL1        0.0506
     14 S          -4.3793  -18.5499   22.0735 S.2     1  UNL1       -0.0514
     15 C         -13.0045  -17.0301   21.2345 C.3     1  UNL1        0.0000
     16 C         -11.8554  -17.5471   22.0482 C.3     1  UNL1        0.0005
     17 C         -10.4490  -17.3678   21.5585 C.3     1  UNL1        0.0091
     18 C          -9.2998  -17.8848   22.3723 C.3     1  UNL1        0.0769
     19 C          -9.5572  -18.5811   23.6757 C.3     1  UNL1        0.0091
     20 C         -10.9636  -18.7605   24.1654 C.3     1  UNL1        0.0005
     21 C         -10.2123  -19.4192   25.2841 C.3     1  UNL1        0.0000
     22 C         -12.1091  -19.1686   25.0435 C.3     1  UNL1        0.0000
     23 C         -12.1127  -18.2435   23.3516 C.3     1  UNL1        0.0000
@<TRIPOS>BOND
     1    15    16    1
     2    16    17    1
     3    17    18    1
     4    18     1    1
     5     1     2    2
     6     1     3   am
     7     3     5    1
     8     5     6   ar
     9     6     7   ar
    10     7     8   ar
    11     8     9   ar
    12     9    10   ar
    13    10    11    1
    14    10    12   ar
    15    12    13   ar
    16    13    14   ar
    17    18    19    1
    18    19    20    1
    19    20    21    1
    20    20    22    1
    21    20    23    1
    22    23    16    1
    23    14     5   ar
    24    13     7   ar
    25     3     4    1
@<TRIPOS>MOLECULE
*****
 23 25 0 0 0
SMALL
GASTEIGER

@<TRIPOS>ATOM
      1 C          -8.4041  -17.2415   21.9070 C.2     1  UNL1        0.2270
      2 O          -7.6437  -15.9702   22.1428 O.2     1  UNL1       -0.2747
      3 N          -7.6676  -18.5052   21.5746 N.am    1  UNL1       -0.2641
      4 H          -8.1666  -19.3396   21.4198 H       1  UNL1        0.1567
      5 C          -6.1707  -18.4977   21.4780 C.ar    1  UNL1        0.1655
      6 N          -5.2164  -18.2076   22.5983 N.ar    1  UNL1       -0.2239
      7 C          -3.8212  -18.3096   22.0570 C.ar    1  UNL1        0.0893
      8 C          -2.4789  -18.1265   22.7008 C.ar    1  UNL1        0.0205
      9 C          -1.2286  -18.2966   21.8898 C.ar    1  UNL1        0.0130
     10 C          -1.3207  -18.6497   20.4348 C.ar    1  UNL1        0.0583
     11 CL         -0.0703  -18.8197   19.6238 Cl      1  UNL1       -0.0822
     12 C          -2.6630  -18.8327   19.7910 C.ar    1  UNL1        0.0195
     13 C          -3.9132  -18.6627   20.6020 C.ar    1  UNL1        0.0506
     14 S          -5.3653  -18.7789   20.2443 S.2     1  UNL1       -0.0514
     15 C         -13.0455  -15.9498   19.9605 C.3     1  UNL1        0.0000
     16 C         -12.2216  -16.6031   21.0302 C.3     1  UNL1        0.0005
     17 C         -10.7248  -16.5956   20.9337 C.3     1  UNL1        0.0091
     18 C          -9.9009  -17.2490   22.0035 C.3     1  UNL1        0.0769
     19 C         -10.5740  -17.9099   23.1697 C.3     1  UNL1        0.0091
     20 C         -12.0708  -17.9174   23.2663 C.3     1  UNL1        0.0005
     21 C         -11.7251  -18.6634   24.5209 C.3     1  UNL1        0.0000
     22 C         -13.4476  -18.1840   23.7985 C.3     1  UNL1        0.0000
     23 C         -12.8947  -17.2641   22.1965 C.3     1  UNL1        0.0000
@<TRIPOS>BOND
     1    15    16    1
     2    16    17    1
     3    17    18    1
     4    18     1    1
     5     1     2    2
     6     1     3   am
     7     3     5    1
     8     5     6   ar
     9     6     7   ar
    10     7     8   ar
    11     8     9   ar
    12     9    10   ar
    13    10    11    1
    14    10    12   ar
    15    12    13   ar
    16    13    14   ar
    17    18    19    1
    18    19    20    1
    19    20    21    1
    20    20    22    1
    21    20    23    1
    22    23    16    1
    23    14     5   ar
    24    13     7   ar
    25     3     4    1
@<TRIPOS>MOLECULE
*****
 23 25 0 0 0
SMALL
GASTEIGER

@<TRIPOS>ATOM
      1 C          -6.7080  -18.5520   22.2070 C.2     1  UNL1        0.2270
      2 O          -6.9735  -17.2176   22.8385 O.2     1  UNL1       -0.2747
      3 N          -7.8188  -19.5503   22.0680 N.am    1  UNL1       -0.2641
      4 H          -7.6445  -20.4262   21.6535 H       1  UNL1        0.1567
      5 C          -9.1952  -19.2143   22.5604 C.ar    1  UNL1        0.1655
      6 N         -10.2644  -18.5112   21.7778 N.ar    1  UNL1       -0.2239
      7 C         -11.4742  -18.3847   22.6556 C.ar    1  UNL1        0.0893
      8 C         -12.8269  -17.7812   22.4195 C.ar    1  UNL1        0.0205
      9 C         -13.8581  -17.8026   23.5086 C.ar    1  UNL1        0.0130
     10 C         -13.5366  -18.4274   24.8338 C.ar    1  UNL1        0.0583
     11 CL        -14.5678  -18.4488   25.9229 Cl      1  UNL1       -0.0822
     12 C         -12.1838  -19.0309   25.0699 C.ar    1  UNL1        0.0195
     13 C         -11.1526  -19.0095   23.9808 C.ar    1  UNL1        0.0506
     14 S          -9.7441  -19.5222   23.9220 S.2     1  UNL1       -0.0514
     15 C          -3.5740  -21.4278   19.2224 C.3     1  UNL1        0.0000
     16 C          -3.7646  -20.3260   20.2222 C.3     1  UNL1        0.0005
     17 C          -5.1410  -19.9899   20.7147 C.3     1  UNL1        0.0091
     18 C          -5.3315  -18.8881   21.7146 C.3     1  UNL1        0.0769
     19 C          -4.1457  -18.1224   22.2220 C.3     1  UNL1        0.0091
     20 C          -2.7693  -18.4585   21.7295 C.3     1  UNL1        0.0005
     21 C          -2.4425  -17.3383   22.6721 C.3     1  UNL1        0.0000
     22 C          -1.2794  -18.4056   21.5644 C.3     1  UNL1        0.0000
     23 C          -2.5787  -19.5603   20.7297 C.3     1  UNL1        0.0000
@<TRIPOS>BOND
     1    15    16    1
     2    16    17    1
     3    17    18    1
     4    18     1    1
     5     1     2    2
     6     1     3   am
     7     3     5    1
     8     5     6   ar
     9     6     7   ar
    10     7     8   ar
    11     8     9   ar
    12     9    10   ar
    13    10    11    1
    14    10    12   ar
    15    12    13   ar
    16    13    14   ar
    17    18    19    1
    18    19    20    1
    19    20    21    1
    20    20    22    1
    21    20    23    1
    22    23    16    1
    23    14     5   ar
    24    13     7   ar
    25     3     4    1
@<TRIPOS>MOLECULE
*****
 23 25 0 0 0
SMALL
GASTEIGER

@<TRIPOS>ATOM
      1 C           4.9599   -3.1434   21.0892 C.2     1  UNL1        0.2270
      2 O           4.3347   -4.5066   21.1181 O.2     1  UNL1       -0.2747
      3 N           6.1124   -2.8275   21.9958 N.am    1  UNL1       -0.2641
      4 H           6.5227   -1.9327   21.9769 H       1  UNL1        0.1567
      5 C           6.6398   -3.8747   22.9313 C.ar    1  UNL1        0.1655
      6 N           7.4500   -5.0760   22.5434 N.ar    1  UNL1       -0.2239
      7 C           7.7605   -5.8484   23.7913 C.ar    1  UNL1        0.0893
      8 C           8.5263   -7.1173   24.0218 C.ar    1  UNL1        0.0205
      9 C           8.6739   -7.6622   25.4115 C.ar    1  UNL1        0.0130
     10 C           8.0555   -6.9383   26.5706 C.ar    1  UNL1        0.0583
     11 CL          8.2031   -7.4833   27.9603 Cl      1  UNL1       -0.0822
     12 C           7.2897   -5.6693   26.3400 C.ar    1  UNL1        0.0195
     13 C           7.1421   -5.1244   24.9504 C.ar    1  UNL1        0.0506
     14 S           6.4495   -3.9046   24.4189 S.2     1  UNL1       -0.0514
     15 C           5.6633    0.0463   17.0480 C.3     1  UNL1        0.0000
     16 C           4.7843   -0.5012   18.1331 C.3     1  UNL1        0.0005
     17 C           5.3117   -1.5485   19.0686 C.3     1  UNL1        0.0091
     18 C           4.4326   -2.0961   20.1538 C.3     1  UNL1        0.0769
     19 C           3.0262   -1.5964   20.3034 C.3     1  UNL1        0.0091
     20 C           2.4989   -0.5491   19.3679 C.3     1  UNL1        0.0005
     21 C           1.2911   -0.7582   20.2325 C.3     1  UNL1        0.0000
     22 C           1.5521    0.4256   18.7327 C.3     1  UNL1        0.0000
     23 C           3.3779   -0.0015   18.2828 C.3     1  UNL1        0.0000
@<TRIPOS>BOND
     1    15    16    1
     2    16    17    1
     3    17    18    1
     4    18     1    1
     5     1     2    2
     6     1     3   am
     7     3     5    1
     8     5     6   ar
     9     6     7   ar
    10     7     8   ar
    11     8     9   ar
    12     9    10   ar
    13    10    11    1
    14    10    12   ar
    15    12    13   ar
    16    13    14   ar
    17    18    19    1
    18    19    20    1
    19    20    21    1
    20    20    22    1
    21    20    23    1
    22    23    16    1
    23    14     5   ar
    24    13     7   ar
    25     3     4    1
@<TRIPOS>MOLECULE
*****
 23 25 0 0 0
SMALL
GASTEIGER

@<TRIPOS>ATOM
      1 C           5.0255   -3.4293   21.3543 C.2     1  UNL1        0.2270
      2 O           4.3729   -4.7767   21.4471 O.2     1  UNL1       -0.2747
      3 N           6.2090   -3.1082   22.2181 N.am    1  UNL1       -0.2641
      4 H           6.6374   -2.2238   22.1572 H       1  UNL1        0.1567
      5 C           6.7400   -4.1344   23.1746 C.ar    1  UNL1        0.1655
      6 N           7.4815   -5.3846   22.8044 N.ar    1  UNL1       -0.2239
      7 C           7.8224   -6.1136   24.0703 C.ar    1  UNL1        0.0893
      8 C           8.5475   -7.4022   24.3223 C.ar    1  UNL1        0.0205
      9 C           8.7419   -7.8910   25.7270 C.ar    1  UNL1        0.0130
     10 C           8.2110   -7.0913   26.8796 C.ar    1  UNL1        0.0583
     11 CL          8.4054   -7.5802   28.2844 Cl      1  UNL1       -0.0822
     12 C           7.4859   -5.8027   26.6276 C.ar    1  UNL1        0.0195
     13 C           7.2915   -5.3138   25.2229 C.ar    1  UNL1        0.0506
     14 S           6.6226   -4.0907   24.6694 S.2     1  UNL1       -0.0514
     15 C           1.1947   -0.2804   19.8023 C.3     1  UNL1        0.0000
     16 C           2.5792   -0.8286   19.6218 C.3     1  UNL1        0.0005
     17 C           3.1101   -1.8548   20.5783 C.3     1  UNL1        0.0091
     18 C           4.4946   -2.4031   20.3978 C.3     1  UNL1        0.0769
     19 C           5.3482   -1.9250   19.2608 C.3     1  UNL1        0.0091
     20 C           4.8173   -0.8988   18.3042 C.3     1  UNL1        0.0005
     21 C           6.1820   -1.1170   17.7212 C.3     1  UNL1        0.0000
     22 C           4.7604    0.0517   17.1452 C.3     1  UNL1        0.0000
     23 C           3.4328   -0.3506   18.4847 C.3     1  UNL1        0.0000
@<TRIPOS>BOND
     1    15    16    1
     2    16    17    1
     3    17    18    1
     4    18     1    1
     5     1     2    2
     6     1     3   am
     7     3     5    1
     8     5     6   ar
     9     6     7   ar
    10     7     8   ar
    11     8     9   ar
    12     9    10   ar
    13    10    11    1
    14    10    12   ar
    15    12    13   ar
    16    13    14   ar
    17    18    19    1
    18    19    20    1
    19    20    21    1
    20    20    22    1
    21    20    23    1
    22    23    16    1
    23    14     5   ar
    24    13     7   ar
    25     3     4    1
@<TRIPOS>MOLECULE
*****
 23 25 0 0 0
SMALL
GASTEIGER

@<TRIPOS>ATOM
      1 C         -13.6256   -3.4412   19.7190 C.2     1  UNL1        0.2270
      2 O         -13.6572   -3.0373   21.1633 O.2     1  UNL1       -0.2747
      3 N         -14.2388   -2.5522   18.6780 N.am    1  UNL1       -0.2641
      4 H         -14.2180   -2.8172   17.7301 H       1  UNL1        0.1567
      5 C         -14.8837   -1.2593   19.0813 C.ar    1  UNL1        0.1655
      6 N         -16.0327   -1.1065   20.0333 N.ar    1  UNL1       -0.2239
      7 C         -16.3519    0.3550   20.1438 C.ar    1  UNL1        0.0893
      8 C         -17.3863    1.0994   20.9349 C.ar    1  UNL1        0.0205
      9 C         -17.4689    2.5943   20.8422 C.ar    1  UNL1        0.0130
     10 C         -16.5171    3.3447   19.9585 C.ar    1  UNL1        0.0583
     11 CL        -16.5998    4.8396   19.8658 Cl      1  UNL1       -0.0822
     12 C         -15.4828    2.6003   19.1673 C.ar    1  UNL1        0.0195
     13 C         -15.4002    1.1054   19.2600 C.ar    1  UNL1        0.0506
     14 S         -14.4928    0.1077   18.6034 S.2     1  UNL1       -0.0514
     15 C         -14.0354   -8.4103   18.2560 C.3     1  UNL1        0.0000
     16 C         -13.1857   -7.2186   18.5842 C.3     1  UNL1        0.0005
     17 C         -13.8305   -5.9257   18.9875 C.3     1  UNL1        0.0091
     18 C         -12.9807   -4.7340   19.3157 C.3     1  UNL1        0.0769
     19 C         -11.4860   -4.8352   19.2407 C.3     1  UNL1        0.0091
     20 C         -10.8411   -6.1281   18.8374 C.3     1  UNL1        0.0005
     21 C          -9.6201   -5.2835   19.0514 C.3     1  UNL1        0.0000
     22 C          -9.7722   -7.1276   18.5084 C.3     1  UNL1        0.0000
     23 C         -11.6909   -7.3198   18.5092 C.3     1  UNL1        0.0000
@<TRIPOS>BOND
     1    15    16    1
     2    16    17    1
     3    17    18    1
     4    18     1    1
     5     1     2    2
     6     1     3   am
     7     3     5    1
     8     5     6   ar
     9     6     7   ar
    10     7     8   ar
    11     8     9   ar
    12     9    10   ar
    13    10    11    1
    14    10    12   ar
    15    12    13   ar
    16    13    14   ar
    17    18    19    1
    18    19    20    1
    19    20    21    1
    20    20    22    1
    21    20    23    1
    22    23    16    1
    23    14     5   ar
    24    13     7   ar
    25     3     4    1
@<TRIPOS>MOLECULE
*****
 23 25 0 0 0
SMALL
GASTEIGER

@<TRIPOS>ATOM
      1 C           5.3089   -3.0796   23.8645 C.2     1  UNL1        0.2270
      2 O           5.0179   -2.1506   25.0058 O.2     1  UNL1       -0.2747
      3 N           6.2826   -4.2063   24.0442 N.am    1  UNL1       -0.2641
      4 H           6.4736   -4.8160   23.2952 H       1  UNL1        0.1567
      5 C           6.9654   -4.4041   25.3651 C.ar    1  UNL1        0.1655
      6 N           7.9110   -3.4425   26.0216 N.ar    1  UNL1       -0.2239
      7 C           8.3524   -4.0424   27.3236 C.ar    1  UNL1        0.0893
      8 C           9.2801   -3.5475   28.3934 C.ar    1  UNL1        0.0205
      9 C           9.5349   -4.3850   29.6114 C.ar    1  UNL1        0.0130
     10 C           8.8620   -5.7174   29.7597 C.ar    1  UNL1        0.0583
     11 CL          9.1169   -6.5549   30.9778 Cl      1  UNL1       -0.0822
     12 C           7.9343   -6.2123   28.6899 C.ar    1  UNL1        0.0195
     13 C           7.6795   -5.3748   27.4719 C.ar    1  UNL1        0.0506
     14 S           6.8223   -5.5983   26.2614 S.2     1  UNL1       -0.0514
     15 C           4.4120   -4.6276   18.9861 C.3     1  UNL1        0.0000
     16 C           4.1778   -3.6558   20.1044 C.3     1  UNL1        0.0005
     17 C           4.8605   -3.8536   21.4253 C.3     1  UNL1        0.0091
     18 C           4.6262   -2.8817   22.5436 C.3     1  UNL1        0.0769
     19 C           3.7092   -1.7121   22.3411 C.3     1  UNL1        0.0091
     20 C           3.0265   -1.5143   21.0202 C.3     1  UNL1        0.0005
     21 C           2.4905   -0.3311   21.7703 C.3     1  UNL1        0.0000
     22 C           2.1576   -0.9056   19.9598 C.3     1  UNL1        0.0000
     23 C           3.2607   -2.4861   19.9019 C.3     1  UNL1        0.0000
@<TRIPOS>BOND
     1    15    16    1
     2    16    17    1
     3    17    18    1
     4    18     1    1
     5     1     2    2
     6     1     3   am
     7     3     5    1
     8     5     6   ar
     9     6     7   ar
    10     7     8   ar
    11     8     9   ar
    12     9    10   ar
    13    10    11    1
    14    10    12   ar
    15    12    13   ar
    16    13    14   ar
    17    18    19    1
    18    19    20    1
    19    20    21    1
    20    20    22    1
    21    20    23    1
    22    23    16    1
    23    14     5   ar
    24    13     7   ar
    25     3     4    1
@<TRIPOS>MOLECULE
*****
 23 25 0 0 0
SMALL
GASTEIGER

@<TRIPOS>ATOM
      1 C           3.5343   -0.8564   24.6024 C.2     1  UNL1        0.2270
      2 O           3.1219    0.5360   24.9784 O.2     1  UNL1       -0.2747
      3 N           3.9762   -1.8201   25.6635 N.am    1  UNL1       -0.2641
      4 H           4.2469   -2.7339   25.4167 H       1  UNL1        0.1567
      5 C           4.0057   -1.3915   27.1007 C.ar    1  UNL1        0.1655
      6 N           2.8099   -1.1496   27.9733 N.ar    1  UNL1       -0.2239
      7 C           3.3013   -0.7381   29.3295 C.ar    1  UNL1        0.0893
      8 C           2.5770   -0.3732   30.5913 C.ar    1  UNL1        0.0205
      9 C           3.3523    0.0042   31.8187 C.ar    1  UNL1        0.0130
     10 C           4.8519    0.0167   31.7842 C.ar    1  UNL1        0.0583
     11 CL          5.6272    0.3941   33.0116 Cl      1  UNL1       -0.0822
     12 C           5.5761   -0.3483   30.5224 C.ar    1  UNL1        0.0195
     13 C           4.8008   -0.7257   29.2950 C.ar    1  UNL1        0.0506
     14 S           5.2362   -1.1295   27.9175 S.2     1  UNL1       -0.0514
     15 C           1.6514   -0.3320   19.7879 C.3     1  UNL1        0.0000
     16 C           2.5633   -1.0228   20.7580 C.3     1  UNL1        0.0005
     17 C           2.5928   -0.5942   22.1951 C.3     1  UNL1        0.0091
     18 C           3.5048   -1.2850   23.1652 C.3     1  UNL1        0.0769
     19 C           4.3873   -2.4044   22.6982 C.3     1  UNL1        0.0091
     20 C           4.3578   -2.8330   21.2610 C.3     1  UNL1        0.0005
     21 C           5.3832   -3.7878   21.7966 C.3     1  UNL1        0.0000
     22 C           4.6844   -3.5932   20.0099 C.3     1  UNL1        0.0000
     23 C           3.4458   -2.1422   20.2909 C.3     1  UNL1        0.0000
@<TRIPOS>BOND
     1    15    16    1
     2    16    17    1
     3    17    18    1
     4    18     1    1
     5     1     2    2
     6     1     3   am
     7     3     5    1
     8     5     6   ar
     9     6     7   ar
    10     7     8   ar
    11     8     9   ar
    12     9    10   ar
    13    10    11    1
    14    10    12   ar
    15    12    13   ar
    16    13    14   ar
    17    18    19    1
    18    19    20    1
    19    20    21    1
    20    20    22    1
    21    20    23    1
    22    23    16    1
    23    14     5   ar
    24    13     7   ar
    25     3     4    1
