@<TRIPOS>MOLECULE
*****
 40 44 0 0 0
SMALL
GASTEIGER

@<TRIPOS>ATOM
      1 C          -7.6870  -19.9590   21.8388 C.2     1  UNL1        0.0905
      2 C          -7.9916  -18.9354   20.7856 C.2     1  UNL1        0.1173
      3 O          -6.9541  -18.5815   19.7617 O.2     1  UNL1       -0.5097
      4 C          -9.3334  -18.2657   20.7563 C.3     1  UNL1        0.1035
      5 C         -10.3708  -18.6196   21.7802 C.3     1  UNL1        0.1435
      6 O         -10.0663  -19.6433   22.8335 O.3     1  UNL1       -0.4524
      7 C          -8.7244  -20.3130   22.8629 C.2     1  UNL1        0.3400
      8 O          -8.4200  -21.3367   23.9161 O.2     1  UNL1       -0.2451
      9 H          -6.1159  -18.9998   19.7800 H       1  UNL1        0.2917
     10 C         -11.1267  -17.5953   20.9868 C.3     1  UNL1        0.0372
     11 C         -12.5558  -17.1929   21.2010 C.3     1  UNL1        0.0035
     12 C         -12.8986  -16.1425   20.1866 C.3     1  UNL1        0.0001
     13 C         -11.6814  -15.8958   19.3455 C.3     1  UNL1        0.0001
     14 C         -10.5863  -16.7936   19.8400 C.3     1  UNL1        0.0035
     15 C          -6.3452  -20.6288   21.8682 C.3     1  UNL1        0.1032
     16 C           0.6444  -17.6445   19.9029 C.3     1  UNL1        0.0522
     17 C          -0.7314  -17.7682   20.4877 C.ar    1  UNL1        0.0637
     18 C          -1.3271  -16.6235   21.2522 C.ar    1  UNL1        0.0296
     19 C          -2.7029  -16.7472   21.8370 C.ar    1  UNL1        0.0651
     20 C          -3.2986  -15.6023   22.6016 C.3     1  UNL1        0.0523
     21 N          -3.4830  -18.0157   21.6571 N.ar    1  UNL1       -0.1994
     22 N          -4.8508  -18.4263   22.1157 N.ar    1  UNL1       -0.1476
     23 C          -5.1005  -19.8249   21.6345 C.ar    1  UNL1        0.1669
     24 N          -3.8870  -20.2787   20.8785 N.ar    1  UNL1       -0.1930
     25 C          -2.8873  -19.1604   20.8925 C.ar    1  UNL1        0.2536
     26 N          -1.5115  -19.0367   20.3078 N.ar    1  UNL1       -0.2143
     27 C         -11.6707  -18.6179   22.5286 C.3     1  UNL1        0.0452
     28 C         -11.6923  -18.2957   23.9935 C.3     1  UNL1        0.0300
     29 C         -10.5384  -17.5698   24.6190 C.ar    1  UNL1       -0.0199
     30 C          -9.8749  -18.1290   25.8425 C.ar    1  UNL1       -0.0044
     31 C          -8.7209  -17.4030   26.4680 C.ar    1  UNL1       -0.0001
     32 C          -8.2304  -16.1178   25.8700 C.ar    1  UNL1        0.0292
     33 C          -8.8939  -15.5586   24.6464 C.ar    1  UNL1        0.1380
     34 F          -8.4034  -14.2733   24.0484 F       1  UNL1       -0.2044
     35 C         -10.0479  -16.2845   24.0209 C.ar    1  UNL1        0.0251
     36 C          -7.0764  -15.3917   26.4954 C.3     1  UNL1        0.1092
     37 C          -6.2227  -15.7260   25.3082 C.3     1  UNL1        0.0340
     38 C          -7.9302  -15.0574   27.6826 C.3     1  UNL1        0.0340
     39 O          -5.9225  -14.6656   27.1210 O.3     1  UNL1       -0.3826
     40 H          -5.1532  -14.7129   26.5320 H       1  UNL1        0.2107
@<TRIPOS>BOND
     1    16    17    1
     2    17    18   ar
     3    18    19   ar
     4    19    20    1
     5    19    21   ar
     6    21    22   ar
     7    22    23   ar
     8    23    15    1
     9    15     1    1
    10     1     2    2
    11     2     3    1
    12     2     4    1
    13     4     5    1
    14     5    27    1
    15    27    28    1
    16    28    29    1
    17    29    30   ar
    18    30    31   ar
    19    31    32   ar
    20    32    36    1
    21    36    37    1
    22    36    38    1
    23    36    39    1
    24    32    33   ar
    25    33    34    1
    26    33    35   ar
    27     5    10    1
    28    10    11    1
    29    11    12    1
    30    12    13    1
    31    13    14    1
    32     5     6    1
    33     6     7    1
    34     7     8    2
    35    23    24   ar
    36    24    25   ar
    37    25    26   ar
    38    26    17   ar
    39    25    21   ar
    40     7     1    1
    41    35    29   ar
    42    14    10    1
    43     3     9    1
    44    39    40    1
@<TRIPOS>MOLECULE
*****
 40 44 0 0 0
SMALL
GASTEIGER

@<TRIPOS>ATOM
      1 C          -8.0147  -15.7547   23.6566 C.2     1  UNL1        0.0905
      2 C          -8.8949  -16.3266   24.7281 C.2     1  UNL1        0.1173
      3 O          -8.4307  -16.3357   26.1544 O.2     1  UNL1       -0.5097
      4 C         -10.2393  -16.8894   24.3733 C.3     1  UNL1        0.1035
      5 C         -10.7036  -16.8803   22.9470 C.3     1  UNL1        0.1435
      6 O          -9.8233  -16.3084   21.8755 O.3     1  UNL1       -0.4524
      7 C          -8.4789  -15.7456   22.2302 C.2     1  UNL1        0.3400
      8 O          -7.5988  -15.1737   21.1587 O.2     1  UNL1       -0.2451
      9 H          -7.5909  -15.9842   26.3760 H       1  UNL1        0.2917
     10 C         -11.8878  -17.5271   23.6023 C.3     1  UNL1        0.0372
     11 C         -11.8396  -18.6160   24.6327 C.3     1  UNL1        0.0035
     12 C         -13.2500  -18.9604   25.0095 C.3     1  UNL1        0.0001
     13 C         -14.1699  -18.0843   24.2119 C.3     1  UNL1        0.0001
     14 C         -13.3280  -17.1984   23.3422 C.3     1  UNL1        0.0035
     15 C          -6.6703  -15.1919   24.0114 C.3     1  UNL1        0.1032
     16 C           0.1364  -16.7026   20.4046 C.3     1  UNL1        0.0522
     17 C          -1.1576  -16.9069   21.1353 C.ar    1  UNL1        0.0637
     18 C          -1.5993  -18.2917   21.5055 C.ar    1  UNL1        0.0296
     19 C          -2.8933  -18.4960   22.2363 C.ar    1  UNL1        0.0651
     20 C          -3.3350  -19.8809   22.6065 C.3     1  UNL1        0.0523
     21 N          -3.7454  -17.3154   22.5969 N.ar    1  UNL1       -0.1994
     22 N          -5.0604  -17.2073   23.3105 N.ar    1  UNL1       -0.1476
     23 C          -5.4313  -15.7556   23.3813 C.ar    1  UNL1        0.1669
     24 N          -4.3456  -14.9666   22.7115 N.ar    1  UNL1       -0.1930
     25 C          -3.3037  -15.9306   22.2266 C.ar    1  UNL1        0.2536
     26 N          -2.0098  -15.7263   21.4959 N.ar    1  UNL1       -0.2143
     27 C         -11.5790  -17.0958   21.7483 C.3     1  UNL1        0.0452
     28 C         -11.3764  -18.3010   20.8784 C.3     1  UNL1        0.0300
     29 C          -9.9933  -18.8300   20.6401 C.ar    1  UNL1       -0.0199
     30 C          -9.4884  -19.0053   19.2385 C.ar    1  UNL1       -0.0044
     31 C          -8.1052  -19.5344   19.0002 C.ar    1  UNL1       -0.0001
     32 C          -7.2268  -19.8883   20.1635 C.ar    1  UNL1        0.0292
     33 C          -7.7317  -19.7130   21.5651 C.ar    1  UNL1        0.1380
     34 F          -6.8533  -20.0669   22.7284 F       1  UNL1       -0.2044
     35 C          -9.1149  -19.1839   21.8034 C.ar    1  UNL1        0.0251
     36 C          -5.8436  -20.4174   19.9253 C.3     1  UNL1        0.1092
     37 C          -6.3520  -21.8193   20.0870 C.3     1  UNL1        0.0340
     38 C          -5.3352  -19.0155   19.7635 C.3     1  UNL1        0.0340
     39 O          -4.4603  -20.9464   19.6870 O.3     1  UNL1       -0.3826
     40 H          -4.4721  -21.9152   19.7343 H       1  UNL1        0.2107
@<TRIPOS>BOND
     1    16    17    1
     2    17    18   ar
     3    18    19   ar
     4    19    20    1
     5    19    21   ar
     6    21    22   ar
     7    22    23   ar
     8    23    15    1
     9    15     1    1
    10     1     2    2
    11     2     3    1
    12     2     4    1
    13     4     5    1
    14     5    27    1
    15    27    28    1
    16    28    29    1
    17    29    30   ar
    18    30    31   ar
    19    31    32   ar
    20    32    36    1
    21    36    37    1
    22    36    38    1
    23    36    39    1
    24    32    33   ar
    25    33    34    1
    26    33    35   ar
    27     5    10    1
    28    10    11    1
    29    11    12    1
    30    12    13    1
    31    13    14    1
    32     5     6    1
    33     6     7    1
    34     7     8    2
    35    23    24   ar
    36    24    25   ar
    37    25    26   ar
    38    26    17   ar
    39    25    21   ar
    40     7     1    1
    41    35    29   ar
    42    14    10    1
    43     3     9    1
    44    39    40    1
@<TRIPOS>MOLECULE
*****
 40 44 0 0 0
SMALL
GASTEIGER

@<TRIPOS>ATOM
      1 C           3.0879    1.9055   18.6860 C.2     1  UNL1        0.0905
      2 C           2.3925    0.5924   18.4815 C.2     1  UNL1        0.1173
      3 O           0.9492    0.5636   18.0738 O.2     1  UNL1       -0.5097
      4 C           3.1402   -0.6920   18.6847 C.3     1  UNL1        0.1035
      5 C           4.5834   -0.6632   19.0924 C.3     1  UNL1        0.1435
      6 O           5.2789    0.6500   19.2969 O.3     1  UNL1       -0.4524
      7 C           4.5312    1.9344   19.0937 C.2     1  UNL1        0.3400
      8 O           5.2267    3.2476   19.2982 O.2     1  UNL1       -0.2451
      9 H           0.4821    1.3659   17.9469 H       1  UNL1        0.2917
     10 C           4.3624   -2.1451   19.0208 C.3     1  UNL1        0.0372
     11 C           3.1685   -2.8849   19.5473 C.3     1  UNL1        0.0035
     12 C           3.3647   -4.3444   19.2622 C.3     1  UNL1        0.0001
     13 C           4.6799   -4.5066   18.5594 C.3     1  UNL1        0.0001
     14 C           5.2965   -3.1474   18.4102 C.3     1  UNL1        0.0035
     15 C           2.3402    3.1899   18.4828 C.3     1  UNL1        0.1032
     16 C          -4.8268    3.1174   21.6847 C.3     1  UNL1        0.0522
     17 C          -3.7200    3.2987   20.6884 C.ar    1  UNL1        0.0637
     18 C          -4.0264    3.8085   19.3115 C.ar    1  UNL1        0.0296
     19 C          -2.9197    3.9897   18.3153 C.ar    1  UNL1        0.0651
     20 C          -3.2261    4.4996   16.9383 C.3     1  UNL1        0.0523
     21 N          -1.5066    3.6610   18.6962 N.ar    1  UNL1       -0.1994
     22 N          -0.2176    3.7376   17.9328 N.ar    1  UNL1       -0.1476
     23 C           0.8853    3.2751   18.8380 C.ar    1  UNL1        0.1669
     24 N           0.2781    2.9126   20.1609 N.ar    1  UNL1       -0.1930
     25 C          -1.2002    3.1512   20.0732 C.ar    1  UNL1        0.2536
     26 N          -2.3070    2.9700   21.0693 N.ar    1  UNL1       -0.2143
     27 C           5.9499   -1.1490   19.4752 C.3     1  UNL1        0.0452
     28 C           6.5371   -0.7677   20.8018 C.3     1  UNL1        0.0300
     29 C           6.7386   -1.8108   21.8606 C.ar    1  UNL1       -0.0199
     30 C           5.6458   -2.7926   22.1639 C.ar    1  UNL1       -0.0044
     31 C           5.8473   -3.8358   23.2228 C.ar    1  UNL1       -0.0001
     32 C           7.1417   -3.8972   23.9784 C.ar    1  UNL1        0.0292
     33 C           8.2345   -2.9154   23.6751 C.ar    1  UNL1        0.1380
     34 F           9.5289   -2.9769   24.4306 F       1  UNL1       -0.2044
     35 C           8.0330   -1.8722   22.6162 C.ar    1  UNL1        0.0251
     36 C           7.3433   -4.9403   25.0372 C.3     1  UNL1        0.1092
     37 C           6.8024   -3.9965   26.0700 C.3     1  UNL1        0.0340
     38 C           7.8842   -5.8842   24.0044 C.3     1  UNL1        0.0340
     39 O           7.5450   -5.9836   26.0960 O.3     1  UNL1       -0.3826
     40 H           7.2587   -5.6330   26.9540 H       1  UNL1        0.2107
@<TRIPOS>BOND
     1    16    17    1
     2    17    18   ar
     3    18    19   ar
     4    19    20    1
     5    19    21   ar
     6    21    22   ar
     7    22    23   ar
     8    23    15    1
     9    15     1    1
    10     1     2    2
    11     2     3    1
    12     2     4    1
    13     4     5    1
    14     5    27    1
    15    27    28    1
    16    28    29    1
    17    29    30   ar
    18    30    31   ar
    19    31    32   ar
    20    32    36    1
    21    36    37    1
    22    36    38    1
    23    36    39    1
    24    32    33   ar
    25    33    34    1
    26    33    35   ar
    27     5    10    1
    28    10    11    1
    29    11    12    1
    30    12    13    1
    31    13    14    1
    32     5     6    1
    33     6     7    1
    34     7     8    2
    35    23    24   ar
    36    24    25   ar
    37    25    26   ar
    38    26    17   ar
    39    25    21   ar
    40     7     1    1
    41    35    29   ar
    42    14    10    1
    43     3     9    1
    44    39    40    1
@<TRIPOS>MOLECULE
*****
 40 44 0 0 0
SMALL
GASTEIGER

@<TRIPOS>ATOM
      1 C           7.0635   -3.0788   20.3992 C.2     1  UNL1        0.0905
      2 C           7.3938   -1.6161   20.4348 C.2     1  UNL1        0.1173
      3 O           8.7485   -1.1642   20.8938 O.2     1  UNL1       -0.5097
      4 C           6.3696   -0.6054   20.0114 C.3     1  UNL1        0.1035
      5 C           5.0149   -1.0573   19.5524 C.3     1  UNL1        0.1435
      6 O           4.6846   -2.5201   19.5169 O.3     1  UNL1       -0.4524
      7 C           5.7088   -3.5309   19.9403 C.2     1  UNL1        0.3400
      8 O           5.3784   -4.9936   19.9047 O.2     1  UNL1       -0.2451
      9 H           9.3883   -1.7956   21.1582 H       1  UNL1        0.2917
     10 C           4.8557    0.4275   19.4117 C.3     1  UNL1        0.0372
     11 C           4.3798    1.1510   18.1869 C.3     1  UNL1        0.0035
     12 C           4.3743    2.6202   18.4891 C.3     1  UNL1        0.0001
     13 C           4.8469    2.8047   19.9007 C.3     1  UNL1        0.0001
     14 C           5.1443    1.4496   20.4709 C.3     1  UNL1        0.0035
     15 C           8.0878   -4.0896   20.8226 C.3     1  UNL1        0.1032
     16 C           8.0667   -8.7442   27.1437 C.3     1  UNL1        0.0522
     17 C           7.8973   -7.5355   26.2717 C.ar    1  UNL1        0.0637
     18 C           7.3755   -6.2564   26.8559 C.ar    1  UNL1        0.0296
     19 C           7.2060   -5.0476   25.9839 C.ar    1  UNL1        0.0651
     20 C           6.6842   -3.7684   26.5682 C.3     1  UNL1        0.0523
     21 N           7.5585   -5.1182   24.5276 N.ar    1  UNL1       -0.1994
     22 N           7.4978   -4.0980   23.4297 N.ar    1  UNL1       -0.1476
     23 C           7.9821   -4.7467   22.1669 C.ar    1  UNL1        0.1669
     24 N           8.3421   -6.1678   22.4843 N.ar    1  UNL1       -0.1930
     25 C           8.0804   -6.3974   23.9434 C.ar    1  UNL1        0.2536
     26 N           8.2497   -7.6061   24.8154 N.ar    1  UNL1       -0.2143
     27 C           3.6050   -0.9937   19.0446 C.3     1  UNL1        0.0452
     28 C           2.4639   -1.3428   19.9535 C.3     1  UNL1        0.0300
     29 C           2.2115   -0.5282   21.1874 C.ar    1  UNL1       -0.0199
     30 C           1.3592    0.7037   21.1115 C.ar    1  UNL1       -0.0044
     31 C           1.1068    1.5183   22.3455 C.ar    1  UNL1       -0.0001
     32 C           1.7068    1.1009   23.6555 C.ar    1  UNL1        0.0292
     33 C           2.5591   -0.1310   23.7313 C.ar    1  UNL1        0.1380
     34 F           3.1591   -0.5484   25.0413 F       1  UNL1       -0.2044
     35 C           2.8115   -0.9456   22.4973 C.ar    1  UNL1        0.0251
     36 C           1.4544    1.9155   24.8895 C.3     1  UNL1        0.1092
     37 C           0.1869    1.1517   25.1344 C.3     1  UNL1        0.0340
     38 C           2.7220    2.6793   24.6446 C.3     1  UNL1        0.0340
     39 O           1.2021    2.7301   26.1235 O.3     1  UNL1       -0.3826
     40 H           0.3749    2.4400   26.5389 H       1  UNL1        0.2107
@<TRIPOS>BOND
     1    16    17    1
     2    17    18   ar
     3    18    19   ar
     4    19    20    1
     5    19    21   ar
     6    21    22   ar
     7    22    23   ar
     8    23    15    1
     9    15     1    1
    10     1     2    2
    11     2     3    1
    12     2     4    1
    13     4     5    1
    14     5    27    1
    15    27    28    1
    16    28    29    1
    17    29    30   ar
    18    30    31   ar
    19    31    32   ar
    20    32    36    1
    21    36    37    1
    22    36    38    1
    23    36    39    1
    24    32    33   ar
    25    33    34    1
    26    33    35   ar
    27     5    10    1
    28    10    11    1
    29    11    12    1
    30    12    13    1
    31    13    14    1
    32     5     6    1
    33     6     7    1
    34     7     8    2
    35    23    24   ar
    36    24    25   ar
    37    25    26   ar
    38    26    17   ar
    39    25    21   ar
    40     7     1    1
    41    35    29   ar
    42    14    10    1
    43     3     9    1
    44    39    40    1
@<TRIPOS>MOLECULE
*****
 40 44 0 0 0
SMALL
GASTEIGER

@<TRIPOS>ATOM
      1 C           7.1887   -3.7532   31.2104 C.2     1  UNL1        0.0905
      2 C           6.9550   -5.2173   30.9825 C.2     1  UNL1        0.1173
      3 O           6.4030   -6.0693   32.0867 O.2     1  UNL1       -0.5097
      4 C           7.2734   -5.8293   29.6506 C.3     1  UNL1        0.1035
      5 C           7.8254   -4.9772   28.5464 C.3     1  UNL1        0.1435
      6 O           8.0591   -3.5131   28.7743 O.3     1  UNL1       -0.4524
      7 C           7.7408   -2.9011   30.1062 C.2     1  UNL1        0.3400
      8 O           7.9745   -1.4370   30.3340 O.2     1  UNL1       -0.2451
      9 H           6.2041   -5.6870   32.9188 H       1  UNL1        0.2917
     10 C           7.7777   -6.3056   27.8514 C.3     1  UNL1        0.0372
     11 C           7.0046   -6.6213   26.6053 C.3     1  UNL1        0.0035
     12 C           7.2436   -8.0623   26.2641 C.3     1  UNL1        0.0001
     13 C           8.1645   -8.6370   27.2993 C.3     1  UNL1        0.0001
     14 C           8.4946   -7.5514   28.2803 C.3     1  UNL1        0.0035
     15 C           6.8704   -3.1412   32.5423 C.3     1  UNL1        0.1032
     16 C           2.1656    2.8657   34.3874 C.3     1  UNL1        0.0522
     17 C           2.7780    1.7238   33.6316 C.ar    1  UNL1        0.0637
     18 C           2.2327    1.3344   32.2897 C.ar    1  UNL1        0.0296
     19 C           2.8452    0.1926   31.5338 C.ar    1  UNL1        0.0651
     20 C           2.2998   -0.1969   30.1918 C.3     1  UNL1        0.0523
     21 N           4.0029   -0.5597   32.1200 N.ar    1  UNL1       -0.1994
     22 N           4.8064   -1.7201   31.6121 N.ar    1  UNL1       -0.1476
     23 C           5.8483   -2.0477   32.6402 C.ar    1  UNL1        0.1669
     24 N           5.6888   -1.0898   33.7835 N.ar    1  UNL1       -0.1930
     25 C           4.5482   -0.1702   33.4620 C.ar    1  UNL1        0.2536
     26 N           3.9358    0.9716   34.2178 N.ar    1  UNL1       -0.2143
     27 C           8.3609   -4.5864   27.2009 C.3     1  UNL1        0.0452
     28 C           8.0752   -3.2219   26.6474 C.3     1  UNL1        0.0300
     29 C           7.2852   -3.0765   25.3807 C.ar    1  UNL1       -0.0199
     30 C           7.8499   -3.5740   24.0832 C.ar    1  UNL1       -0.0044
     31 C           7.0598   -3.4286   22.8165 C.ar    1  UNL1       -0.0001
     32 C           5.7049   -2.7857   22.8473 C.ar    1  UNL1        0.0292
     33 C           5.1401   -2.2883   24.1448 C.ar    1  UNL1        0.1380
     34 F           3.7851   -1.6454   24.1757 F       1  UNL1       -0.2044
     35 C           5.9302   -2.4336   25.4116 C.ar    1  UNL1        0.0251
     36 C           4.9147   -2.6403   21.5806 C.3     1  UNL1        0.1092
     37 C           4.3113   -3.9958   21.8015 C.3     1  UNL1        0.0340
     38 C           5.5180   -1.2849   21.3598 C.3     1  UNL1        0.0340
     39 O           4.1245   -2.4948   20.3139 O.3     1  UNL1       -0.3826
     40 H           3.5863   -3.2898   20.1755 H       1  UNL1        0.2107
@<TRIPOS>BOND
     1    16    17    1
     2    17    18   ar
     3    18    19   ar
     4    19    20    1
     5    19    21   ar
     6    21    22   ar
     7    22    23   ar
     8    23    15    1
     9    15     1    1
    10     1     2    2
    11     2     3    1
    12     2     4    1
    13     4     5    1
    14     5    27    1
    15    27    28    1
    16    28    29    1
    17    29    30   ar
    18    30    31   ar
    19    31    32   ar
    20    32    36    1
    21    36    37    1
    22    36    38    1
    23    36    39    1
    24    32    33   ar
    25    33    34    1
    26    33    35   ar
    27     5    10    1
    28    10    11    1
    29    11    12    1
    30    12    13    1
    31    13    14    1
    32     5     6    1
    33     6     7    1
    34     7     8    2
    35    23    24   ar
    36    24    25   ar
    37    25    26   ar
    38    26    17   ar
    39    25    21   ar
    40     7     1    1
    41    35    29   ar
    42    14    10    1
    43     3     9    1
    44    39    40    1
@<TRIPOS>MOLECULE
*****
 40 44 0 0 0
SMALL
GASTEIGER

@<TRIPOS>ATOM
      1 C           0.8033    0.6245   27.8239 C.2     1  UNL1        0.0905
      2 C           0.1350    1.4132   26.7370 C.2     1  UNL1        0.1173
      3 O          -1.1826    2.0812   26.9970 O.2     1  UNL1       -0.5097
      4 C           0.7843    1.5339   25.3902 C.3     1  UNL1        0.1035
      5 C           2.1019    0.8659   25.1303 C.3     1  UNL1        0.1435
      6 O           2.7702    0.0771   26.2172 O.3     1  UNL1       -0.4524
      7 C           2.1210   -0.0435   27.5640 C.2     1  UNL1        0.3400
      8 O           2.7893   -0.8322   28.6508 O.2     1  UNL1       -0.2451
      9 H          -1.5882    2.0059   27.8383 H       1  UNL1        0.2917
     10 C           1.8622    1.4989   23.7917 C.3     1  UNL1        0.0372
     11 C           0.6414    1.3215   22.9384 C.3     1  UNL1        0.0035
     12 C           0.8258    2.1334   21.6908 C.3     1  UNL1        0.0001
     13 C           2.1607    2.8127   21.7730 C.3     1  UNL1        0.0001
     14 C           2.8012    2.4206   23.0714 C.3     1  UNL1        0.0035
     15 C           0.1540    0.5039   29.1707 C.3     1  UNL1        0.1032
     16 C           1.8080    5.9398   34.5871 C.3     1  UNL1        0.0522
     17 C           1.8123    4.6453   33.8292 C.ar    1  UNL1        0.0637
     18 C           2.6662    3.5047   34.2978 C.ar    1  UNL1        0.0296
     19 C           2.6705    2.2102   33.5399 C.ar    1  UNL1        0.0651
     20 C           3.5245    1.0695   34.0085 C.3     1  UNL1        0.0523
     21 N           1.8206    2.0564   32.3135 N.ar    1  UNL1       -0.1994
     22 N           1.6202    0.9087   31.3688 N.ar    1  UNL1       -0.1476
     23 C           0.6423    1.3400   30.3163 C.ar    1  UNL1        0.1669
     24 N           0.2383    2.7543   30.6106 N.ar    1  UNL1       -0.1930
     25 C           0.9666    3.1971   31.8450 C.ar    1  UNL1        0.2536
     26 N           0.9624    4.4915   32.6028 N.ar    1  UNL1       -0.2143
     27 C           3.3363    0.4177   24.4055 C.3     1  UNL1        0.0452
     28 C           3.7413   -1.0263   24.4361 C.3     1  UNL1        0.0300
     29 C           3.9356   -1.7781   23.1528 C.ar    1  UNL1       -0.0199
     30 C           4.7125   -3.0612   23.1455 C.ar    1  UNL1       -0.0044
     31 C           4.9068   -3.8131   21.8622 C.ar    1  UNL1       -0.0001
     32 C           4.3242   -3.2818   20.5861 C.ar    1  UNL1        0.0292
     33 C           3.5472   -1.9987   20.5934 C.ar    1  UNL1        0.1380
     34 F           2.9646   -1.4675   19.3173 F       1  UNL1       -0.2044
     35 C           3.3529   -1.2469   21.8767 C.ar    1  UNL1        0.0251
     36 C           4.5184   -4.0336   19.3027 C.3     1  UNL1        0.1092
     37 C           5.6554   -3.1241   18.9420 C.3     1  UNL1        0.0340
     38 C           3.3814   -4.9431   19.6634 C.3     1  UNL1        0.0340
     39 O           4.7126   -4.7855   18.0193 O.3     1  UNL1       -0.3826
     40 H           5.4477   -4.3931   17.5227 H       1  UNL1        0.2107
@<TRIPOS>BOND
     1    16    17    1
     2    17    18   ar
     3    18    19   ar
     4    19    20    1
     5    19    21   ar
     6    21    22   ar
     7    22    23   ar
     8    23    15    1
     9    15     1    1
    10     1     2    2
    11     2     3    1
    12     2     4    1
    13     4     5    1
    14     5    27    1
    15    27    28    1
    16    28    29    1
    17    29    30   ar
    18    30    31   ar
    19    31    32   ar
    20    32    36    1
    21    36    37    1
    22    36    38    1
    23    36    39    1
    24    32    33   ar
    25    33    34    1
    26    33    35   ar
    27     5    10    1
    28    10    11    1
    29    11    12    1
    30    12    13    1
    31    13    14    1
    32     5     6    1
    33     6     7    1
    34     7     8    2
    35    23    24   ar
    36    24    25   ar
    37    25    26   ar
    38    26    17   ar
    39    25    21   ar
    40     7     1    1
    41    35    29   ar
    42    14    10    1
    43     3     9    1
    44    39    40    1
@<TRIPOS>MOLECULE
*****
 40 44 0 0 0
SMALL
GASTEIGER

@<TRIPOS>ATOM
      1 C           6.5526   -3.1682   20.5286 C.2     1  UNL1        0.0905
      2 C           6.9644   -1.7259   20.5371 C.2     1  UNL1        0.1173
      3 O           8.3137   -1.3343   21.0625 O.2     1  UNL1       -0.5097
      4 C           6.0269   -0.6752   20.0203 C.3     1  UNL1        0.1035
      5 C           4.6776   -1.0668   19.4949 C.3     1  UNL1        0.1435
      6 O           4.2658   -2.5092   19.4864 O.3     1  UNL1       -0.4524
      7 C           5.2032   -3.5599   20.0033 C.2     1  UNL1        0.3400
      8 O           4.7914   -5.0022   19.9948 O.2     1  UNL1       -0.2451
      9 H           8.8993   -1.9907   21.3853 H       1  UNL1        0.2917
     10 C           4.6131    0.4187   19.2971 C.3     1  UNL1        0.0372
     11 C           4.5061    1.1290   17.9803 C.3     1  UNL1        0.0035
     12 C           4.4711    2.6040   18.2506 C.3     1  UNL1        0.0001
     13 C           4.5565    2.8053   19.7346 C.3     1  UNL1        0.0001
     14 C           4.6442    1.4548   20.3814 C.3     1  UNL1        0.0035
     15 C           7.4900   -4.2189   21.0455 C.3     1  UNL1        0.1032
     16 C           6.4951   -4.9985   28.7931 C.3     1  UNL1        0.0522
     17 C           6.9337   -5.2713   27.3847 C.ar    1  UNL1        0.0637
     18 C           7.7509   -6.4907   27.0766 C.ar    1  UNL1        0.0296
     19 C           8.1895   -6.7635   25.6682 C.ar    1  UNL1        0.0651
     20 C           9.0067   -7.9830   25.3601 C.3     1  UNL1        0.0523
     21 N           7.8108   -5.8167   24.5682 N.ar    1  UNL1       -0.1994
     22 N           8.0963   -5.8235   23.0956 N.ar    1  UNL1       -0.1476
     23 C           7.4555   -4.6081   22.4937 C.ar    1  UNL1        0.1669
     24 N           6.7740   -3.8502   23.5943 N.ar    1  UNL1       -0.1930
     25 C           6.9936   -4.5972   24.8764 C.ar    1  UNL1        0.2536
     26 N           6.5550   -4.3245   26.2847 N.ar    1  UNL1       -0.2143
     27 C           3.3059   -0.9425   18.9009 C.3     1  UNL1        0.0452
     28 C           2.0992   -0.9507   19.7918 C.3     1  UNL1        0.0300
     29 C           1.2813    0.2955   19.9585 C.ar    1  UNL1       -0.0199
     30 C           0.8204    0.7132   21.3234 C.ar    1  UNL1       -0.0044
     31 C           0.0025    1.9596   21.4900 C.ar    1  UNL1       -0.0001
     32 C          -0.3545    2.7882   20.2916 C.ar    1  UNL1        0.0292
     33 C           0.1065    2.3704   18.9267 C.ar    1  UNL1        0.1380
     34 F          -0.2505    3.1990   17.7284 F       1  UNL1       -0.2044
     35 C           0.9244    1.1241   18.7601 C.ar    1  UNL1        0.0251
     36 C          -1.1724    4.0345   20.4582 C.3     1  UNL1        0.1092
     37 C           0.0850    4.8460   20.5601 C.3     1  UNL1        0.0340
     38 C          -2.4298    3.2230   20.3563 C.3     1  UNL1        0.0340
     39 O          -1.9903    5.2808   20.6247 O.3     1  UNL1       -0.3826
     40 H          -1.4001    6.0443   20.7228 H       1  UNL1        0.2107
@<TRIPOS>BOND
     1    16    17    1
     2    17    18   ar
     3    18    19   ar
     4    19    20    1
     5    19    21   ar
     6    21    22   ar
     7    22    23   ar
     8    23    15    1
     9    15     1    1
    10     1     2    2
    11     2     3    1
    12     2     4    1
    13     4     5    1
    14     5    27    1
    15    27    28    1
    16    28    29    1
    17    29    30   ar
    18    30    31   ar
    19    31    32   ar
    20    32    36    1
    21    36    37    1
    22    36    38    1
    23    36    39    1
    24    32    33   ar
    25    33    34    1
    26    33    35   ar
    27     5    10    1
    28    10    11    1
    29    11    12    1
    30    12    13    1
    31    13    14    1
    32     5     6    1
    33     6     7    1
    34     7     8    2
    35    23    24   ar
    36    24    25   ar
    37    25    26   ar
    38    26    17   ar
    39    25    21   ar
    40     7     1    1
    41    35    29   ar
    42    14    10    1
    43     3     9    1
    44    39    40    1
@<TRIPOS>MOLECULE
*****
 40 44 0 0 0
SMALL
GASTEIGER

@<TRIPOS>ATOM
      1 C           1.7074    0.4944   27.9487 C.2     1  UNL1        0.0905
      2 C           0.7216    1.1387   27.0197 C.2     1  UNL1        0.1173
      3 O          -0.6765    1.4177   27.4859 O.2     1  UNL1       -0.5097
      4 C           1.1340    1.5040   25.6245 C.3     1  UNL1        0.1035
      5 C           2.5321    1.2250   25.1582 C.3     1  UNL1        0.1435
      6 O           3.5179    0.5807   26.0874 O.3     1  UNL1       -0.4524
      7 C           3.1056    0.2154   27.4825 C.2     1  UNL1        0.3400
      8 O           4.0915   -0.4289   28.4115 O.2     1  UNL1       -0.2451
      9 H          -0.9340    1.1895   28.3574 H       1  UNL1        0.2917
     10 C           1.9632    1.8474   23.9177 C.3     1  UNL1        0.0372
     11 C           0.7451    1.3817   23.1767 C.3     1  UNL1        0.0035
     12 C           0.5414    2.2912   22.0014 C.3     1  UNL1        0.0001
     13 C           1.6338    3.3191   22.0162 C.3     1  UNL1        0.0001
     14 C           2.5125    3.0449   23.2005 C.3     1  UNL1        0.0035
     15 C           1.2951    0.1292   29.3439 C.3     1  UNL1        0.1032
     16 C           1.8024    4.5887   35.7842 C.3     1  UNL1        0.0522
     17 C           1.4854    4.1469   34.3862 C.ar    1  UNL1        0.0637
     18 C           0.7874    5.0823   33.4441 C.ar    1  UNL1        0.0296
     19 C           0.4704    4.6405   32.0461 C.ar    1  UNL1        0.0651
     20 C          -0.2277    5.5760   31.1040 C.3     1  UNL1        0.0523
     21 N           0.8517    3.2633   31.5902 N.ar    1  UNL1       -0.1994
     22 N           0.6713    2.5535   30.2811 N.ar    1  UNL1       -0.1476
     23 C           1.2579    1.1794   30.4142 C.ar    1  UNL1        0.1669
     24 N           1.8009    1.0399   31.8055 N.ar    1  UNL1       -0.1930
     25 C           1.5498    2.3278   32.5323 C.ar    1  UNL1        0.2536
     26 N           1.8667    2.7696   33.9303 N.ar    1  UNL1       -0.2143
     27 C           3.7326    1.1621   24.2613 C.3     1  UNL1        0.0452
     28 C           4.1734   -0.1526   23.6890 C.3     1  UNL1        0.0300
     29 C           4.1370   -0.3751   22.2062 C.ar    1  UNL1       -0.0199
     30 C           4.8291    0.5865   21.2863 C.ar    1  UNL1       -0.0044
     31 C           4.7928    0.3640   19.8033 C.ar    1  UNL1       -0.0001
     32 C           4.0643   -0.8203   19.2403 C.ar    1  UNL1        0.0292
     33 C           3.3722   -1.7819   20.1602 C.ar    1  UNL1        0.1380
     34 F           2.6438   -2.9661   19.5972 F       1  UNL1       -0.2044
     35 C           3.4086   -1.5593   21.6431 C.ar    1  UNL1        0.0251
     36 C           4.0279   -1.0429   17.7573 C.3     1  UNL1        0.1092
     37 C           2.9081   -0.0523   17.6360 C.3     1  UNL1        0.0340
     38 C           5.1477   -2.0336   17.8786 C.3     1  UNL1        0.0340
     39 O           3.9916   -1.2656   16.2744 O.3     1  UNL1       -0.3826
     40 H           3.3011   -0.7097   15.8807 H       1  UNL1        0.2107
@<TRIPOS>BOND
     1    16    17    1
     2    17    18   ar
     3    18    19   ar
     4    19    20    1
     5    19    21   ar
     6    21    22   ar
     7    22    23   ar
     8    23    15    1
     9    15     1    1
    10     1     2    2
    11     2     3    1
    12     2     4    1
    13     4     5    1
    14     5    27    1
    15    27    28    1
    16    28    29    1
    17    29    30   ar
    18    30    31   ar
    19    31    32   ar
    20    32    36    1
    21    36    37    1
    22    36    38    1
    23    36    39    1
    24    32    33   ar
    25    33    34    1
    26    33    35   ar
    27     5    10    1
    28    10    11    1
    29    11    12    1
    30    12    13    1
    31    13    14    1
    32     5     6    1
    33     6     7    1
    34     7     8    2
    35    23    24   ar
    36    24    25   ar
    37    25    26   ar
    38    26    17   ar
    39    25    21   ar
    40     7     1    1
    41    35    29   ar
    42    14    10    1
    43     3     9    1
    44    39    40    1
@<TRIPOS>MOLECULE
*****
 40 44 0 0 0
SMALL
GASTEIGER

@<TRIPOS>ATOM
      1 C           1.2928    0.6728   28.5145 C.2     1  UNL1        0.0905
      2 C           2.2117   -0.4083   29.0012 C.2     1  UNL1        0.1173
      3 O           2.0425   -0.9713   30.3812 O.2     1  UNL1       -0.5097
      4 C           3.2997   -0.9263   28.1080 C.3     1  UNL1        0.1035
      5 C           3.4689   -0.3632   26.7280 C.3     1  UNL1        0.1435
      6 O           2.5499    0.7179   26.2413 O.3     1  UNL1       -0.4524
      7 C           1.4619    1.2359   27.1345 C.2     1  UNL1        0.3400
      8 O           0.5430    2.3170   26.6477 O.2     1  UNL1       -0.2451
      9 H           1.3628   -0.6477   30.9391 H       1  UNL1        0.2917
     10 C           4.5806   -1.3702   26.7366 C.3     1  UNL1        0.0372
     11 C           5.2349   -1.9714   25.5281 C.3     1  UNL1        0.0035
     12 C           6.2918   -2.9255   25.9997 C.3     1  UNL1        0.0001
     13 C           6.2907   -2.9140   27.4996 C.3     1  UNL1        0.0001
     14 C           5.2332   -1.9528   27.9551 C.3     1  UNL1        0.0035
     15 C           0.2047    1.1908   29.4077 C.3     1  UNL1        0.1032
     16 C           2.6498    3.6213   36.4602 C.3     1  UNL1        0.0522
     17 C           2.0233    3.6250   35.0972 C.ar    1  UNL1        0.0637
     18 C           1.3767    4.8726   34.5724 C.ar    1  UNL1        0.0296
     19 C           0.7502    4.8763   33.2095 C.ar    1  UNL1        0.0651
     20 C           0.1037    6.1240   32.6847 C.3     1  UNL1        0.0523
     21 N           0.7703    3.6324   32.3714 N.ar    1  UNL1       -0.1994
     22 N           0.2375    3.3370   31.0007 N.ar    1  UNL1       -0.1476
     23 C           0.5548    1.9068   30.6785 C.ar    1  UNL1        0.1669
     24 N           1.2837    1.3183   31.8500 N.ar    1  UNL1       -0.1930
     25 C           1.4169    2.3848   32.8963 C.ar    1  UNL1        0.2536
     26 N           2.0434    2.3812   34.2592 N.ar    1  UNL1       -0.2143
     27 C           4.0241   -0.1498   25.3511 C.3     1  UNL1        0.0452
     28 C           3.1317    0.3426   24.2505 C.3     1  UNL1        0.0300
     29 C           3.3258   -0.1540   22.8486 C.ar    1  UNL1       -0.0199
     30 C           4.7046   -0.4673   22.3480 C.ar    1  UNL1       -0.0044
     31 C           4.8988   -0.9639   20.9460 C.ar    1  UNL1       -0.0001
     32 C           3.7140   -1.1471   20.0445 C.ar    1  UNL1        0.0292
     33 C           2.3351   -0.8338   20.5450 C.ar    1  UNL1        0.1380
     34 F           1.1503   -1.0171   19.6434 F       1  UNL1       -0.2044
     35 C           2.1410   -0.3372   21.9470 C.ar    1  UNL1        0.0251
     36 C           3.9080   -1.6437   18.6424 C.3     1  UNL1        0.1092
     37 C           4.0424   -0.2297   18.1602 C.3     1  UNL1        0.0340
     38 C           3.7737   -3.0577   19.1246 C.3     1  UNL1        0.0340
     39 O           4.1021   -2.1404   17.2404 O.3     1  UNL1       -0.3826
     40 H           4.2258   -1.3854   16.6441 H       1  UNL1        0.2107
@<TRIPOS>BOND
     1    16    17    1
     2    17    18   ar
     3    18    19   ar
     4    19    20    1
     5    19    21   ar
     6    21    22   ar
     7    22    23   ar
     8    23    15    1
     9    15     1    1
    10     1     2    2
    11     2     3    1
    12     2     4    1
    13     4     5    1
    14     5    27    1
    15    27    28    1
    16    28    29    1
    17    29    30   ar
    18    30    31   ar
    19    31    32   ar
    20    32    36    1
    21    36    37    1
    22    36    38    1
    23    36    39    1
    24    32    33   ar
    25    33    34    1
    26    33    35   ar
    27     5    10    1
    28    10    11    1
    29    11    12    1
    30    12    13    1
    31    13    14    1
    32     5     6    1
    33     6     7    1
    34     7     8    2
    35    23    24   ar
    36    24    25   ar
    37    25    26   ar
    38    26    17   ar
    39    25    21   ar
    40     7     1    1
    41    35    29   ar
    42    14    10    1
    43     3     9    1
    44    39    40    1
