@<TRIPOS>MOLECULE
*****
 39 45 0 0 0
SMALL
GASTEIGER

@<TRIPOS>ATOM
      1 C          -0.5194    3.5402   23.7925 C.ar    1  UNL1        0.0146
      2 C          -1.9331    4.0414   23.7968 C.ar    1  UNL1       -0.0011
      3 C          -2.8533    3.6808   24.9252 C.ar    1  UNL1        0.0014
      4 C          -2.3597    2.8189   26.0492 C.ar    1  UNL1        0.0206
      5 C          -0.9459    2.3177   26.0450 C.ar    1  UNL1        0.0989
      6 C          -0.0258    2.6783   24.9166 C.ar    1  UNL1        0.1511
      7 O           1.3880    2.1771   24.9123 O.3     1  UNL1       -0.4678
      8 C           1.8816    1.3152   26.0364 C.3     1  UNL1        0.2510
      9 C           0.9614    0.9546   27.1648 C.ar    1  UNL1        0.1087
     10 C           1.1641    0.1285   28.4002 C.ar    1  UNL1        0.1518
     11 N          -0.1244    0.1191   29.1681 N.ar    1  UNL1       -0.2192
     12 C          -1.1234    0.9394   28.4072 C.ar    1  UNL1        0.1828
     13 N          -0.4523    1.4558   27.1691 N.ar    1  UNL1       -0.2851
     14 C           2.4326   -0.5663   28.7980 C.2     1  UNL1        0.2681
     15 O           3.1022   -1.5097   27.8433 O.2     1  UNL1       -0.2682
     16 N           3.0314   -0.3176   30.1506 N.am    1  UNL1       -0.2748
     17 C           4.2887   -0.9367   30.6855 C.3     1  UNL1        0.0938
     18 C           4.5126   -0.4079   32.0713 C.3     1  UNL1        0.0233
     19 C           3.3936    0.5378   32.3928 C.3     1  UNL1        0.0233
     20 C           2.4783    0.5936   31.2058 C.3     1  UNL1        0.0938
     21 C           0.4009    3.9008   22.6641 C.3     1  UNL1        0.0468
     22 C           0.2968    3.1811   21.3522 C.3     1  UNL1        0.0770
     23 N           2.8042   -0.4765   20.5873 N.pl3   1  UNL1       -0.3046
     24 C           3.4649    0.8434   20.8542 C.3     1  UNL1        0.1081
     25 C           2.6291    2.0626   21.1092 C.3     1  UNL1        0.0938
     26 N           1.1326    1.9619   21.0973 N.3     1  UNL1       -0.2695
     27 C           0.4718    0.6419   20.8304 C.3     1  UNL1        0.0938
     28 C           1.3076   -0.5772   20.5754 C.3     1  UNL1        0.1081
     29 C           6.5791   -4.3183   24.8582 C.3     1  UNL1        0.0521
     30 C           5.8443   -3.6626   23.7267 C.ar    1  UNL1        0.0593
     31 C           5.0085   -2.4435   23.9817 C.ar    1  UNL1        0.0148
     32 C           4.2737   -1.7878   22.8502 C.ar    1  UNL1        0.0039
     33 C           4.3747   -2.3513   21.4638 C.ar    1  UNL1        0.0310
     34 C           3.6400   -1.6957   20.3323 C.ar    1  UNL1        0.0493
     35 C           3.7410   -2.2592   18.9459 C.ar    1  UNL1        0.0146
     36 C           4.5768   -3.4784   18.6909 C.ar    1  UNL1        0.0028
     37 C           5.3116   -4.1340   19.8223 C.ar    1  UNL1        0.0192
     38 C           5.2106   -3.5705   21.2088 C.ar    1  UNL1        0.0821
     39 N           5.9454   -4.2262   22.3402 N.ar    1  UNL1       -0.2496
@<TRIPOS>BOND
     1    29    30    1
     2    30    31   ar
     3    31    32   ar
     4    32    33   ar
     5    33    34   ar
     6    34    23    1
     7    23    24    1
     8    24    25    1
     9    25    26    1
    10    26    22    1
    11    22    21    1
    12    21     1    1
    13     1     2   ar
    14     2     3   ar
    15     3     4   ar
    16     4     5   ar
    17     5     6   ar
    18     6     7    1
    19     7     8    1
    20     8     9    1
    21     9    10   ar
    22    10    14    1
    23    14    15    2
    24    14    16   am
    25    16    17    1
    26    17    18    1
    27    18    19    1
    28    19    20    1
    29    10    11   ar
    30    11    12   ar
    31    12    13   ar
    32    26    27    1
    33    27    28    1
    34    34    35   ar
    35    35    36   ar
    36    36    37   ar
    37    37    38   ar
    38    38    39   ar
    39    39    30   ar
    40    38    33   ar
    41    28    23    1
    42     6     1   ar
    43    13     9   ar
    44    13     5    1
    45    20    16    1
@<TRIPOS>MOLECULE
*****
 39 45 0 0 0
SMALL
GASTEIGER

@<TRIPOS>ATOM
      1 C          -1.8587    3.8434   20.2075 C.ar    1  UNL1        0.0146
      2 C          -3.1845    3.7224   19.5164 C.ar    1  UNL1       -0.0011
      3 C          -4.4417    3.5899   20.3238 C.ar    1  UNL1        0.0014
      4 C          -4.3732    3.5784   21.8222 C.ar    1  UNL1        0.0206
      5 C          -3.0474    3.6994   22.5132 C.ar    1  UNL1        0.0989
      6 C          -1.7902    3.8319   21.7059 C.ar    1  UNL1        0.1511
      7 O          -0.4643    3.9529   22.3970 O.3     1  UNL1       -0.4678
      8 C          -0.3957    3.9415   23.8953 C.3     1  UNL1        0.2510
      9 C          -1.6530    3.8090   24.7027 C.ar    1  UNL1        0.1087
     10 C          -1.8960    3.7673   26.1822 C.ar    1  UNL1        0.1518
     11 N          -3.3720    3.6205   26.4056 N.ar    1  UNL1       -0.2192
     12 C          -4.0412    3.5715   25.0641 C.ar    1  UNL1        0.1828
     13 N          -2.9788    3.6879   24.0116 N.ar    1  UNL1       -0.2851
     14 C          -0.8471    3.8567   27.2508 C.2     1  UNL1        0.2681
     15 O          -0.2596    5.1877   27.6156 O.2     1  UNL1       -0.2682
     16 N          -0.3858    2.6150   27.9547 N.am    1  UNL1       -0.2748
     17 C           0.6497    2.5486   29.0379 C.3     1  UNL1        0.0938
     18 C           0.7965    1.1142   29.4516 C.3     1  UNL1        0.0233
     19 C          -0.1483    0.2942   28.6240 C.3     1  UNL1        0.0233
     20 C          -0.8790    1.2217   27.6989 C.3     1  UNL1        0.0938
     21 C          -0.6014    3.9759   19.4002 C.3     1  UNL1        0.0468
     22 C          -0.1824    2.8698   18.4777 C.3     1  UNL1        0.0770
     23 N           2.3160   -0.5336   20.0347 N.pl3   1  UNL1       -0.3046
     24 C           0.8890   -0.3890   20.4734 C.3     1  UNL1        0.1081
     25 C           0.0561    0.7455   19.9544 C.3     1  UNL1        0.0938
     26 N           0.6504    1.7353   18.9967 N.3     1  UNL1       -0.2695
     27 C           2.0775    1.5906   18.5581 C.3     1  UNL1        0.0938
     28 C           2.9103    0.4562   19.0771 C.3     1  UNL1        0.1081
     29 C           4.9938   -1.6684   26.2630 C.3     1  UNL1        0.0521
     30 C           4.5326   -1.6683   24.8357 C.ar    1  UNL1        0.0593
     31 C           3.6998   -0.5339   24.3167 C.ar    1  UNL1        0.0148
     32 C           3.2385   -0.5338   22.8894 C.ar    1  UNL1        0.0039
     33 C           3.6101   -1.6682   21.9810 C.ar    1  UNL1        0.0310
     34 C           3.1488   -1.6681   20.5537 C.ar    1  UNL1        0.0493
     35 C           3.5204   -2.8025   19.6454 C.ar    1  UNL1        0.0146
     36 C           4.3532   -3.9370   20.1644 C.ar    1  UNL1        0.0028
     37 C           4.8145   -3.9371   21.5917 C.ar    1  UNL1        0.0192
     38 C           4.4429   -2.8027   22.5000 C.ar    1  UNL1        0.0821
     39 N           4.9042   -2.8028   23.9274 N.ar    1  UNL1       -0.2496
@<TRIPOS>BOND
     1    29    30    1
     2    30    31   ar
     3    31    32   ar
     4    32    33   ar
     5    33    34   ar
     6    34    23    1
     7    23    24    1
     8    24    25    1
     9    25    26    1
    10    26    22    1
    11    22    21    1
    12    21     1    1
    13     1     2   ar
    14     2     3   ar
    15     3     4   ar
    16     4     5   ar
    17     5     6   ar
    18     6     7    1
    19     7     8    1
    20     8     9    1
    21     9    10   ar
    22    10    14    1
    23    14    15    2
    24    14    16   am
    25    16    17    1
    26    17    18    1
    27    18    19    1
    28    19    20    1
    29    10    11   ar
    30    11    12   ar
    31    12    13   ar
    32    26    27    1
    33    27    28    1
    34    34    35   ar
    35    35    36   ar
    36    36    37   ar
    37    37    38   ar
    38    38    39   ar
    39    39    30   ar
    40    38    33   ar
    41    28    23    1
    42     6     1   ar
    43    13     9   ar
    44    13     5    1
    45    20    16    1
@<TRIPOS>MOLECULE
*****
 39 45 0 0 0
SMALL
GASTEIGER

@<TRIPOS>ATOM
      1 C           7.1624   -2.3119   29.1948 C.ar    1  UNL1        0.0146
      2 C           8.0102   -2.2048   30.4276 C.ar    1  UNL1       -0.0011
      3 C           7.4736   -1.5203   31.6497 C.ar    1  UNL1        0.0014
      4 C           6.0892   -0.9430   31.6390 C.ar    1  UNL1        0.0206
      5 C           5.2414   -1.0502   30.4062 C.ar    1  UNL1        0.0989
      6 C           5.7780   -1.7346   29.1842 C.ar    1  UNL1        0.1511
      7 O           4.9302   -1.8419   27.9513 O.3     1  UNL1       -0.4678
      8 C           3.5458   -1.2646   27.9406 C.3     1  UNL1        0.2510
      9 C           3.0092   -0.5801   29.1628 C.ar    1  UNL1        0.1087
     10 C           1.6924    0.0796   29.4469 C.ar    1  UNL1        0.1518
     11 N           1.7263    0.5945   30.8554 N.ar    1  UNL1       -0.2192
     12 C           3.0641    0.2530   31.4416 C.ar    1  UNL1        0.1828
     13 N           3.8570   -0.4729   30.3955 N.ar    1  UNL1       -0.2851
     14 C           0.5434    0.2028   28.4906 C.2     1  UNL1        0.2681
     15 O          -0.7264   -0.5551   28.7422 O.2     1  UNL1       -0.2682
     16 N           0.6642    1.0839   27.2826 N.am    1  UNL1       -0.2748
     17 C          -0.3947    1.3052   26.2435 C.3     1  UNL1        0.0938
     18 C           0.1517    2.2565   25.2203 C.3     1  UNL1        0.0233
     19 C           1.5482    2.6228   25.6272 C.3     1  UNL1        0.0233
     20 C           1.8649    1.8981   26.9018 C.3     1  UNL1        0.0938
     21 C           7.6991   -2.9964   27.9727 C.3     1  UNL1        0.0468
     22 C           8.1362   -2.1847   26.7895 C.3     1  UNL1        0.0770
     23 N           6.0167   -2.6346   22.8454 N.pl3   1  UNL1       -0.3046
     24 C           6.8825   -1.4363   23.0992 C.3     1  UNL1        0.1081
     25 C           7.5890   -1.2863   24.4139 C.3     1  UNL1        0.0938
     26 N           7.4297   -2.3346   25.4748 N.3     1  UNL1       -0.2695
     27 C           6.5638   -3.5330   25.2210 C.3     1  UNL1        0.0938
     28 C           5.8574   -3.6829   23.9064 C.3     1  UNL1        0.1081
     29 C           0.3331    0.3776   20.4218 C.3     1  UNL1        0.0521
     30 C           1.5774   -0.4130   20.6990 C.ar    1  UNL1        0.0593
     31 C           2.2839   -0.2630   22.0137 C.ar    1  UNL1        0.0148
     32 C           3.5281   -1.0535   22.2909 C.ar    1  UNL1        0.0039
     33 C           4.0659   -1.9940   21.2535 C.ar    1  UNL1        0.0310
     34 C           5.3102   -2.7845   21.5308 C.ar    1  UNL1        0.0493
     35 C           5.8480   -3.7250   20.4933 C.ar    1  UNL1        0.0146
     36 C           5.1415   -3.8750   19.1787 C.ar    1  UNL1        0.0028
     37 C           3.8972   -3.0845   18.9014 C.ar    1  UNL1        0.0192
     38 C           3.3594   -2.1440   19.9388 C.ar    1  UNL1        0.0821
     39 N           2.1152   -1.3535   19.6615 N.ar    1  UNL1       -0.2496
@<TRIPOS>BOND
     1    29    30    1
     2    30    31   ar
     3    31    32   ar
     4    32    33   ar
     5    33    34   ar
     6    34    23    1
     7    23    24    1
     8    24    25    1
     9    25    26    1
    10    26    22    1
    11    22    21    1
    12    21     1    1
    13     1     2   ar
    14     2     3   ar
    15     3     4   ar
    16     4     5   ar
    17     5     6   ar
    18     6     7    1
    19     7     8    1
    20     8     9    1
    21     9    10   ar
    22    10    14    1
    23    14    15    2
    24    14    16   am
    25    16    17    1
    26    17    18    1
    27    18    19    1
    28    19    20    1
    29    10    11   ar
    30    11    12   ar
    31    12    13   ar
    32    26    27    1
    33    27    28    1
    34    34    35   ar
    35    35    36   ar
    36    36    37   ar
    37    37    38   ar
    38    38    39   ar
    39    39    30   ar
    40    38    33   ar
    41    28    23    1
    42     6     1   ar
    43    13     9   ar
    44    13     5    1
    45    20    16    1
@<TRIPOS>MOLECULE
*****
 39 45 0 0 0
SMALL
GASTEIGER

@<TRIPOS>ATOM
      1 C           3.8262   -1.6318   18.8734 C.ar    1  UNL1        0.0146
      2 C           5.1138   -1.3373   18.1625 C.ar    1  UNL1       -0.0011
      3 C           5.4016    0.0525   17.6772 C.ar    1  UNL1        0.0014
      4 C           4.4019    1.1478   17.9028 C.ar    1  UNL1        0.0206
      5 C           3.1143    0.8533   18.6138 C.ar    1  UNL1        0.0989
      6 C           2.8265   -0.5365   19.0991 C.ar    1  UNL1        0.1511
      7 O           1.5389   -0.8311   19.8100 O.3     1  UNL1       -0.4678
      8 C           0.5392    0.2642   20.0356 C.3     1  UNL1        0.2510
      9 C           0.8271    1.6541   19.5503 C.ar    1  UNL1        0.1087
     10 C           0.0383    2.9275   19.6274 C.ar    1  UNL1        0.1518
     11 N           0.8384    4.0092   18.9641 N.ar    1  UNL1       -0.2192
     12 C           2.1216    3.4041   18.4771 C.ar    1  UNL1        0.1828
     13 N           2.1146    1.9486   18.8394 N.ar    1  UNL1       -0.2851
     14 C          -1.3132    3.0908   20.2572 C.2     1  UNL1        0.2681
     15 O          -1.5016    2.7960   21.7158 O.2     1  UNL1       -0.2682
     16 N          -2.4765    3.5488   19.4283 N.am    1  UNL1       -0.2748
     17 C          -3.8795    3.7566   19.9166 C.3     1  UNL1        0.0938
     18 C          -4.7112    4.2157   18.7557 C.3     1  UNL1        0.0233
     19 C          -3.8221    4.2916   17.5501 C.3     1  UNL1        0.0233
     20 C          -2.4410    3.8795   17.9657 C.3     1  UNL1        0.0938
     21 C           3.5384   -3.0217   19.3588 C.3     1  UNL1        0.0468
     22 C           4.6618   -3.9969   19.5505 C.3     1  UNL1        0.0770
     23 N           7.0969   -3.9088   23.3336 N.pl3   1  UNL1       -0.3046
     24 C           5.6062   -3.7555   23.3975 C.3     1  UNL1        0.1081
     25 C           4.7944   -3.7848   22.1365 C.3     1  UNL1        0.0938
     26 N           5.4735   -3.9675   20.8115 N.3     1  UNL1       -0.2695
     27 C           6.9643   -4.1209   20.7476 C.3     1  UNL1        0.0938
     28 C           7.7760   -4.0915   22.0087 C.3     1  UNL1        0.1081
     29 C           9.2756   -9.0026   27.4026 C.3     1  UNL1        0.0521
     30 C           8.9339   -7.7218   26.7006 C.ar    1  UNL1        0.0593
     31 C           8.1222   -7.7512   25.4395 C.ar    1  UNL1        0.0148
     32 C           7.7804   -6.4704   24.7376 C.ar    1  UNL1        0.0039
     33 C           8.2504   -5.1602   25.2967 C.ar    1  UNL1        0.0310
     34 C           7.9086   -3.8794   24.5947 C.ar    1  UNL1        0.0493
     35 C           8.3786   -2.5692   25.1538 C.ar    1  UNL1        0.0146
     36 C           9.1903   -2.5399   26.4149 C.ar    1  UNL1        0.0028
     37 C           9.5320   -3.8207   27.1168 C.ar    1  UNL1        0.0192
     38 C           9.0621   -5.1308   26.5578 C.ar    1  UNL1        0.0821
     39 N           9.4038   -6.4116   27.2597 N.ar    1  UNL1       -0.2496
@<TRIPOS>BOND
     1    29    30    1
     2    30    31   ar
     3    31    32   ar
     4    32    33   ar
     5    33    34   ar
     6    34    23    1
     7    23    24    1
     8    24    25    1
     9    25    26    1
    10    26    22    1
    11    22    21    1
    12    21     1    1
    13     1     2   ar
    14     2     3   ar
    15     3     4   ar
    16     4     5   ar
    17     5     6   ar
    18     6     7    1
    19     7     8    1
    20     8     9    1
    21     9    10   ar
    22    10    14    1
    23    14    15    2
    24    14    16   am
    25    16    17    1
    26    17    18    1
    27    18    19    1
    28    19    20    1
    29    10    11   ar
    30    11    12   ar
    31    12    13   ar
    32    26    27    1
    33    27    28    1
    34    34    35   ar
    35    35    36   ar
    36    36    37   ar
    37    37    38   ar
    38    38    39   ar
    39    39    30   ar
    40    38    33   ar
    41    28    23    1
    42     6     1   ar
    43    13     9   ar
    44    13     5    1
    45    20    16    1
@<TRIPOS>MOLECULE
*****
 39 45 0 0 0
SMALL
GASTEIGER

@<TRIPOS>ATOM
      1 C           8.3698   -5.1117   23.2404 C.ar    1  UNL1        0.0146
      2 C           8.5950   -6.5864   23.0839 C.ar    1  UNL1       -0.0011
      3 C           8.3702   -7.5069   24.2467 C.ar    1  UNL1        0.0014
      4 C           7.9203   -6.9527   25.5660 C.ar    1  UNL1        0.0206
      5 C           7.6951   -5.4780   25.7224 C.ar    1  UNL1        0.0989
      6 C           7.9199   -4.5575   24.5596 C.ar    1  UNL1        0.1511
      7 O           7.6947   -3.0827   24.7161 O.3     1  UNL1       -0.4678
      8 C           7.2448   -2.5285   26.0353 C.3     1  UNL1        0.2510
      9 C           7.0200   -3.4491   27.1981 C.ar    1  UNL1        0.1087
     10 C           6.5800   -3.1945   28.6093 C.ar    1  UNL1        0.1518
     11 N           6.5332   -4.5119   29.3251 N.ar    1  UNL1       -0.2192
     12 C           6.9443   -5.5806   28.3562 C.ar    1  UNL1        0.1828
     13 N           7.2452   -4.9238   27.0417 N.ar    1  UNL1       -0.2851
     14 C           6.2455   -1.8573   29.2009 C.2     1  UNL1        0.2681
     15 O           7.0749   -1.3042   30.3217 O.2     1  UNL1       -0.2682
     16 N           5.0814   -1.0731   28.6717 N.am    1  UNL1       -0.2748
     17 C           4.6284    0.2707   29.1605 C.3     1  UNL1        0.0938
     18 C           3.4330    0.6794   28.3516 C.3     1  UNL1        0.0233
     19 C           3.1473   -0.4119   27.3631 C.3     1  UNL1        0.0233
     20 C           4.1661   -1.4950   27.5609 C.3     1  UNL1        0.0938
     21 C           8.5945   -4.1911   22.0776 C.3     1  UNL1        0.0468
     22 C           7.7358   -4.3062   20.8530 C.3     1  UNL1        0.0770
     23 N           4.2171   -1.5550   20.3059 N.pl3   1  UNL1       -0.3046
     24 C           4.0551   -3.0310   20.0937 C.3     1  UNL1        0.1081
     25 C           5.2281   -3.9481   20.2761 C.3     1  UNL1        0.0938
     26 N           6.5629   -3.3891   20.6707 N.3     1  UNL1       -0.2695
     27 C           6.7249   -1.9130   20.8828 C.3     1  UNL1        0.0938
     28 C           5.5520   -0.9960   20.7004 C.3     1  UNL1        0.1081
     29 C           0.2202    1.6105   24.9161 C.3     1  UNL1        0.0521
     30 C           0.9262    1.0484   23.7180 C.ar    1  UNL1        0.0593
     31 C           2.0991    0.1314   23.9004 C.ar    1  UNL1        0.0148
     32 C           2.8051   -0.4308   22.7022 C.ar    1  UNL1        0.0039
     33 C           2.3382   -0.0758   21.3216 C.ar    1  UNL1        0.0310
     34 C           3.0442   -0.6380   20.1235 C.ar    1  UNL1        0.0493
     35 C           2.5772   -0.2830   18.7429 C.ar    1  UNL1        0.0146
     36 C           1.4043    0.6340   18.5605 C.ar    1  UNL1        0.0028
     37 C           0.6983    1.1961   19.7586 C.ar    1  UNL1        0.0192
     38 C           1.1652    0.8412   21.1392 C.ar    1  UNL1        0.0821
     39 N           0.4592    1.4033   22.3373 N.ar    1  UNL1       -0.2496
@<TRIPOS>BOND
     1    29    30    1
     2    30    31   ar
     3    31    32   ar
     4    32    33   ar
     5    33    34   ar
     6    34    23    1
     7    23    24    1
     8    24    25    1
     9    25    26    1
    10    26    22    1
    11    22    21    1
    12    21     1    1
    13     1     2   ar
    14     2     3   ar
    15     3     4   ar
    16     4     5   ar
    17     5     6   ar
    18     6     7    1
    19     7     8    1
    20     8     9    1
    21     9    10   ar
    22    10    14    1
    23    14    15    2
    24    14    16   am
    25    16    17    1
    26    17    18    1
    27    18    19    1
    28    19    20    1
    29    10    11   ar
    30    11    12   ar
    31    12    13   ar
    32    26    27    1
    33    27    28    1
    34    34    35   ar
    35    35    36   ar
    36    36    37   ar
    37    37    38   ar
    38    38    39   ar
    39    39    30   ar
    40    38    33   ar
    41    28    23    1
    42     6     1   ar
    43    13     9   ar
    44    13     5    1
    45    20    16    1
@<TRIPOS>MOLECULE
*****
 39 45 0 0 0
SMALL
GASTEIGER

@<TRIPOS>ATOM
      1 C          -1.2955    3.1582   24.3821 C.ar    1  UNL1        0.0146
      2 C          -1.5270    3.3036   25.8570 C.ar    1  UNL1       -0.0011
      3 C          -2.8862    3.6774   26.3694 C.ar    1  UNL1        0.0014
      4 C          -4.0139    3.9058   25.4071 C.ar    1  UNL1        0.0206
      5 C          -3.7824    3.7603   23.9323 C.ar    1  UNL1        0.0989
      6 C          -2.4232    3.3865   23.4198 C.ar    1  UNL1        0.1511
      7 O          -2.1916    3.2410   21.9449 O.3     1  UNL1       -0.4678
      8 C          -3.3193    3.4694   20.9825 C.3     1  UNL1        0.2510
      9 C          -4.6786    3.8432   21.4951 C.ar    1  UNL1        0.1087
     10 C          -5.9726    4.1289   20.7923 C.ar    1  UNL1        0.1518
     11 N          -7.0039    4.4509   21.8328 N.ar    1  UNL1       -0.2192
     12 C          -6.3473    4.3643   23.1787 C.ar    1  UNL1        0.1828
     13 N          -4.9101    3.9887   22.9699 N.ar    1  UNL1       -0.2851
     14 C          -6.1961    4.0980   19.3094 C.2     1  UNL1        0.2681
     15 O          -6.8879    2.9257   18.6794 O.2     1  UNL1       -0.2682
     16 N          -5.7276    5.2395   18.4564 N.am    1  UNL1       -0.2748
     17 C          -5.8798    5.3484   16.9681 C.3     1  UNL1        0.0938
     18 C          -5.2710    6.6487   16.5338 C.3     1  UNL1        0.0233
     19 C          -4.7426    7.3433   17.7537 C.3     1  UNL1        0.0233
     20 C          -5.0248    6.4724   18.9419 C.3     1  UNL1        0.0938
     21 C           0.0638    2.7843   23.8695 C.3     1  UNL1        0.0468
     22 C           0.6583    1.4531   24.2222 C.3     1  UNL1        0.0770
     23 N           3.0190   -0.8408   21.1538 N.pl3   1  UNL1       -0.3046
     24 C           1.7835   -0.0947   20.7454 C.3     1  UNL1        0.1081
     25 C           0.9966    0.6699   21.7682 C.3     1  UNL1        0.0938
     26 N           1.4452    0.6885   23.1994 N.3     1  UNL1       -0.2695
     27 C           2.6808   -0.0576   23.6078 C.3     1  UNL1        0.0938
     28 C           3.4677   -0.8222   22.5850 C.3     1  UNL1        0.1081
     29 C           7.3622    1.3172   16.2824 C.3     1  UNL1        0.0521
     30 C           6.4731    0.5865   17.2446 C.ar    1  UNL1        0.0593
     31 C           5.6862    1.3512   18.2674 C.ar    1  UNL1        0.0148
     32 C           4.7972    0.6205   19.2295 C.ar    1  UNL1        0.0039
     33 C           4.6950   -0.8747   19.1688 C.ar    1  UNL1        0.0310
     34 C           3.8059   -1.6054   20.1310 C.ar    1  UNL1        0.0493
     35 C           3.7037   -3.1007   20.0703 C.ar    1  UNL1        0.0146
     36 C           4.4906   -3.8653   19.0475 C.ar    1  UNL1        0.0028
     37 C           5.3797   -3.1347   18.0853 C.ar    1  UNL1        0.0192
     38 C           5.4819   -1.6394   18.1460 C.ar    1  UNL1        0.0821
     39 N           6.3709   -0.9088   17.1839 N.ar    1  UNL1       -0.2496
@<TRIPOS>BOND
     1    29    30    1
     2    30    31   ar
     3    31    32   ar
     4    32    33   ar
     5    33    34   ar
     6    34    23    1
     7    23    24    1
     8    24    25    1
     9    25    26    1
    10    26    22    1
    11    22    21    1
    12    21     1    1
    13     1     2   ar
    14     2     3   ar
    15     3     4   ar
    16     4     5   ar
    17     5     6   ar
    18     6     7    1
    19     7     8    1
    20     8     9    1
    21     9    10   ar
    22    10    14    1
    23    14    15    2
    24    14    16   am
    25    16    17    1
    26    17    18    1
    27    18    19    1
    28    19    20    1
    29    10    11   ar
    30    11    12   ar
    31    12    13   ar
    32    26    27    1
    33    27    28    1
    34    34    35   ar
    35    35    36   ar
    36    36    37   ar
    37    37    38   ar
    38    38    39   ar
    39    39    30   ar
    40    38    33   ar
    41    28    23    1
    42     6     1   ar
    43    13     9   ar
    44    13     5    1
    45    20    16    1
@<TRIPOS>MOLECULE
*****
 39 45 0 0 0
SMALL
GASTEIGER

@<TRIPOS>ATOM
      1 C           7.9302   -3.5878   28.7319 C.ar    1  UNL1        0.0146
      2 C           8.4929   -4.8562   29.3016 C.ar    1  UNL1       -0.0011
      3 C           8.0475   -5.3342   30.6518 C.ar    1  UNL1        0.0014
      4 C           7.0394   -4.5439   31.4323 C.ar    1  UNL1        0.0206
      5 C           6.4768   -3.2755   30.8626 C.ar    1  UNL1        0.0989
      6 C           6.9222   -2.7975   29.5124 C.ar    1  UNL1        0.1511
      7 O           6.3595   -1.5290   28.9427 O.3     1  UNL1       -0.4678
      8 C           5.3515   -0.7387   29.7232 C.3     1  UNL1        0.2510
      9 C           4.9061   -1.2168   31.0734 C.ar    1  UNL1        0.1087
     10 C           3.9341   -0.6534   32.0673 C.ar    1  UNL1        0.1518
     11 N           3.8961   -1.5736   33.2513 N.ar    1  UNL1       -0.2192
     12 C           4.8445   -2.7057   32.9891 C.ar    1  UNL1        0.1828
     13 N           5.4687   -2.4852   31.6431 N.ar    1  UNL1       -0.2851
     14 C           3.1397    0.6087   31.9056 C.2     1  UNL1        0.2681
     15 O           3.3789    1.7686   32.8261 O.2     1  UNL1       -0.2682
     16 N           2.1061    0.7107   30.8234 N.am    1  UNL1       -0.2748
     17 C           1.2392    1.9020   30.5417 C.3     1  UNL1        0.0938
     18 C           0.3551    1.5670   29.3770 C.3     1  UNL1        0.0233
     19 C           0.6757    0.1687   28.9390 C.3     1  UNL1        0.0233
     20 C           1.7579   -0.3605   29.8329 C.3     1  UNL1        0.0938
     21 C           8.3756   -3.1097   27.3816 C.3     1  UNL1        0.0468
     22 C           8.4635   -4.0740   26.2360 C.3     1  UNL1        0.0770
     23 N           6.9878   -2.8661   22.1601 N.pl3   1  UNL1       -0.3046
     24 C           7.6596   -1.8573   23.0438 C.3     1  UNL1        0.1081
     25 C           8.1515   -2.2599   24.4025 C.3     1  UNL1        0.0938
     26 N           7.9716   -3.6713   24.8774 N.3     1  UNL1       -0.2695
     27 C           7.2998   -4.6801   23.9936 C.3     1  UNL1        0.0938
     28 C           6.8079   -4.2775   22.6350 C.3     1  UNL1        0.1081
     29 C           0.9425   -0.2891   20.1443 C.3     1  UNL1        0.0521
     30 C           2.3308   -0.8327   20.3086 C.ar    1  UNL1        0.0593
     31 C           2.8227   -1.2353   21.6672 C.ar    1  UNL1        0.0148
     32 C           4.2111   -1.7789   21.8315 C.ar    1  UNL1        0.0039
     33 C           5.1075   -1.9198   20.6372 C.ar    1  UNL1        0.0310
     34 C           6.4959   -2.4634   20.8015 C.ar    1  UNL1        0.0493
     35 C           7.3924   -2.6043   19.6071 C.ar    1  UNL1        0.0146
     36 C           6.9005   -2.2017   18.2485 C.ar    1  UNL1        0.0028
     37 C           5.5121   -1.6581   18.0842 C.ar    1  UNL1        0.0192
     38 C           4.6157   -1.5172   19.2785 C.ar    1  UNL1        0.0821
     39 N           3.2273   -0.9736   19.1142 N.ar    1  UNL1       -0.2496
@<TRIPOS>BOND
     1    29    30    1
     2    30    31   ar
     3    31    32   ar
     4    32    33   ar
     5    33    34   ar
     6    34    23    1
     7    23    24    1
     8    24    25    1
     9    25    26    1
    10    26    22    1
    11    22    21    1
    12    21     1    1
    13     1     2   ar
    14     2     3   ar
    15     3     4   ar
    16     4     5   ar
    17     5     6   ar
    18     6     7    1
    19     7     8    1
    20     8     9    1
    21     9    10   ar
    22    10    14    1
    23    14    15    2
    24    14    16   am
    25    16    17    1
    26    17    18    1
    27    18    19    1
    28    19    20    1
    29    10    11   ar
    30    11    12   ar
    31    12    13   ar
    32    26    27    1
    33    27    28    1
    34    34    35   ar
    35    35    36   ar
    36    36    37   ar
    37    37    38   ar
    38    38    39   ar
    39    39    30   ar
    40    38    33   ar
    41    28    23    1
    42     6     1   ar
    43    13     9   ar
    44    13     5    1
    45    20    16    1
@<TRIPOS>MOLECULE
*****
 39 45 0 0 0
SMALL
GASTEIGER

@<TRIPOS>ATOM
      1 C           7.1236   -6.1293   27.0738 C.ar    1  UNL1        0.0146
      2 C           7.8438   -7.4086   27.3813 C.ar    1  UNL1       -0.0011
      3 C           8.6480   -8.0915   26.3151 C.ar    1  UNL1        0.0014
      4 C           8.7322   -7.4949   24.9414 C.ar    1  UNL1        0.0206
      5 C           8.0120   -6.2156   24.6339 C.ar    1  UNL1        0.0989
      6 C           7.2077   -5.5328   25.7001 C.ar    1  UNL1        0.1511
      7 O           6.4875   -4.2533   25.3927 O.3     1  UNL1       -0.4678
      8 C           6.5717   -3.6568   24.0189 C.3     1  UNL1        0.2510
      9 C           7.3760   -4.3397   22.9527 C.ar    1  UNL1        0.1087
     10 C           7.6412   -3.9917   21.5180 C.ar    1  UNL1        0.1518
     11 N           8.5253   -5.0561   20.9387 N.ar    1  UNL1       -0.2192
     12 C           8.8065   -6.0618   22.0155 C.ar    1  UNL1        0.1828
     13 N           8.0961   -5.6190   23.2602 N.ar    1  UNL1       -0.2851
     14 C           7.1148   -2.7904   20.7902 C.2     1  UNL1        0.2681
     15 O           7.9007   -1.5128   20.7848 O.2     1  UNL1       -0.2682
     16 N           5.8023   -2.8666   20.0680 N.am    1  UNL1       -0.2748
     17 C           5.1521   -1.7535   19.3010 C.3     1  UNL1        0.0938
     18 C           3.8576   -2.2683   18.7448 C.3     1  UNL1        0.0233
     19 C           3.7078   -3.6994   19.1681 C.3     1  UNL1        0.0233
     20 C           4.9097   -4.0692   19.9859 C.3     1  UNL1        0.0938
     21 C           6.3193   -5.4464   28.1401 C.3     1  UNL1        0.0468
     22 C           6.7833   -5.4791   29.5661 C.3     1  UNL1        0.0770
     23 N           7.3605   -1.6350   31.8332 N.pl3   1  UNL1       -0.3046
     24 C           6.5068   -1.6575   30.6001 C.3     1  UNL1        0.1081
     25 C           6.3144   -2.9389   29.8443 C.3     1  UNL1        0.0938
     26 N           6.9757   -4.1977   30.3218 N.3     1  UNL1       -0.2695
     27 C           7.8293   -4.1752   31.5551 C.3     1  UNL1        0.0938
     28 C           8.0217   -2.8938   32.3107 C.3     1  UNL1        0.1081
     29 C           4.0436    0.9141   37.2876 C.3     1  UNL1        0.0521
     30 C           4.9209    0.5972   36.1130 C.ar    1  UNL1        0.0593
     31 C           4.7285   -0.6842   35.3573 C.ar    1  UNL1        0.0148
     32 C           5.6058   -1.0011   34.1826 C.ar    1  UNL1        0.0039
     33 C           6.6755   -0.0367   33.7636 C.ar    1  UNL1        0.0310
     34 C           7.5528   -0.3536   32.5889 C.ar    1  UNL1        0.0493
     35 C           8.6226    0.6109   32.1699 C.ar    1  UNL1        0.0146
     36 C           8.8150    1.8922   32.9256 C.ar    1  UNL1        0.0028
     37 C           7.9376    2.2091   34.1003 C.ar    1  UNL1        0.0192
     38 C           6.8680    1.2447   34.5193 C.ar    1  UNL1        0.0821
     39 N           5.9906    1.5617   35.6940 N.ar    1  UNL1       -0.2496
@<TRIPOS>BOND
     1    29    30    1
     2    30    31   ar
     3    31    32   ar
     4    32    33   ar
     5    33    34   ar
     6    34    23    1
     7    23    24    1
     8    24    25    1
     9    25    26    1
    10    26    22    1
    11    22    21    1
    12    21     1    1
    13     1     2   ar
    14     2     3   ar
    15     3     4   ar
    16     4     5   ar
    17     5     6   ar
    18     6     7    1
    19     7     8    1
    20     8     9    1
    21     9    10   ar
    22    10    14    1
    23    14    15    2
    24    14    16   am
    25    16    17    1
    26    17    18    1
    27    18    19    1
    28    19    20    1
    29    10    11   ar
    30    11    12   ar
    31    12    13   ar
    32    26    27    1
    33    27    28    1
    34    34    35   ar
    35    35    36   ar
    36    36    37   ar
    37    37    38   ar
    38    38    39   ar
    39    39    30   ar
    40    38    33   ar
    41    28    23    1
    42     6     1   ar
    43    13     9   ar
    44    13     5    1
    45    20    16    1
@<TRIPOS>MOLECULE
*****
 39 45 0 0 0
SMALL
GASTEIGER

@<TRIPOS>ATOM
      1 C           0.7214    1.5992   26.4480 C.ar    1  UNL1        0.0146
      2 C          -0.6844    1.5489   26.9688 C.ar    1  UNL1       -0.0011
      3 C          -0.9656    0.9413   28.3110 C.ar    1  UNL1        0.0014
      4 C           0.1589    0.3840   29.1325 C.ar    1  UNL1        0.0206
      5 C           1.5647    0.4343   28.6117 C.ar    1  UNL1        0.0989
      6 C           1.8459    1.0418   27.2695 C.ar    1  UNL1        0.1511
      7 O           3.2517    1.0921   26.7486 O.3     1  UNL1       -0.4678
      8 C           4.3763    0.5348   27.5701 C.3     1  UNL1        0.2510
      9 C           4.0950   -0.0728   28.9124 C.ar    1  UNL1        0.1087
     10 C           4.9925   -0.6968   29.9395 C.ar    1  UNL1        0.1518
     11 N           4.1413   -1.1329   31.0952 N.ar    1  UNL1       -0.2192
     12 C           2.7179   -0.7782   30.7823 C.ar    1  UNL1        0.1828
     13 N           2.6892   -0.1230   29.4332 N.ar    1  UNL1       -0.2851
     14 C           6.4799   -0.8569   29.8303 C.2     1  UNL1        0.2681
     15 O           7.3914    0.1188   30.5137 O.2     1  UNL1       -0.2682
     16 N           7.0558   -1.9926   29.0375 N.am    1  UNL1       -0.2748
     17 C           8.5148   -2.2792   28.8397 C.3     1  UNL1        0.0938
     18 C           8.6345   -3.5049   27.9833 C.3     1  UNL1        0.0233
     19 C           7.2495   -3.9758   27.6519 C.3     1  UNL1        0.0233
     20 C           6.2738   -3.0412   28.3034 C.3     1  UNL1        0.0938
     21 C           1.0027    2.2068   25.1057 C.3     1  UNL1        0.0468
     22 C           0.3794    1.6227   23.8726 C.3     1  UNL1        0.0770
     23 N           2.8965   -0.7292   20.9773 N.pl3   1  UNL1       -0.3046
     24 C           1.6231   -0.0864   20.5137 C.3     1  UNL1        0.1081
     25 C           0.7840    0.6976   21.4788 C.3     1  UNL1        0.0938
     26 N           1.2184    0.8387   22.9075 N.3     1  UNL1       -0.2695
     27 C           2.4919    0.1958   23.3712 C.3     1  UNL1        0.0938
     28 C           3.3309   -0.5881   22.4061 C.3     1  UNL1        0.1081
     29 C           7.3552    1.3449   16.1745 C.3     1  UNL1        0.0521
     30 C           6.4503    0.6304   17.1339 C.ar    1  UNL1        0.0593
     31 C           5.6113    1.4144   18.0990 C.ar    1  UNL1        0.0148
     32 C           4.7064    0.6998   19.0584 C.ar    1  UNL1        0.0039
     33 C           4.6404   -0.7987   19.0528 C.ar    1  UNL1        0.0310
     34 C           3.7355   -1.5132   20.0122 C.ar    1  UNL1        0.0493
     35 C           3.6696   -3.0118   20.0066 C.ar    1  UNL1        0.0146
     36 C           4.5086   -3.7958   19.0415 C.ar    1  UNL1        0.0028
     37 C           5.4135   -3.0812   18.0820 C.ar    1  UNL1        0.0192
     38 C           5.4794   -1.5827   18.0877 C.ar    1  UNL1        0.0821
     39 N           6.3844   -0.8682   17.1282 N.ar    1  UNL1       -0.2496
@<TRIPOS>BOND
     1    29    30    1
     2    30    31   ar
     3    31    32   ar
     4    32    33   ar
     5    33    34   ar
     6    34    23    1
     7    23    24    1
     8    24    25    1
     9    25    26    1
    10    26    22    1
    11    22    21    1
    12    21     1    1
    13     1     2   ar
    14     2     3   ar
    15     3     4   ar
    16     4     5   ar
    17     5     6   ar
    18     6     7    1
    19     7     8    1
    20     8     9    1
    21     9    10   ar
    22    10    14    1
    23    14    15    2
    24    14    16   am
    25    16    17    1
    26    17    18    1
    27    18    19    1
    28    19    20    1
    29    10    11   ar
    30    11    12   ar
    31    12    13   ar
    32    26    27    1
    33    27    28    1
    34    34    35   ar
    35    35    36   ar
    36    36    37   ar
    37    37    38   ar
    38    38    39   ar
    39    39    30   ar
    40    38    33   ar
    41    28    23    1
    42     6     1   ar
    43    13     9   ar
    44    13     5    1
    45    20    16    1
