@<TRIPOS>MOLECULE
*****
 36 39 0 0 0
SMALL
GASTEIGER

@<TRIPOS>ATOM
      1 C          -9.5888  -20.7695   17.7631 C.3     1  UNL1        0.1383
      2 N          -8.6722  -20.3280   18.8655 N.ar    1  UNL1       -0.2455
      3 C          -9.0443  -19.1576   19.7266 C.ar    1  UNL1        0.2816
      4 O         -10.3329  -18.4287   19.4855 O.2     1  UNL1       -0.2652
      5 C          -8.1277  -18.7161   20.8289 C.ar    1  UNL1        0.1342
      6 C          -6.8391  -19.4450   21.0700 C.ar    1  UNL1        0.0871
      7 C          -6.1419  -18.7852   22.2227 C.ar    1  UNL1        0.0515
      8 C          -6.9997  -17.6485   22.6939 C.ar    1  UNL1        0.1142
      9 N          -8.2270  -17.6057   21.8325 N.ar    1  UNL1       -0.3068
     10 N          -6.4670  -20.6155   20.2089 N.ar    1  UNL1       -0.2795
     11 C          -7.3836  -21.0570   19.1066 C.ar    1  UNL1        0.3339
     12 O          -7.0115  -22.2275   18.2453 O.2     1  UNL1       -0.2462
     13 N          -6.6854  -16.7178   23.8275 N.pl3   1  UNL1       -0.2932
     14 C          -5.3531  -16.0311   23.8867 C.3     1  UNL1        0.0922
     15 C          -5.0389  -15.1004   25.0204 C.3     1  UNL1        0.0228
     16 C          -6.0568  -14.8564   26.0948 C.3     1  UNL1        0.0177
     17 C          -7.3890  -15.5431   26.0355 C.3     1  UNL1        0.0575
     18 C          -8.7799  -15.9565   26.4158 C.3     1  UNL1        0.0173
     19 N          -7.5578  -14.7560   27.3012 N.3     1  UNL1       -0.3219
     20 C          -7.7033  -16.4738   24.9018 C.3     1  UNL1        0.1062
     21 H          -6.7097  -14.2196   27.4836 H       1  UNL1        0.1188
     22 H          -7.7301  -15.3942   28.0780 H       1  UNL1        0.1188
     23 C          -9.3553  -16.6249   21.9535 C.3     1  UNL1        0.1350
     24 C         -10.6938  -17.0796   22.4552 C.ar    1  UNL1        0.0132
     25 C         -10.7835  -17.9290   23.6883 C.ar    1  UNL1        0.0281
     26 C         -12.1220  -18.3837   24.1900 C.ar    1  UNL1        0.1399
     27 F         -12.2117  -19.2331   25.4232 F       1  UNL1       -0.2042
     28 C         -13.3708  -17.9891   23.4586 C.ar    1  UNL1        0.0305
     29 C         -13.2811  -17.1398   22.2256 C.ar    1  UNL1        0.0134
     30 C         -11.9426  -16.6850   21.7238 C.ar    1  UNL1        0.0557
     31 CL        -11.8529  -15.8357   20.4908 Cl      1  UNL1       -0.0825
     32 C          -5.1784  -21.3445   20.4500 C.3     1  UNL1        0.1131
     33 C          -3.8994  -20.8191   19.8685 C.3     1  UNL1        0.0563
     34 C          -3.0600  -19.8540   20.6520 C.3     1  UNL1        0.1392
     35 O          -2.0308  -20.3659   21.6157 O.3     1  UNL1       -0.3819
     36 H          -2.4725  -20.8269   22.3459 H       1  UNL1        0.2104
@<TRIPOS>BOND
     1     1     2    1
     2     2     3   ar
     3     3     4    2
     4     3     5   ar
     5     5     6   ar
     6     6     7   ar
     7     7     8   ar
     8     8    13    1
     9    13    14    1
    10    14    15    1
    11    15    16    1
    12    16    17    1
    13    17    18    1
    14    17    19    1
    15    17    20    1
    16     8     9   ar
    17     9    23    1
    18    23    24    1
    19    24    25   ar
    20    25    26   ar
    21    26    27    1
    22    26    28   ar
    23    28    29   ar
    24    29    30   ar
    25    30    31    1
    26     6    10   ar
    27    10    32    1
    28    32    33    1
    29    33    34    1
    30    34    35    1
    31    10    11   ar
    32    11    12    2
    33    11     2   ar
    34     9     5   ar
    35    30    24   ar
    36    20    13    1
    37    19    21    1
    38    19    22    1
    39    35    36    1
@<TRIPOS>MOLECULE
*****
 36 39 0 0 0
SMALL
GASTEIGER

@<TRIPOS>ATOM
      1 C          -2.4318  -18.7465   21.6749 C.3     1  UNL1        0.1383
      2 N          -3.9081  -18.9703   21.5310 N.ar    1  UNL1       -0.2455
      3 C          -4.8762  -17.9700   22.0895 C.ar    1  UNL1        0.2816
      4 O          -4.3682  -16.7458   22.7919 O.2     1  UNL1       -0.2652
      5 C          -6.3524  -18.1937   21.9456 C.ar    1  UNL1        0.1342
      6 C          -6.8605  -19.4179   21.2432 C.ar    1  UNL1        0.0871
      7 C          -8.3597  -19.3698   21.2537 C.ar    1  UNL1        0.0515
      8 C          -8.7782  -18.1159   21.9627 C.ar    1  UNL1        0.1142
      9 N          -7.5376  -17.3891   22.3903 N.ar    1  UNL1       -0.3068
     10 N          -5.8923  -20.4183   20.6847 N.ar    1  UNL1       -0.2795
     11 C          -4.4161  -20.1944   20.8286 C.ar    1  UNL1        0.3339
     12 O          -3.4478  -21.1948   20.2701 O.2     1  UNL1       -0.2462
     13 N         -10.1894  -17.6676   22.2020 N.pl3   1  UNL1       -0.2932
     14 C         -10.7876  -16.5868   21.3511 C.3     1  UNL1        0.0922
     15 C         -12.1989  -16.1385   21.5905 C.3     1  UNL1        0.0228
     16 C         -13.0120  -16.7709   22.6808 C.3     1  UNL1        0.0177
     17 C         -12.4139  -17.8517   23.5318 C.3     1  UNL1        0.0575
     18 C         -12.2911  -18.9036   24.5940 C.3     1  UNL1        0.0173
     19 N         -13.7825  -17.7687   24.1401 N.3     1  UNL1       -0.3219
     20 C         -11.0026  -18.3000   23.2924 C.3     1  UNL1        0.1062
     21 H         -14.3274  -17.0556   23.6552 H       1  UNL1        0.1188
     22 H         -13.7017  -17.5225   25.1266 H       1  UNL1        0.1188
     23 C          -7.4906  -16.0863   23.1322 C.3     1  UNL1        0.1350
     24 C          -7.4500  -16.0782   24.6317 C.ar    1  UNL1        0.0132
     25 C          -8.5400  -16.7479   25.4150 C.ar    1  UNL1        0.0281
     26 C          -8.4994  -16.7398   26.9145 C.ar    1  UNL1        0.1399
     27 F          -9.5893  -17.4094   27.6979 F       1  UNL1       -0.2042
     28 C          -7.3688  -16.0621   27.6306 C.ar    1  UNL1        0.0305
     29 C          -6.2790  -15.3925   26.8472 C.ar    1  UNL1        0.0134
     30 C          -6.3195  -15.4005   25.3478 C.ar    1  UNL1        0.0557
     31 CL         -5.2296  -14.7310   24.5644 Cl      1  UNL1       -0.0825
     32 C          -6.4003  -21.6425   19.9823 C.3     1  UNL1        0.1131
     33 C          -6.9859  -21.5287   18.6060 C.3     1  UNL1        0.0563
     34 C          -8.4499  -21.7750   18.3911 C.3     1  UNL1        0.1392
     35 O          -9.0470  -21.6027   17.0259 O.3     1  UNL1       -0.3819
     36 H          -9.0000  -20.6688   16.7680 H       1  UNL1        0.2104
@<TRIPOS>BOND
     1     1     2    1
     2     2     3   ar
     3     3     4    2
     4     3     5   ar
     5     5     6   ar
     6     6     7   ar
     7     7     8   ar
     8     8    13    1
     9    13    14    1
    10    14    15    1
    11    15    16    1
    12    16    17    1
    13    17    18    1
    14    17    19    1
    15    17    20    1
    16     8     9   ar
    17     9    23    1
    18    23    24    1
    19    24    25   ar
    20    25    26   ar
    21    26    27    1
    22    26    28   ar
    23    28    29   ar
    24    29    30   ar
    25    30    31    1
    26     6    10   ar
    27    10    32    1
    28    32    33    1
    29    33    34    1
    30    34    35    1
    31    10    11   ar
    32    11    12    2
    33    11     2   ar
    34     9     5   ar
    35    30    24   ar
    36    20    13    1
    37    19    21    1
    38    19    22    1
    39    35    36    1
@<TRIPOS>MOLECULE
*****
 36 39 0 0 0
SMALL
GASTEIGER

@<TRIPOS>ATOM
      1 C           4.0464   -0.8450   28.6282 C.3     1  UNL1        0.1383
      2 N           4.6508   -1.4785   27.4102 N.ar    1  UNL1       -0.2455
      3 C           4.0717   -1.2004   26.0547 C.ar    1  UNL1        0.2816
      4 O           2.8885   -0.2889   25.9172 O.2     1  UNL1       -0.2652
      5 C           4.6760   -1.8339   24.8367 C.ar    1  UNL1        0.1342
      6 C           5.8593   -2.7455   24.9741 C.ar    1  UNL1        0.0871
      7 C           6.2389   -3.2223   23.6035 C.ar    1  UNL1        0.0515
      8 C           5.2901   -2.6055   22.6190 C.ar    1  UNL1        0.1142
      9 N           4.3242   -1.7474   23.3811 N.ar    1  UNL1       -0.3068
     10 N           6.4383   -3.0236   26.3296 N.ar    1  UNL1       -0.2795
     11 C           5.8340   -2.3900   27.5477 C.ar    1  UNL1        0.3339
     12 O           6.4130   -2.6681   28.9033 O.2     1  UNL1       -0.2462
     13 N           5.3047   -2.8107   21.1331 N.pl3   1  UNL1       -0.2932
     14 C           4.3945   -3.8254   20.5072 C.3     1  UNL1        0.0922
     15 C           4.4092   -4.0305   19.0213 C.3     1  UNL1        0.0228
     16 C           5.3339   -3.2210   18.1614 C.3     1  UNL1        0.0177
     17 C           6.2441   -2.2062   18.7874 C.3     1  UNL1        0.0575
     18 C           7.2849   -1.1334   18.9124 C.3     1  UNL1        0.0173
     19 N           6.6202   -2.0388   17.3450 N.3     1  UNL1       -0.3219
     20 C           6.2295   -2.0011   20.2733 C.3     1  UNL1        0.1062
     21 H           6.0704   -2.6803   16.7736 H       1  UNL1        0.1188
     22 H           7.6125   -2.2430   17.2264 H       1  UNL1        0.1188
     23 C           3.2034   -0.9439   22.7911 C.3     1  UNL1        0.1350
     24 C           3.4363   -0.1265   21.5552 C.ar    1  UNL1        0.0132
     25 C           2.7802   -0.5160   20.2637 C.ar    1  UNL1        0.0281
     26 C           3.0131    0.3015   19.0278 C.ar    1  UNL1        0.1399
     27 F           2.3570   -0.0880   17.7363 F       1  UNL1       -0.2042
     28 C           3.9021    1.5085   19.0832 C.ar    1  UNL1        0.0305
     29 C           4.5581    1.8979   20.3746 C.ar    1  UNL1        0.0134
     30 C           4.3253    1.0805   21.6106 C.ar    1  UNL1        0.0557
     31 CL          4.9813    1.4700   22.9020 Cl      1  UNL1       -0.0825
     32 C           7.6217   -3.9351   26.4672 C.3     1  UNL1        0.1131
     33 C           7.4472   -5.4177   26.3209 C.3     1  UNL1        0.0563
     34 C           6.8052   -6.2096   27.4213 C.3     1  UNL1        0.1392
     35 O           5.4036   -5.8943   27.8528 O.3     1  UNL1       -0.3819
     36 H           5.3796   -5.0111   28.2531 H       1  UNL1        0.2104
@<TRIPOS>BOND
     1     1     2    1
     2     2     3   ar
     3     3     4    2
     4     3     5   ar
     5     5     6   ar
     6     6     7   ar
     7     7     8   ar
     8     8    13    1
     9    13    14    1
    10    14    15    1
    11    15    16    1
    12    16    17    1
    13    17    18    1
    14    17    19    1
    15    17    20    1
    16     8     9   ar
    17     9    23    1
    18    23    24    1
    19    24    25   ar
    20    25    26   ar
    21    26    27    1
    22    26    28   ar
    23    28    29   ar
    24    29    30   ar
    25    30    31    1
    26     6    10   ar
    27    10    32    1
    28    32    33    1
    29    33    34    1
    30    34    35    1
    31    10    11   ar
    32    11    12    2
    33    11     2   ar
    34     9     5   ar
    35    30    24   ar
    36    20    13    1
    37    19    21    1
    38    19    22    1
    39    35    36    1
@<TRIPOS>MOLECULE
*****
 36 39 0 0 0
SMALL
GASTEIGER

@<TRIPOS>ATOM
      1 C           6.5948   -2.9554   29.1116 C.3     1  UNL1        0.1383
      2 N           6.7828   -3.4224   27.6985 N.ar    1  UNL1       -0.2455
      3 C           5.9748   -2.8105   26.5928 C.ar    1  UNL1        0.2816
      4 O           4.9789   -1.7316   26.9001 O.2     1  UNL1       -0.2652
      5 C           6.1627   -3.2774   25.1798 C.ar    1  UNL1        0.1342
      6 C           7.1585   -4.3562   24.8725 C.ar    1  UNL1        0.0871
      7 C           7.1258   -4.6100   23.3945 C.ar    1  UNL1        0.0515
      8 C           6.1097   -3.6880   22.7883 C.ar    1  UNL1        0.1142
      9 N           5.5145   -2.8644   23.8916 N.ar    1  UNL1       -0.3068
     10 N           7.9665   -4.9682   25.9782 N.ar    1  UNL1       -0.2795
     11 C           7.7785   -4.5012   27.3913 C.ar    1  UNL1        0.3339
     12 O           8.5866   -5.1131   28.4972 O.2     1  UNL1       -0.2462
     13 N           5.7517   -3.6043   21.3340 N.pl3   1  UNL1       -0.2932
     14 C           4.5179   -4.2887   20.8248 C.3     1  UNL1        0.0922
     15 C           4.1600   -4.2049   19.3705 C.3     1  UNL1        0.0228
     16 C           5.0357   -3.4368   18.4255 C.3     1  UNL1        0.0177
     17 C           6.2695   -2.7524   18.9348 C.3     1  UNL1        0.0575
     18 C           7.5311   -1.9411   18.9396 C.3     1  UNL1        0.0173
     19 N           6.3497   -2.3869   17.4822 N.3     1  UNL1       -0.3219
     20 C           6.6275   -2.8362   20.3891 C.3     1  UNL1        0.1062
     21 H           5.5556   -2.7909   16.9856 H       1  UNL1        0.1188
     22 H           7.2176   -2.7496   17.0878 H       1  UNL1        0.1188
     23 C           4.4567   -1.8125   23.7344 C.3     1  UNL1        0.1350
     24 C           4.3422   -1.0506   22.4475 C.ar    1  UNL1        0.0132
     25 C           3.1608   -1.2686   21.5493 C.ar    1  UNL1        0.0281
     26 C           3.0463   -0.5066   20.2624 C.ar    1  UNL1        0.1399
     27 F           1.8648   -0.7247   19.3642 F       1  UNL1       -0.2042
     28 C           4.1133    0.4734   19.8735 C.ar    1  UNL1        0.0305
     29 C           5.2946    0.6915   20.7716 C.ar    1  UNL1        0.0134
     30 C           5.4092   -0.0705   22.0586 C.ar    1  UNL1        0.0557
     31 CL          6.5906    0.1476   22.9567 Cl      1  UNL1       -0.0825
     32 C           8.9624   -6.0470   25.6710 C.3     1  UNL1        0.1131
     33 C           8.5043   -7.4659   25.5074 C.3     1  UNL1        0.0563
     34 C           7.8522   -8.1805   26.6537 C.3     1  UNL1        0.1392
     35 O           6.4919   -8.7888   26.4821 O.3     1  UNL1       -0.3819
     36 H           5.8394   -8.0859   26.3367 H       1  UNL1        0.2104
@<TRIPOS>BOND
     1     1     2    1
     2     2     3   ar
     3     3     4    2
     4     3     5   ar
     5     5     6   ar
     6     6     7   ar
     7     7     8   ar
     8     8    13    1
     9    13    14    1
    10    14    15    1
    11    15    16    1
    12    16    17    1
    13    17    18    1
    14    17    19    1
    15    17    20    1
    16     8     9   ar
    17     9    23    1
    18    23    24    1
    19    24    25   ar
    20    25    26   ar
    21    26    27    1
    22    26    28   ar
    23    28    29   ar
    24    29    30   ar
    25    30    31    1
    26     6    10   ar
    27    10    32    1
    28    32    33    1
    29    33    34    1
    30    34    35    1
    31    10    11   ar
    32    11    12    2
    33    11     2   ar
    34     9     5   ar
    35    30    24   ar
    36    20    13    1
    37    19    21    1
    38    19    22    1
    39    35    36    1
@<TRIPOS>MOLECULE
*****
 36 39 0 0 0
SMALL
GASTEIGER

@<TRIPOS>ATOM
      1 C          -0.6557    3.1625   18.4722 C.3     1  UNL1        0.1383
      2 N          -0.1484    2.5261   19.7323 N.ar    1  UNL1       -0.2455
      3 C          -0.4150    3.1732   21.0591 C.ar    1  UNL1        0.2816
      4 O          -1.1888    4.4565   21.1257 O.2     1  UNL1       -0.2652
      5 C           0.0922    2.5369   22.3192 C.ar    1  UNL1        0.1342
      6 C           0.8660    1.2536   22.2526 C.ar    1  UNL1        0.0871
      7 C           1.2372    0.8629   23.6524 C.ar    1  UNL1        0.0515
      8 C           0.6929    1.9047   24.5842 C.ar    1  UNL1        0.1142
      9 N          -0.0148    2.9393   23.7602 N.ar    1  UNL1       -0.3068
     10 N           1.1325    0.6066   20.9258 N.ar    1  UNL1       -0.2795
     11 C           0.6253    1.2429   19.6657 C.ar    1  UNL1        0.3339
     12 O           0.8919    0.5959   18.3388 O.2     1  UNL1       -0.2462
     13 N           0.8318    1.9110   26.0777 N.pl3   1  UNL1       -0.2932
     14 C           1.8922    2.7486   26.7288 C.3     1  UNL1        0.0922
     15 C           2.0311    2.7547   28.2224 C.3     1  UNL1        0.0228
     16 C           1.1096    1.9233   29.0648 C.3     1  UNL1        0.0177
     17 C           0.0492    1.0857   28.4137 C.3     1  UNL1        0.0575
     18 C          -1.1017    0.1357   28.2631 C.3     1  UNL1        0.0173
     19 N          -0.2116    0.7620   29.8549 N.3     1  UNL1       -0.3219
     20 C          -0.0896    1.0796   26.9201 C.3     1  UNL1        0.1062
     21 H           0.4491    1.2705   30.4426 H       1  UNL1        0.1188
     22 H          -0.0977   -0.2406   30.0042 H       1  UNL1        0.1188
     23 C          -0.7077    4.1617   24.2852 C.3     1  UNL1        0.1350
     24 C          -2.1260    4.0719   24.7650 C.ar    1  UNL1        0.0132
     25 C          -3.2309    3.7886   23.7907 C.ar    1  UNL1        0.0281
     26 C          -4.6492    3.6988   24.2705 C.ar    1  UNL1        0.1399
     27 F          -5.7540    3.4156   23.2963 F       1  UNL1       -0.2042
     28 C          -4.9628    3.8923   25.7247 C.ar    1  UNL1        0.0305
     29 C          -3.8580    4.1756   26.6988 C.ar    1  UNL1        0.0134
     30 C          -2.4396    4.2654   26.2191 C.ar    1  UNL1        0.0557
     31 CL         -1.3349    4.5486   27.1933 Cl      1  UNL1       -0.0825
     32 C           1.9063   -0.6768   20.8591 C.3     1  UNL1        0.1131
     33 C           3.4060   -0.6485   20.8478 C.3     1  UNL1        0.0563
     34 C           4.1448   -0.5670   19.5449 C.3     1  UNL1        0.1392
     35 O           3.4198   -0.8123   18.2549 O.3     1  UNL1       -0.3819
     36 H           3.1282   -1.7367   18.2186 H       1  UNL1        0.2104
@<TRIPOS>BOND
     1     1     2    1
     2     2     3   ar
     3     3     4    2
     4     3     5   ar
     5     5     6   ar
     6     6     7   ar
     7     7     8   ar
     8     8    13    1
     9    13    14    1
    10    14    15    1
    11    15    16    1
    12    16    17    1
    13    17    18    1
    14    17    19    1
    15    17    20    1
    16     8     9   ar
    17     9    23    1
    18    23    24    1
    19    24    25   ar
    20    25    26   ar
    21    26    27    1
    22    26    28   ar
    23    28    29   ar
    24    29    30   ar
    25    30    31    1
    26     6    10   ar
    27    10    32    1
    28    32    33    1
    29    33    34    1
    30    34    35    1
    31    10    11   ar
    32    11    12    2
    33    11     2   ar
    34     9     5   ar
    35    30    24   ar
    36    20    13    1
    37    19    21    1
    38    19    22    1
    39    35    36    1
@<TRIPOS>MOLECULE
*****
 36 39 0 0 0
SMALL
GASTEIGER

@<TRIPOS>ATOM
      1 C           8.6345   -8.0390   25.5930 C.3     1  UNL1        0.1383
      2 N           7.9679   -6.6985   25.4994 N.ar    1  UNL1       -0.2455
      3 C           7.8562   -6.0075   24.1727 C.ar    1  UNL1        0.2816
      4 O           8.4111   -6.6570   22.9397 O.2     1  UNL1       -0.2652
      5 C           7.1896   -4.6670   24.0790 C.ar    1  UNL1        0.1342
      6 C           6.6348   -4.0175   25.3120 C.ar    1  UNL1        0.0871
      7 C           6.0359   -2.7013   24.9131 C.ar    1  UNL1        0.0515
      8 C           6.2207   -2.5374   23.4336 C.ar    1  UNL1        0.1142
      9 N           6.9337   -3.7523   22.9181 N.ar    1  UNL1       -0.3068
     10 N           6.7465   -4.7085   26.6387 N.ar    1  UNL1       -0.2795
     11 C           7.4131   -6.0490   26.7323 C.ar    1  UNL1        0.3339
     12 O           7.5248   -6.7400   28.0590 O.2     1  UNL1       -0.2462
     13 N           5.7714   -1.3646   22.6136 N.pl3   1  UNL1       -0.2932
     14 C           6.7008   -0.2098   22.3840 C.3     1  UNL1        0.0922
     15 C           6.2513    0.9631   21.5639 C.3     1  UNL1        0.0228
     16 C           4.8726    0.9811   20.9734 C.3     1  UNL1        0.0177
     17 C           3.9432   -0.1736   21.2029 C.3     1  UNL1        0.0575
     18 C           2.7089   -1.0236   21.1401 C.3     1  UNL1        0.0173
     19 N           3.0651    0.7040   20.3611 N.3     1  UNL1       -0.3219
     20 C           4.3926   -1.3465   22.0230 C.3     1  UNL1        0.1062
     21 H           3.5704    1.5555   20.1160 H       1  UNL1        0.1188
     22 H           2.2243    0.9465   20.8850 H       1  UNL1        0.1188
     23 C           7.3225   -4.0075   21.4920 C.3     1  UNL1        0.1350
     24 C           6.3971   -3.6116   20.3800 C.ar    1  UNL1        0.0132
     25 C           5.0648   -4.2859   20.2370 C.ar    1  UNL1        0.0281
     26 C           4.1393   -3.8899   19.1249 C.ar    1  UNL1        0.1399
     27 F           2.8071   -4.5643   18.9819 F       1  UNL1       -0.2042
     28 C           4.5461   -2.8196   18.1558 C.ar    1  UNL1        0.0305
     29 C           5.8782   -2.1453   18.2988 C.ar    1  UNL1        0.0134
     30 C           6.8038   -2.5412   19.4109 C.ar    1  UNL1        0.0557
     31 CL          8.1359   -1.8669   19.5539 Cl      1  UNL1       -0.0825
     32 C           6.1916   -4.0590   27.8717 C.3     1  UNL1        0.1131
     33 C           7.1211   -3.5186   28.9176 C.3     1  UNL1        0.0563
     34 C           7.0880   -4.0750   30.3102 C.3     1  UNL1        0.1392
     35 O           6.5360   -5.4478   30.5564 O.3     1  UNL1       -0.3819
     36 H           5.5870   -5.4555   30.3559 H       1  UNL1        0.2104
@<TRIPOS>BOND
     1     1     2    1
     2     2     3   ar
     3     3     4    2
     4     3     5   ar
     5     5     6   ar
     6     6     7   ar
     7     7     8   ar
     8     8    13    1
     9    13    14    1
    10    14    15    1
    11    15    16    1
    12    16    17    1
    13    17    18    1
    14    17    19    1
    15    17    20    1
    16     8     9   ar
    17     9    23    1
    18    23    24    1
    19    24    25   ar
    20    25    26   ar
    21    26    27    1
    22    26    28   ar
    23    28    29   ar
    24    29    30   ar
    25    30    31    1
    26     6    10   ar
    27    10    32    1
    28    32    33    1
    29    33    34    1
    30    34    35    1
    31    10    11   ar
    32    11    12    2
    33    11     2   ar
    34     9     5   ar
    35    30    24   ar
    36    20    13    1
    37    19    21    1
    38    19    22    1
    39    35    36    1
@<TRIPOS>MOLECULE
*****
 36 39 0 0 0
SMALL
GASTEIGER

@<TRIPOS>ATOM
      1 C           1.7656    1.1848   22.9050 C.3     1  UNL1        0.1383
      2 N           2.7847    0.3495   23.6219 N.ar    1  UNL1       -0.2455
      3 C           3.2920   -0.9157   22.9957 C.ar    1  UNL1        0.2816
      4 O           2.7802   -1.3455   21.6528 O.2     1  UNL1       -0.2652
      5 C           4.3110   -1.7510   23.7124 C.ar    1  UNL1        0.1342
      6 C           4.8228   -1.3212   25.0553 C.ar    1  UNL1        0.0871
      7 C           5.8191   -2.3417   25.5201 C.ar    1  UNL1        0.0515
      8 C           5.9230   -3.4022   24.4644 C.ar    1  UNL1        0.1142
      9 N           4.9910   -3.0372   23.3472 N.ar    1  UNL1       -0.3068
     10 N           4.3155   -0.0561   25.6815 N.ar    1  UNL1       -0.2795
     11 C           3.2964    0.7793   24.9647 C.ar    1  UNL1        0.3339
     12 O           2.7891    2.0445   25.5909 O.2     1  UNL1       -0.2462
     13 N           6.8043   -4.6149   24.5167 N.pl3   1  UNL1       -0.2932
     14 C           6.8291   -5.4715   25.7478 C.3     1  UNL1        0.0922
     15 C           7.7104   -6.6842   25.8000 C.3     1  UNL1        0.0228
     16 C           8.5668   -7.0404   24.6212 C.3     1  UNL1        0.0177
     17 C           8.5420   -6.1838   23.3900 C.3     1  UNL1        0.0575
     18 C           8.8617   -5.6888   22.0107 C.3     1  UNL1        0.0173
     19 N           9.5343   -7.2246   22.9632 N.3     1  UNL1       -0.3219
     20 C           7.6607   -4.9711   23.3378 C.3     1  UNL1        0.1062
     21 H           9.6632   -7.9005   23.7162 H       1  UNL1        0.1188
     22 H          10.4262   -6.7774   22.7514 H       1  UNL1        0.1188
     23 C           4.7766   -3.8207   22.0862 C.3     1  UNL1        0.1350
     24 C           5.3656   -3.3379   20.7940 C.ar    1  UNL1        0.0132
     25 C           6.6070   -2.4959   20.8038 C.ar    1  UNL1        0.0281
     26 C           7.1960   -2.0130   19.5115 C.ar    1  UNL1        0.1399
     27 F           8.4373   -1.1710   19.5213 F       1  UNL1       -0.2042
     28 C           6.5436   -2.3723   18.2094 C.ar    1  UNL1        0.0305
     29 C           5.3024   -3.2142   18.1996 C.ar    1  UNL1        0.0134
     30 C           4.7133   -3.6971   19.4918 C.ar    1  UNL1        0.0557
     31 CL          3.4720   -4.5391   19.4820 Cl      1  UNL1       -0.0825
     32 C           4.8273    0.3738   27.0244 C.3     1  UNL1        0.1131
     33 C           3.9595    0.2285   28.2393 C.3     1  UNL1        0.0563
     34 C           2.8396   -0.7694   28.2460 C.3     1  UNL1        0.1392
     35 O           2.0395   -0.9903   29.4954 O.3     1  UNL1       -0.3819
     36 H           2.6076   -1.3793   30.1787 H       1  UNL1        0.2104
@<TRIPOS>BOND
     1     1     2    1
     2     2     3   ar
     3     3     4    2
     4     3     5   ar
     5     5     6   ar
     6     6     7   ar
     7     7     8   ar
     8     8    13    1
     9    13    14    1
    10    14    15    1
    11    15    16    1
    12    16    17    1
    13    17    18    1
    14    17    19    1
    15    17    20    1
    16     8     9   ar
    17     9    23    1
    18    23    24    1
    19    24    25   ar
    20    25    26   ar
    21    26    27    1
    22    26    28   ar
    23    28    29   ar
    24    29    30   ar
    25    30    31    1
    26     6    10   ar
    27    10    32    1
    28    32    33    1
    29    33    34    1
    30    34    35    1
    31    10    11   ar
    32    11    12    2
    33    11     2   ar
    34     9     5   ar
    35    30    24   ar
    36    20    13    1
    37    19    21    1
    38    19    22    1
    39    35    36    1
@<TRIPOS>MOLECULE
*****
 36 39 0 0 0
SMALL
GASTEIGER

@<TRIPOS>ATOM
      1 C          -2.7352    4.1971   20.1148 C.3     1  UNL1        0.1383
      2 N          -2.7627    3.9550   21.5949 N.ar    1  UNL1       -0.2455
      3 C          -1.4786    3.7806   22.3503 C.ar    1  UNL1        0.2816
      4 O          -0.1670    3.8483   21.6256 O.2     1  UNL1       -0.2652
      5 C          -1.5060    3.5386   23.8304 C.ar    1  UNL1        0.1342
      6 C          -2.8176    3.4709   24.5551 C.ar    1  UNL1        0.0871
      7 C          -2.5329    3.2213   26.0065 C.ar    1  UNL1        0.0515
      8 C          -1.0453    3.1348   26.1788 C.ar    1  UNL1        0.1142
      9 N          -0.4107    3.3308   24.8339 N.ar    1  UNL1       -0.3068
     10 N          -4.1017    3.6453   23.7997 N.ar    1  UNL1       -0.2795
     11 C          -4.0742    3.8873   22.3196 C.ar    1  UNL1        0.3339
     12 O          -5.3584    4.0617   21.5641 O.2     1  UNL1       -0.2462
     13 N          -0.3198    2.8943   27.4695 N.pl3   1  UNL1       -0.2932
     14 C           0.2498    4.0508   28.2364 C.3     1  UNL1        0.0922
     15 C           0.9753    3.8103   29.5270 C.3     1  UNL1        0.0228
     16 C           1.1313    2.4134   30.0508 C.3     1  UNL1        0.0177
     17 C           0.5618    1.2569   29.2839 C.3     1  UNL1        0.0575
     18 C           0.2007   -0.1531   28.9214 C.3     1  UNL1        0.0173
     19 N           1.1619    0.5267   30.4486 N.3     1  UNL1       -0.3219
     20 C          -0.1638    1.4974   27.9932 C.3     1  UNL1        0.1062
     21 H           1.6009    1.1966   31.0802 H       1  UNL1        0.1188
     22 H           1.8632   -0.1328   30.1117 H       1  UNL1        0.1188
     23 C           1.0609    3.3209   24.5436 C.3     1  UNL1        0.1350
     24 C           1.7700    2.0204   24.3074 C.ar    1  UNL1        0.0132
     25 C           1.5315    1.2556   23.0392 C.ar    1  UNL1        0.0281
     26 C           2.2405   -0.0450   22.8030 C.ar    1  UNL1        0.1399
     27 F           2.0020   -0.8097   21.5349 F       1  UNL1       -0.2042
     28 C           3.1881   -0.5808   23.8351 C.ar    1  UNL1        0.0305
     29 C           3.4266    0.1839   25.1032 C.ar    1  UNL1        0.0134
     30 C           2.7176    1.4845   25.3394 C.ar    1  UNL1        0.0557
     31 CL          2.9561    2.2493   26.6075 Cl      1  UNL1       -0.0825
     32 C          -5.4134    3.5776   24.5244 C.3     1  UNL1        0.1131
     33 C          -6.2498    4.8132   24.6781 C.3     1  UNL1        0.0563
     34 C          -7.6457    4.8469   24.1302 C.3     1  UNL1        0.1392
     35 O          -8.0417    3.9096   23.0280 O.3     1  UNL1       -0.3819
     36 H          -7.5462    4.1290   22.2235 H       1  UNL1        0.2104
@<TRIPOS>BOND
     1     1     2    1
     2     2     3   ar
     3     3     4    2
     4     3     5   ar
     5     5     6   ar
     6     6     7   ar
     7     7     8   ar
     8     8    13    1
     9    13    14    1
    10    14    15    1
    11    15    16    1
    12    16    17    1
    13    17    18    1
    14    17    19    1
    15    17    20    1
    16     8     9   ar
    17     9    23    1
    18    23    24    1
    19    24    25   ar
    20    25    26   ar
    21    26    27    1
    22    26    28   ar
    23    28    29   ar
    24    29    30   ar
    25    30    31    1
    26     6    10   ar
    27    10    32    1
    28    32    33    1
    29    33    34    1
    30    34    35    1
    31    10    11   ar
    32    11    12    2
    33    11     2   ar
    34     9     5   ar
    35    30    24   ar
    36    20    13    1
    37    19    21    1
    38    19    22    1
    39    35    36    1
@<TRIPOS>MOLECULE
*****
 36 39 0 0 0
SMALL
GASTEIGER

@<TRIPOS>ATOM
      1 C          -1.6198    3.3698   22.0922 C.3     1  UNL1        0.1383
      2 N          -0.3529    2.7166   22.5596 N.ar    1  UNL1       -0.2455
      3 C           0.2470    1.5921   21.7687 C.ar    1  UNL1        0.2816
      4 O          -0.4199    1.1208   20.5105 O.2     1  UNL1       -0.2652
      5 C           1.5139    0.9389   22.2360 C.ar    1  UNL1        0.1342
      6 C           2.1808    1.4102   23.4942 C.ar    1  UNL1        0.0871
      7 C           3.4119    0.5797   23.7054 C.ar    1  UNL1        0.0515
      8 C           3.5059   -0.4049   22.5777 C.ar    1  UNL1        0.1142
      9 N           2.3328   -0.1829   21.6696 N.ar    1  UNL1       -0.3068
     10 N           1.5809    2.5347   24.2851 N.ar    1  UNL1       -0.2795
     11 C           0.3140    3.1879   23.8177 C.ar    1  UNL1        0.3339
     12 O          -0.2860    4.3125   24.6087 O.2     1  UNL1       -0.2462
     13 N           4.5837   -1.4313   22.3909 N.pl3   1  UNL1       -0.2932
     14 C           4.3916   -2.8242   22.9133 C.3     1  UNL1        0.0922
     15 C           5.4695   -3.8505   22.7265 C.3     1  UNL1        0.0228
     16 C           6.7393   -3.4840   22.0172 C.3     1  UNL1        0.0177
     17 C           6.9314   -2.0912   21.4947 C.3     1  UNL1        0.0575
     18 C           7.5755   -0.9126   20.8268 C.3     1  UNL1        0.0173
     19 N           8.2329   -2.7082   21.0759 N.3     1  UNL1       -0.3219
     20 C           5.8535   -1.0648   21.6816 C.3     1  UNL1        0.1062
     21 H           8.2557   -3.6851   21.3684 H       1  UNL1        0.1188
     22 H           9.0044   -2.2042   21.5132 H       1  UNL1        0.1188
     23 C           2.0316   -0.9484   20.4152 C.3     1  UNL1        0.1350
     24 C           3.1525   -1.5138   19.5943 C.ar    1  UNL1        0.0132
     25 C           3.4011   -2.9930   19.5820 C.ar    1  UNL1        0.0281
     26 C           4.5219   -3.5584   18.7611 C.ar    1  UNL1        0.1399
     27 F           4.7705   -5.0376   18.7489 F       1  UNL1       -0.2042
     28 C           5.3943   -2.6445   17.9523 C.ar    1  UNL1        0.0305
     29 C           5.1457   -1.1654   17.9646 C.ar    1  UNL1        0.0134
     30 C           4.0249   -0.5999   18.7855 C.ar    1  UNL1        0.0557
     31 CL          3.7763    0.8792   18.7978 Cl      1  UNL1       -0.0825
     32 C           2.2478    3.0061   25.5434 C.3     1  UNL1        0.1131
     33 C           1.7615    2.5210   26.8769 C.3     1  UNL1        0.0563
     34 C           1.5624    1.0533   27.1141 C.3     1  UNL1        0.1392
     35 O           0.1753    0.4900   27.2073 O.3     1  UNL1       -0.3819
     36 H          -0.2647    0.8431   27.9964 H       1  UNL1        0.2104
@<TRIPOS>BOND
     1     1     2    1
     2     2     3   ar
     3     3     4    2
     4     3     5   ar
     5     5     6   ar
     6     6     7   ar
     7     7     8   ar
     8     8    13    1
     9    13    14    1
    10    14    15    1
    11    15    16    1
    12    16    17    1
    13    17    18    1
    14    17    19    1
    15    17    20    1
    16     8     9   ar
    17     9    23    1
    18    23    24    1
    19    24    25   ar
    20    25    26   ar
    21    26    27    1
    22    26    28   ar
    23    28    29   ar
    24    29    30   ar
    25    30    31    1
    26     6    10   ar
    27    10    32    1
    28    32    33    1
    29    33    34    1
    30    34    35    1
    31    10    11   ar
    32    11    12    2
    33    11     2   ar
    34     9     5   ar
    35    30    24   ar
    36    20    13    1
    37    19    21    1
    38    19    22    1
    39    35    36    1
