@<TRIPOS>MOLECULE
*****
 27 30 0 0 0
SMALL
GASTEIGER

@<TRIPOS>ATOM
      1 C          -5.0753  -17.4716   23.1024 C.3     1  UNL1        0.1686
      2 C          -6.4949  -17.9400   22.9779 C.2     1  UNL1        0.0225
      3 C          -6.9208  -18.7316   21.7770 C.2     1  UNL1        0.0488
      4 N          -5.9273  -19.0547   20.7006 N.pl3   1  UNL1       -0.3128
      5 C          -4.5077  -18.5862   20.8252 C.ar    1  UNL1        0.0501
      6 C          -3.5143  -18.9093   19.7488 C.ar    1  UNL1        0.0545
      7 C          -2.0947  -18.4409   19.8733 C.ar    1  UNL1        0.1776
      8 C          -1.6687  -17.6493   21.0741 C.ar    1  UNL1        0.1763
      9 C          -2.6622  -17.3262   22.1505 C.ar    1  UNL1        0.0398
     10 C          -4.0818  -17.7947   22.0259 C.ar    1  UNL1        0.0258
     11 O          -0.2121  -17.3249   20.9225 O.3     1  UNL1       -0.4346
     12 C           0.2621  -17.9159   19.6280 C.3     1  UNL1        0.4294
     13 O          -0.9014  -18.6056   18.9795 O.3     1  UNL1       -0.4346
     14 H          -6.2069  -19.5742   19.9125 H       1  UNL1        0.1522
     15 C          -8.3403  -19.2000   21.6525 C.ar    1  UNL1        0.0406
     16 C          -9.1318  -19.5302   22.8833 C.ar    1  UNL1        0.0035
     17 C         -10.5514  -19.9986   22.7587 C.ar    1  UNL1        0.0002
     18 C         -11.1794  -20.1369   21.4036 C.ar    1  UNL1        0.0023
     19 C         -10.3879  -19.8068   20.1729 C.ar    1  UNL1        0.0297
     20 C          -8.9684  -19.3383   20.2974 C.ar    1  UNL1        0.1413
     21 F          -8.1770  -19.0082   19.0667 F       1  UNL1       -0.2041
     22 O          -4.6493  -16.6801   24.3032 O.3     1  UNL1       -0.3076
     23 O          -5.6243  -16.1394   26.1079 O.2     1  UNL1       -0.5173
     24 P          -5.4667  -15.5071   24.7568 P.3     1  UNL1        0.2112
     25 O          -5.3091  -14.8747   23.4057 O.co2   1  UNL1       -0.4374
     26 O          -6.2841  -14.3340   25.2104 O.3     1  UNL1       -0.3435
     27 H          -6.5564  -14.4666   26.1319 H       1  UNL1        0.2176
@<TRIPOS>UNITY_ATOM_ATTR
25 1
charge -1
@<TRIPOS>BOND
     1    23    24    2
     2    24    25    1
     3    24    26    1
     4    24    22    1
     5    22     1    1
     6     1     2    1
     7     2     3    2
     8     3    15    1
     9    15    16   ar
    10    16    17   ar
    11    17    18   ar
    12    18    19   ar
    13    19    20   ar
    14    20    21    1
    15     3     4    1
    16     4     5    1
    17     5     6   ar
    18     6     7   ar
    19     7     8   ar
    20     8     9   ar
    21     9    10   ar
    22     8    11    1
    23    11    12    1
    24    12    13    1
    25    10     1    1
    26    20    15   ar
    27    10     5   ar
    28    13     7    1
    29    26    27    1
    30     4    14    1
@<TRIPOS>MOLECULE
*****
 27 30 0 0 0
SMALL
GASTEIGER

@<TRIPOS>ATOM
      1 C          -6.8665  -16.4690   23.7127 C.3     1  UNL1        0.1686
      2 C          -8.3597  -16.5649   23.6076 C.2     1  UNL1        0.0225
      3 C          -8.9854  -17.6533   22.7866 C.2     1  UNL1        0.0488
      4 N          -8.1179  -18.6457   22.0707 N.pl3   1  UNL1       -0.3128
      5 C          -6.6246  -18.5498   22.1759 C.ar    1  UNL1        0.0501
      6 C          -5.7571  -19.5422   21.4600 C.ar    1  UNL1        0.0545
      7 C          -4.2638  -19.4463   21.5651 C.ar    1  UNL1        0.1776
      8 C          -3.6381  -18.3579   22.3860 C.ar    1  UNL1        0.1763
      9 C          -4.5056  -17.3655   23.1019 C.ar    1  UNL1        0.0398
     10 C          -5.9989  -17.4615   22.9968 C.ar    1  UNL1        0.0258
     11 O          -2.1485  -18.5138   22.3043 O.3     1  UNL1       -0.4346
     12 C          -1.8536  -19.6986   21.4329 C.3     1  UNL1        0.4294
     13 O          -3.1609  -20.2749   20.9760 O.3     1  UNL1       -0.4346
     14 H          -8.5285  -19.3601   21.5319 H       1  UNL1        0.1522
     15 C         -10.4786  -17.7492   22.6815 C.ar    1  UNL1        0.0406
     16 C         -11.1601  -17.4437   21.3806 C.ar    1  UNL1        0.0035
     17 C         -12.6533  -17.5397   21.2757 C.ar    1  UNL1        0.0002
     18 C         -13.4650  -17.9410   22.4714 C.ar    1  UNL1        0.0023
     19 C         -12.7836  -18.2465   23.7723 C.ar    1  UNL1        0.0297
     20 C         -11.2904  -18.1506   23.8774 C.ar    1  UNL1        0.1413
     21 F         -10.6089  -18.4560   25.1782 F       1  UNL1       -0.2041
     22 O          -6.2407  -15.3806   24.5336 O.3     1  UNL1       -0.3076
     23 O          -4.9429  -15.8158   26.1542 O.2     1  UNL1       -0.5173
     24 P          -6.3771  -15.3952   26.0273 P.3     1  UNL1        0.2112
     25 O          -7.8114  -14.9745   25.9004 O.co2   1  UNL1       -0.4374
     26 O          -6.5136  -15.4098   27.5210 O.3     1  UNL1       -0.3435
     27 H          -5.6686  -15.6694   27.9204 H       1  UNL1        0.2176
@<TRIPOS>UNITY_ATOM_ATTR
25 1
charge -1
@<TRIPOS>BOND
     1    23    24    2
     2    24    25    1
     3    24    26    1
     4    24    22    1
     5    22     1    1
     6     1     2    1
     7     2     3    2
     8     3    15    1
     9    15    16   ar
    10    16    17   ar
    11    17    18   ar
    12    18    19   ar
    13    19    20   ar
    14    20    21    1
    15     3     4    1
    16     4     5    1
    17     5     6   ar
    18     6     7   ar
    19     7     8   ar
    20     8     9   ar
    21     9    10   ar
    22     8    11    1
    23    11    12    1
    24    12    13    1
    25    10     1    1
    26    20    15   ar
    27    10     5   ar
    28    13     7    1
    29    26    27    1
    30     4    14    1
@<TRIPOS>MOLECULE
*****
 27 30 0 0 0
SMALL
GASTEIGER

@<TRIPOS>ATOM
      1 C          -7.3908  -16.3203   23.8209 C.3     1  UNL1        0.1686
      2 C          -6.0125  -16.8174   23.4998 C.2     1  UNL1        0.0225
      3 C          -5.8208  -17.8692   22.4477 C.2     1  UNL1        0.0488
      4 N          -7.0073  -18.4240   21.7167 N.pl3   1  UNL1       -0.3128
      5 C          -8.3857  -17.9268   22.0379 C.ar    1  UNL1        0.0501
      6 C          -9.5723  -18.4815   21.3069 C.ar    1  UNL1        0.0545
      7 C         -10.9506  -17.9845   21.6281 C.ar    1  UNL1        0.1776
      8 C         -11.1423  -16.9327   22.6802 C.ar    1  UNL1        0.1763
      9 C          -9.9558  -16.3779   23.4111 C.ar    1  UNL1        0.0398
     10 C          -8.5774  -16.8751   23.0899 C.ar    1  UNL1        0.0258
     11 O         -12.6099  -16.6392   22.7803 O.3     1  UNL1       -0.4346
     12 C         -13.3252  -17.5097   21.7900 C.3     1  UNL1        0.4294
     13 O         -12.2997  -18.3411   21.0779 O.3     1  UNL1       -0.4346
     14 H          -6.8815  -19.1143   21.0262 H       1  UNL1        0.1522
     15 C          -4.4425  -18.3663   22.1265 C.ar    1  UNL1        0.0406
     16 C          -3.2438  -17.6958   22.7299 C.ar    1  UNL1        0.0035
     17 C          -1.8656  -18.1930   22.4087 C.ar    1  UNL1        0.0002
     18 C          -1.6858  -19.3605   21.4842 C.ar    1  UNL1        0.0023
     19 C          -2.8844  -20.0309   20.8809 C.ar    1  UNL1        0.0297
     20 C          -4.2627  -19.5338   21.2021 C.ar    1  UNL1        0.1413
     21 F          -5.4612  -20.2042   20.5987 F       1  UNL1       -0.2041
     22 O          -7.5825  -15.2685   24.8731 O.3     1  UNL1       -0.3076
     23 O          -8.3269  -16.3040   26.5682 O.2     1  UNL1       -0.5173
     24 P          -7.0916  -15.5070   26.2702 P.3     1  UNL1        0.2112
     25 O          -5.8563  -14.7099   25.9722 O.co2   1  UNL1       -0.4374
     26 O          -6.6006  -15.7454   27.6674 O.3     1  UNL1       -0.3435
     27 H          -7.2479  -16.2827   28.1503 H       1  UNL1        0.2176
@<TRIPOS>UNITY_ATOM_ATTR
25 1
charge -1
@<TRIPOS>BOND
     1    23    24    2
     2    24    25    1
     3    24    26    1
     4    24    22    1
     5    22     1    1
     6     1     2    1
     7     2     3    2
     8     3    15    1
     9    15    16   ar
    10    16    17   ar
    11    17    18   ar
    12    18    19   ar
    13    19    20   ar
    14    20    21    1
    15     3     4    1
    16     4     5    1
    17     5     6   ar
    18     6     7   ar
    19     7     8   ar
    20     8     9   ar
    21     9    10   ar
    22     8    11    1
    23    11    12    1
    24    12    13    1
    25    10     1    1
    26    20    15   ar
    27    10     5   ar
    28    13     7    1
    29    26    27    1
    30     4    14    1
@<TRIPOS>MOLECULE
*****
 27 30 0 0 0
SMALL
GASTEIGER

@<TRIPOS>ATOM
      1 C          -9.8798  -17.0376   21.6692 C.3     1  UNL1        0.1686
      2 C          -9.3579  -16.3940   22.9196 C.2     1  UNL1        0.0225
      3 C          -8.1043  -16.9101   23.5617 C.2     1  UNL1        0.0488
      4 N          -7.3726  -18.0697   22.9534 N.pl3   1  UNL1       -0.3128
      5 C          -7.8946  -18.7132   21.7030 C.ar    1  UNL1        0.0501
      6 C          -7.1629  -19.8728   21.0947 C.ar    1  UNL1        0.0545
      7 C          -7.6847  -20.5163   19.8443 C.ar    1  UNL1        0.1776
      8 C          -8.9383  -20.0003   19.2022 C.ar    1  UNL1        0.1763
      9 C          -9.6700  -18.8408   19.8105 C.ar    1  UNL1        0.0398
     10 C          -9.1481  -18.1972   21.0609 C.ar    1  UNL1        0.0258
     11 O          -9.2105  -20.8309   17.9832 O.3     1  UNL1       -0.4346
     12 C          -8.1252  -21.8603   17.8719 C.3     1  UNL1        0.4294
     13 O          -7.1822  -21.6659   19.0222 O.3     1  UNL1       -0.4346
     14 H          -6.5499  -18.4084   23.3748 H       1  UNL1        0.1522
     15 C          -7.5824  -16.2666   24.8121 C.ar    1  UNL1        0.0406
     16 C          -8.4637  -16.1517   26.0206 C.ar    1  UNL1        0.0035
     17 C          -7.9417  -15.5082   27.2709 C.ar    1  UNL1        0.0002
     18 C          -6.5387  -14.9795   27.3128 C.ar    1  UNL1        0.0023
     19 C          -5.6574  -15.0943   26.1044 C.ar    1  UNL1        0.0297
     20 C          -6.1793  -15.7378   24.8541 C.ar    1  UNL1        0.1413
     21 F          -5.2981  -15.8526   23.6457 F       1  UNL1       -0.2041
     22 O         -11.1333  -16.5216   21.0271 O.3     1  UNL1       -0.3076
     23 O          -9.8316  -14.9874   20.3549 O.2     1  UNL1       -0.5173
     24 P         -11.0489  -15.6648   19.7988 P.3     1  UNL1        0.2112
     25 O         -12.2663  -16.3423   19.2426 O.co2   1  UNL1       -0.4374
     26 O         -10.9646  -14.8081   18.5704 O.3     1  UNL1       -0.3435
     27 H         -10.2042  -14.2104   18.6447 H       1  UNL1        0.2176
@<TRIPOS>UNITY_ATOM_ATTR
25 1
charge -1
@<TRIPOS>BOND
     1    23    24    2
     2    24    25    1
     3    24    26    1
     4    24    22    1
     5    22     1    1
     6     1     2    1
     7     2     3    2
     8     3    15    1
     9    15    16   ar
    10    16    17   ar
    11    17    18   ar
    12    18    19   ar
    13    19    20   ar
    14    20    21    1
    15     3     4    1
    16     4     5    1
    17     5     6   ar
    18     6     7   ar
    19     7     8   ar
    20     8     9   ar
    21     9    10   ar
    22     8    11    1
    23    11    12    1
    24    12    13    1
    25    10     1    1
    26    20    15   ar
    27    10     5   ar
    28    13     7    1
    29    26    27    1
    30     4    14    1
@<TRIPOS>MOLECULE
*****
 27 30 0 0 0
SMALL
GASTEIGER

@<TRIPOS>ATOM
      1 C         -12.0986   -6.1766   17.9204 C.3     1  UNL1        0.1686
      2 C         -13.0348   -7.3329   18.1108 C.2     1  UNL1        0.0225
      3 C         -14.4779   -7.0839   18.4357 C.2     1  UNL1        0.0488
      4 N         -14.9847   -5.6785   18.5703 N.pl3   1  UNL1       -0.3128
      5 C         -14.0484   -4.5221   18.3799 C.ar    1  UNL1        0.0501
      6 C         -14.5552   -3.1168   18.5144 C.ar    1  UNL1        0.0545
      7 C         -13.6189   -1.9604   18.3241 C.ar    1  UNL1        0.1776
      8 C         -12.1759   -2.2094   17.9992 C.ar    1  UNL1        0.1763
      9 C         -11.6691   -3.6148   17.8646 C.ar    1  UNL1        0.0398
     10 C         -12.6054   -4.7711   18.0550 C.ar    1  UNL1        0.0258
     11 O         -11.4941   -0.8798   17.8681 O.3     1  UNL1       -0.4346
     12 C         -12.5158    0.1910   18.1120 C.3     1  UNL1        0.4294
     13 O         -13.8291   -0.4769   18.3938 O.3     1  UNL1       -0.4346
     14 H         -15.9319   -5.5151   18.7835 H       1  UNL1        0.1522
     15 C         -15.4142   -8.2402   18.6261 C.ar    1  UNL1        0.0406
     16 C         -15.1009   -9.5691   18.0046 C.ar    1  UNL1        0.0035
     17 C         -16.0372  -10.7254   18.1950 C.ar    1  UNL1        0.0002
     18 C         -17.2867  -10.5529   19.0068 C.ar    1  UNL1        0.0023
     19 C         -17.5999   -9.2242   19.6282 C.ar    1  UNL1        0.0297
     20 C         -16.6637   -8.0678   19.4379 C.ar    1  UNL1        0.1413
     21 F         -16.9769   -6.7390   20.0593 F       1  UNL1       -0.2041
     22 O         -10.6555   -6.4256   17.5955 O.3     1  UNL1       -0.3076
     23 O          -9.8850   -8.3974   17.7296 O.2     1  UNL1       -0.5173
     24 P          -9.7830   -7.1594   18.5703 P.3     1  UNL1        0.2112
     25 O          -9.6811   -5.9213   19.4111 O.co2   1  UNL1       -0.4374
     26 O          -8.9106   -7.8931   19.5452 O.3     1  UNL1       -0.3435
     27 H          -8.7847   -8.8061   19.2428 H       1  UNL1        0.2176
@<TRIPOS>UNITY_ATOM_ATTR
25 1
charge -1
@<TRIPOS>BOND
     1    23    24    2
     2    24    25    1
     3    24    26    1
     4    24    22    1
     5    22     1    1
     6     1     2    1
     7     2     3    2
     8     3    15    1
     9    15    16   ar
    10    16    17   ar
    11    17    18   ar
    12    18    19   ar
    13    19    20   ar
    14    20    21    1
    15     3     4    1
    16     4     5    1
    17     5     6   ar
    18     6     7   ar
    19     7     8   ar
    20     8     9   ar
    21     9    10   ar
    22     8    11    1
    23    11    12    1
    24    12    13    1
    25    10     1    1
    26    20    15   ar
    27    10     5   ar
    28    13     7    1
    29    26    27    1
    30     4    14    1
@<TRIPOS>MOLECULE
*****
 27 30 0 0 0
SMALL
GASTEIGER

@<TRIPOS>ATOM
      1 C         -16.1757   -6.8413   19.2491 C.3     1  UNL1        0.1686
      2 C         -14.6852   -6.9269   19.1037 C.2     1  UNL1        0.0225
      3 C         -13.8493   -5.6855   19.2049 C.2     1  UNL1        0.0488
      4 N         -14.5038   -4.3586   19.4514 N.pl3   1  UNL1       -0.3128
      5 C         -15.9944   -4.2730   19.5968 C.ar    1  UNL1        0.0501
      6 C         -16.6489   -2.9461   19.8433 C.ar    1  UNL1        0.0545
      7 C         -18.1394   -2.8604   19.9887 C.ar    1  UNL1        0.1776
      8 C         -18.9753   -4.1018   19.8875 C.ar    1  UNL1        0.1763
      9 C         -18.3208   -5.4287   19.6410 C.ar    1  UNL1        0.0398
     10 C         -16.8303   -5.5143   19.4956 C.ar    1  UNL1        0.0258
     11 O         -20.4115   -3.7098   20.0714 O.3     1  UNL1       -0.4346
     12 C         -20.4631   -2.2262   20.2863 C.3     1  UNL1        0.4294
     13 O         -19.0588   -1.7012   20.2351 O.3     1  UNL1       -0.4346
     14 H         -13.9552   -3.5438   19.5179 H       1  UNL1        0.1522
     15 C         -12.3588   -5.7711   19.0595 C.ar    1  UNL1        0.0406
     16 C         -11.7029   -7.1003   18.8286 C.ar    1  UNL1        0.0035
     17 C         -10.2124   -7.1857   18.6832 C.ar    1  UNL1        0.0002
     18 C          -9.3779   -5.9423   18.7688 C.ar    1  UNL1        0.0023
     19 C         -10.0338   -4.6133   18.9998 C.ar    1  UNL1        0.0297
     20 C         -11.5243   -4.5277   19.1451 C.ar    1  UNL1        0.1413
     21 F         -12.1802   -3.1986   19.3761 F       1  UNL1       -0.2041
     22 O         -17.0117   -8.0827   19.1479 O.3     1  UNL1       -0.3076
     23 O         -16.2163   -9.7571   20.1792 O.2     1  UNL1       -0.5173
     24 P         -16.3811   -9.3801   18.7367 P.3     1  UNL1        0.2112
     25 O         -16.5459   -9.0031   17.2942 O.co2   1  UNL1       -0.4374
     26 O         -15.7505  -10.6775   18.3255 O.3     1  UNL1       -0.3435
     27 H         -15.5141  -11.1870   19.1163 H       1  UNL1        0.2176
@<TRIPOS>UNITY_ATOM_ATTR
25 1
charge -1
@<TRIPOS>BOND
     1    23    24    2
     2    24    25    1
     3    24    26    1
     4    24    22    1
     5    22     1    1
     6     1     2    1
     7     2     3    2
     8     3    15    1
     9    15    16   ar
    10    16    17   ar
    11    17    18   ar
    12    18    19   ar
    13    19    20   ar
    14    20    21    1
    15     3     4    1
    16     4     5    1
    17     5     6   ar
    18     6     7   ar
    19     7     8   ar
    20     8     9   ar
    21     9    10   ar
    22     8    11    1
    23    11    12    1
    24    12    13    1
    25    10     1    1
    26    20    15   ar
    27    10     5   ar
    28    13     7    1
    29    26    27    1
    30     4    14    1
@<TRIPOS>MOLECULE
*****
 27 30 0 0 0
SMALL
GASTEIGER

@<TRIPOS>ATOM
      1 C          -7.3949  -17.2662   23.6022 C.3     1  UNL1        0.1686
      2 C          -8.8751  -17.2458   23.8441 C.2     1  UNL1        0.0225
      3 C          -9.7663  -18.2127   23.1223 C.2     1  UNL1        0.0488
      4 N          -9.1773  -19.2000   22.1588 N.pl3   1  UNL1       -0.3128
      5 C          -7.6970  -19.2203   21.9170 C.ar    1  UNL1        0.0501
      6 C          -7.1080  -20.2075   20.9534 C.ar    1  UNL1        0.0545
      7 C          -5.6278  -20.2279   20.7116 C.ar    1  UNL1        0.1776
      8 C          -4.7365  -19.2610   21.4333 C.ar    1  UNL1        0.1763
      9 C          -5.3255  -18.2738   22.3968 C.ar    1  UNL1        0.0398
     10 C          -6.8058  -18.2534   22.6386 C.ar    1  UNL1        0.0258
     11 O          -3.3249  -19.5155   20.9945 O.3     1  UNL1       -0.4346
     12 C          -3.3437  -20.6396   20.0016 C.3     1  UNL1        0.4294
     13 O          -4.7669  -21.0799   19.8267 O.3     1  UNL1       -0.4346
     14 H          -9.7622  -19.8346   21.6851 H       1  UNL1        0.1522
     15 C         -11.2465  -18.1924   23.3641 C.ar    1  UNL1        0.0406
     16 C         -11.7988  -18.6660   24.6760 C.ar    1  UNL1        0.0035
     17 C         -13.2790  -18.6455   24.9177 C.ar    1  UNL1        0.0002
     18 C         -14.2070  -18.1516   23.8478 C.ar    1  UNL1        0.0023
     19 C         -13.6548  -17.6781   22.5360 C.ar    1  UNL1        0.0297
     20 C         -12.1745  -17.6984   22.2942 C.ar    1  UNL1        0.1413
     21 F         -11.6224  -17.2248   20.9824 F       1  UNL1       -0.2041
     22 O          -6.5036  -16.2993   24.3239 O.3     1  UNL1       -0.3076
     23 O          -6.8647  -14.9557   22.7226 O.2     1  UNL1       -0.5173
     24 P          -5.6675  -15.3263   23.5467 P.3     1  UNL1        0.2112
     25 O          -4.4701  -15.6970   24.3709 O.co2   1  UNL1       -0.4374
     26 O          -4.8312  -14.3534   22.7695 O.3     1  UNL1       -0.3435
     27 H          -5.3809  -13.9177   22.0995 H       1  UNL1        0.2176
@<TRIPOS>UNITY_ATOM_ATTR
25 1
charge -1
@<TRIPOS>BOND
     1    23    24    2
     2    24    25    1
     3    24    26    1
     4    24    22    1
     5    22     1    1
     6     1     2    1
     7     2     3    2
     8     3    15    1
     9    15    16   ar
    10    16    17   ar
    11    17    18   ar
    12    18    19   ar
    13    19    20   ar
    14    20    21    1
    15     3     4    1
    16     4     5    1
    17     5     6   ar
    18     6     7   ar
    19     7     8   ar
    20     8     9   ar
    21     9    10   ar
    22     8    11    1
    23    11    12    1
    24    12    13    1
    25    10     1    1
    26    20    15   ar
    27    10     5   ar
    28    13     7    1
    29    26    27    1
    30     4    14    1
@<TRIPOS>MOLECULE
*****
 27 30 0 0 0
SMALL
GASTEIGER

@<TRIPOS>ATOM
      1 C         -10.1141  -17.3079   21.9384 C.3     1  UNL1        0.1686
      2 C          -9.4129  -16.6223   23.0734 C.2     1  UNL1        0.0225
      3 C          -7.9823  -16.9530   23.3804 C.2     1  UNL1        0.0488
      4 N          -7.2530  -17.9691   22.5526 N.pl3   1  UNL1       -0.3128
      5 C          -7.9543  -18.6547   21.4175 C.ar    1  UNL1        0.0501
      6 C          -7.2249  -19.6709   20.5896 C.ar    1  UNL1        0.0545
      7 C          -7.9261  -20.3565   19.4546 C.ar    1  UNL1        0.1776
      8 C          -9.3567  -20.0259   19.1475 C.ar    1  UNL1        0.1763
      9 C         -10.0860  -19.0097   19.9754 C.ar    1  UNL1        0.0398
     10 C          -9.3847  -18.3242   21.1104 C.ar    1  UNL1        0.0258
     11 O          -9.7833  -20.8582   17.9748 O.3     1  UNL1       -0.4346
     12 C          -8.6165  -21.7032   17.5571 C.3     1  UNL1        0.4294
     13 O          -7.4687  -21.3932   18.4717 O.3     1  UNL1       -0.4346
     14 H          -6.3141  -18.1861   22.7541 H       1  UNL1        0.1522
     15 C          -7.2811  -16.2673   24.5154 C.ar    1  UNL1        0.0406
     16 C          -5.9666  -15.5835   24.2815 C.ar    1  UNL1        0.0035
     17 C          -5.2655  -14.8979   25.4166 C.ar    1  UNL1        0.0002
     18 C          -5.8787  -14.8961   26.7855 C.ar    1  UNL1        0.0023
     19 C          -7.1931  -15.5800   27.0194 C.ar    1  UNL1        0.0297
     20 C          -7.8943  -16.2656   25.8844 C.ar    1  UNL1        0.1413
     21 F          -9.2087  -16.9494   26.1183 F       1  UNL1       -0.2041
     22 O         -11.5446  -16.9773   21.6312 O.3     1  UNL1       -0.3076
     23 O         -12.3194  -18.6876   22.6183 O.2     1  UNL1       -0.5173
     24 P         -12.6076  -17.2162   22.6622 P.3     1  UNL1        0.2112
     25 O         -12.8957  -15.7447   22.7061 O.co2   1  UNL1       -0.4374
     26 O         -13.6706  -17.4550   23.6932 O.3     1  UNL1       -0.3435
     27 H         -13.7241  -18.4036   23.8887 H       1  UNL1        0.2176
@<TRIPOS>UNITY_ATOM_ATTR
25 1
charge -1
@<TRIPOS>BOND
     1    23    24    2
     2    24    25    1
     3    24    26    1
     4    24    22    1
     5    22     1    1
     6     1     2    1
     7     2     3    2
     8     3    15    1
     9    15    16   ar
    10    16    17   ar
    11    17    18   ar
    12    18    19   ar
    13    19    20   ar
    14    20    21    1
    15     3     4    1
    16     4     5    1
    17     5     6   ar
    18     6     7   ar
    19     7     8   ar
    20     8     9   ar
    21     9    10   ar
    22     8    11    1
    23    11    12    1
    24    12    13    1
    25    10     1    1
    26    20    15   ar
    27    10     5   ar
    28    13     7    1
    29    26    27    1
    30     4    14    1
@<TRIPOS>MOLECULE
*****
 27 30 0 0 0
SMALL
GASTEIGER

@<TRIPOS>ATOM
      1 C          -5.5022  -18.6200   21.9607 C.3     1  UNL1        0.1686
      2 C          -6.2932  -17.9956   23.0717 C.2     1  UNL1        0.0225
      3 C          -5.7249  -16.8382   23.8383 C.2     1  UNL1        0.0488
      4 N          -4.3658  -16.3053   23.4939 N.pl3   1  UNL1       -0.3128
      5 C          -3.5748  -16.9298   22.3828 C.ar    1  UNL1        0.0501
      6 C          -2.2156  -16.3968   22.0384 C.ar    1  UNL1        0.0545
      7 C          -1.4246  -17.0213   20.9274 C.ar    1  UNL1        0.1776
      8 C          -1.9928  -18.1786   20.1607 C.ar    1  UNL1        0.1763
      9 C          -3.3520  -18.7115   20.5051 C.ar    1  UNL1        0.0398
     10 C          -4.1430  -18.0871   21.6162 C.ar    1  UNL1        0.0258
     11 O          -0.9878  -18.5865   19.1246 O.3     1  UNL1       -0.4346
     12 C           0.2015  -17.6812   19.2509 C.3     1  UNL1        0.4294
     13 O          -0.0684  -16.7139   20.3651 O.3     1  UNL1       -0.4346
     14 H          -3.9929  -15.5457   23.9971 H       1  UNL1        0.1522
     15 C          -6.5159  -16.2138   24.9494 C.ar    1  UNL1        0.0406
     16 C          -5.8373  -15.8356   26.2326 C.ar    1  UNL1        0.0035
     17 C          -6.6284  -15.2112   27.3436 C.ar    1  UNL1        0.0002
     18 C          -8.0979  -14.9650   27.1715 C.ar    1  UNL1        0.0023
     19 C          -8.7765  -15.3432   25.8883 C.ar    1  UNL1        0.0297
     20 C          -7.9855  -15.9676   24.7773 C.ar    1  UNL1        0.1413
     21 F          -8.6642  -16.3458   23.4942 F       1  UNL1       -0.2041
     22 O          -6.0704  -19.7774   21.1940 O.3     1  UNL1       -0.3076
     23 O          -7.1960  -18.1004   20.5455 O.2     1  UNL1       -0.5173
     24 P          -7.1025  -19.5392   20.1320 P.3     1  UNL1        0.2112
     25 O          -7.0090  -20.9781   19.7185 O.co2   1  UNL1       -0.4374
     26 O          -8.1346  -19.3012   19.0699 O.3     1  UNL1       -0.3435
     27 H          -8.4142  -18.3726   19.0931 H       1  UNL1        0.2176
@<TRIPOS>UNITY_ATOM_ATTR
25 1
charge -1
@<TRIPOS>BOND
     1    23    24    2
     2    24    25    1
     3    24    26    1
     4    24    22    1
     5    22     1    1
     6     1     2    1
     7     2     3    2
     8     3    15    1
     9    15    16   ar
    10    16    17   ar
    11    17    18   ar
    12    18    19   ar
    13    19    20   ar
    14    20    21    1
    15     3     4    1
    16     4     5    1
    17     5     6   ar
    18     6     7   ar
    19     7     8   ar
    20     8     9   ar
    21     9    10   ar
    22     8    11    1
    23    11    12    1
    24    12    13    1
    25    10     1    1
    26    20    15   ar
    27    10     5   ar
    28    13     7    1
    29    26    27    1
    30     4    14    1
