@<TRIPOS>MOLECULE
*****
 23 25 0 0 0
SMALL
GASTEIGER

@<TRIPOS>ATOM
      1 C          -6.4135  -16.4697   23.5420 C.3     1  UNL1        0.1753
      2 O          -4.9589  -16.7236   23.8065 O.3     1  UNL1       -0.3460
      3 C          -4.2476  -17.8302   23.0860 C.3     1  UNL1        0.1685
      4 C          -4.9908  -18.6831   22.1009 C.ar    1  UNL1        0.0067
      5 C          -4.2795  -19.7898   21.3803 C.ar    1  UNL1       -0.0021
      6 C          -5.0226  -20.6426   20.3953 C.ar    1  UNL1       -0.0003
      7 C          -6.4771  -20.3887   20.1308 C.ar    1  UNL1       -0.0002
      8 C          -7.1885  -19.2820   20.8513 C.ar    1  UNL1       -0.0010
      9 C          -6.4453  -18.4292   21.8364 C.ar    1  UNL1        0.0181
     10 C          -7.1566  -17.3225   22.5570 C.3     1  UNL1        0.2161
     11 C          -7.1248  -15.3629   24.2627 C.3     1  UNL1        0.1027
     12 C          -6.3224  -15.3820   26.7336 C.3     1  UNL1        0.0859
     13 N          -6.4628  -14.6738   25.4188 N.3     1  UNL1       -0.2942
     14 H          -5.5208  -14.4277   25.1148 H       1  UNL1        0.1234
     15 O          -8.6111  -17.0686   22.2925 O.3     1  UNL1       -0.4725
     16 C          -9.6559  -17.8209   23.0623 C.ar    1  UNL1        0.1346
     17 C          -9.2602  -18.9806   23.9275 C.ar    1  UNL1        0.0366
     18 C         -10.3049  -19.7329   24.6973 C.ar    1  UNL1        0.0028
     19 C         -11.7454  -19.3255   24.6018 C.ar    1  UNL1       -0.0044
     20 C         -12.1411  -18.1658   23.7367 C.ar    1  UNL1       -0.0229
     21 C         -13.5816  -17.7585   23.6413 C.3     1  UNL1        0.0308
     22 C         -11.0963  -17.4135   22.9668 C.ar    1  UNL1        0.0082
     23 C         -11.4921  -16.2539   22.1017 C.3     1  UNL1        0.0339
@<TRIPOS>BOND
     1    12    13    1
     2    13    11    1
     3     1    11    1
     4     1     2    1
     5     2     3    1
     6     3     4    1
     7     4     5   ar
     8     5     6   ar
     9     6     7   ar
    10     7     8   ar
    11     8     9   ar
    12     9    10    1
    13    10    15    1
    14    15    16    1
    15    16    17   ar
    16    17    18   ar
    17    18    19   ar
    18    19    20   ar
    19    20    21    1
    20    20    22   ar
    21    22    23    1
    22    10     1    1
    23    22    16   ar
    24     9     4   ar
    25    13    14    1
@<TRIPOS>MOLECULE
*****
 23 25 0 0 0
SMALL
GASTEIGER

@<TRIPOS>ATOM
      1 C         -10.1556  -18.0469   20.4296 C.3     1  UNL1        0.1753
      2 O         -10.0105  -19.1614   19.4362 O.3     1  UNL1       -0.3460
      3 C          -8.7352  -19.9484   19.3730 C.3     1  UNL1        0.1685
      4 C          -7.6049  -19.6210   20.3032 C.ar    1  UNL1        0.0067
      5 C          -6.3295  -20.4081   20.2400 C.ar    1  UNL1       -0.0021
      6 C          -5.1993  -20.0807   21.1702 C.ar    1  UNL1       -0.0003
      7 C          -5.3444  -18.9662   22.1636 C.ar    1  UNL1       -0.0002
      8 C          -6.6197  -18.1791   22.2268 C.ar    1  UNL1       -0.0010
      9 C          -7.7500  -18.5065   21.2966 C.ar    1  UNL1        0.0181
     10 C          -9.0254  -17.7195   21.3598 C.3     1  UNL1        0.2161
     11 C         -11.4310  -17.2598   20.4928 C.3     1  UNL1        0.1027
     12 C         -12.5183  -16.0560   22.5221 C.3     1  UNL1        0.0859
     13 N         -12.2805  -17.3062   21.7281 N.3     1  UNL1       -0.2942
     14 H         -13.1965  -17.6524   21.4428 H       1  UNL1        0.1234
     15 O          -9.1705  -16.6050   22.3532 O.3     1  UNL1       -0.4725
     16 C          -9.1441  -16.9024   23.8232 C.ar    1  UNL1        0.1346
     17 C          -9.8888  -18.0878   24.3621 C.ar    1  UNL1        0.0366
     18 C          -9.8624  -18.3852   25.8320 C.ar    1  UNL1        0.0028
     19 C          -9.0914  -17.4972   26.7631 C.ar    1  UNL1       -0.0044
     20 C          -8.3467  -16.3119   26.2243 C.ar    1  UNL1       -0.0229
     21 C          -7.5757  -15.4239   27.1555 C.3     1  UNL1        0.0308
     22 C          -8.3731  -16.0144   24.7543 C.ar    1  UNL1        0.0082
     23 C          -7.6284  -14.8290   24.2155 C.3     1  UNL1        0.0339
@<TRIPOS>BOND
     1    12    13    1
     2    13    11    1
     3     1    11    1
     4     1     2    1
     5     2     3    1
     6     3     4    1
     7     4     5   ar
     8     5     6   ar
     9     6     7   ar
    10     7     8   ar
    11     8     9   ar
    12     9    10    1
    13    10    15    1
    14    15    16    1
    15    16    17   ar
    16    17    18   ar
    17    18    19   ar
    18    19    20   ar
    19    20    21    1
    20    20    22   ar
    21    22    23    1
    22    10     1    1
    23    22    16   ar
    24     9     4   ar
    25    13    14    1
@<TRIPOS>MOLECULE
*****
 23 25 0 0 0
SMALL
GASTEIGER

@<TRIPOS>ATOM
      1 C          -7.2869  -18.5101   22.0028 C.3     1  UNL1        0.1753
      2 O          -7.9198  -19.8179   21.6300 O.3     1  UNL1       -0.3460
      3 C          -9.3822  -19.8767   21.3013 C.3     1  UNL1        0.1685
      4 C         -10.2116  -18.6276   21.3452 C.ar    1  UNL1        0.0067
      5 C         -11.6739  -18.6864   21.0164 C.ar    1  UNL1       -0.0021
      6 C         -12.5032  -17.4373   21.0603 C.ar    1  UNL1       -0.0003
      7 C         -11.8703  -16.1294   21.4330 C.ar    1  UNL1       -0.0002
      8 C         -10.4080  -16.0707   21.7618 C.ar    1  UNL1       -0.0010
      9 C          -9.5786  -17.3197   21.7179 C.ar    1  UNL1        0.0181
     10 C          -8.1162  -17.2610   22.0467 C.3     1  UNL1        0.2161
     11 C          -5.8245  -18.4513   22.3316 C.3     1  UNL1        0.1027
     12 C          -4.5361  -19.8838   20.5886 C.3     1  UNL1        0.0859
     13 N          -4.8047  -18.5580   21.2367 N.3     1  UNL1       -0.2942
     14 H          -5.1007  -17.9226   20.4957 H       1  UNL1        0.1234
     15 O          -7.4833  -15.9532   22.4194 O.3     1  UNL1       -0.4725
     16 C          -6.9590  -15.7427   23.8089 C.ar    1  UNL1        0.1346
     17 C          -5.4921  -15.5221   24.0317 C.ar    1  UNL1        0.0366
     18 C          -4.9679  -15.3116   25.4212 C.ar    1  UNL1        0.0028
     19 C          -5.9105  -15.3217   26.5880 C.ar    1  UNL1       -0.0044
     20 C          -7.3773  -15.5422   26.3653 C.ar    1  UNL1       -0.0229
     21 C          -8.3199  -15.5523   27.5321 C.3     1  UNL1        0.0308
     22 C          -7.9016  -15.7527   24.9757 C.ar    1  UNL1        0.0082
     23 C          -9.3685  -15.9733   24.7530 C.3     1  UNL1        0.0339
@<TRIPOS>BOND
     1    12    13    1
     2    13    11    1
     3     1    11    1
     4     1     2    1
     5     2     3    1
     6     3     4    1
     7     4     5   ar
     8     5     6   ar
     9     6     7   ar
    10     7     8   ar
    11     8     9   ar
    12     9    10    1
    13    10    15    1
    14    15    16    1
    15    16    17   ar
    16    17    18   ar
    17    18    19   ar
    18    19    20   ar
    19    20    21    1
    20    20    22   ar
    21    22    23    1
    22    10     1    1
    23    22    16   ar
    24     9     4   ar
    25    13    14    1
@<TRIPOS>MOLECULE
*****
 23 25 0 0 0
SMALL
GASTEIGER

@<TRIPOS>ATOM
      1 C          -7.3840  -17.3682   23.4272 C.3     1  UNL1        0.1753
      2 O          -6.0729  -16.6399   23.4541 O.3     1  UNL1       -0.3460
      3 C          -4.8969  -17.1842   22.6987 C.3     1  UNL1        0.1685
      4 C          -5.0319  -18.4569   21.9163 C.ar    1  UNL1        0.0067
      5 C          -3.8560  -19.0013   21.1609 C.ar    1  UNL1       -0.0021
      6 C          -3.9910  -20.2739   20.3785 C.ar    1  UNL1       -0.0003
      7 C          -5.3021  -21.0022   20.3516 C.ar    1  UNL1       -0.0002
      8 C          -6.4780  -20.4579   21.1071 C.ar    1  UNL1       -0.0010
      9 C          -6.3430  -19.1852   21.8894 C.ar    1  UNL1        0.0181
     10 C          -7.5190  -18.6408   22.6449 C.3     1  UNL1        0.2161
     11 C          -8.5600  -16.8238   24.1827 C.3     1  UNL1        0.1027
     12 C          -7.9385  -15.5910   26.3835 C.3     1  UNL1        0.0859
     13 N          -8.4249  -15.5512   24.9652 N.3     1  UNL1       -0.2942
     14 H          -7.7780  -14.9553   24.4486 H       1  UNL1        0.1234
     15 O          -8.8301  -19.3692   22.6180 O.3     1  UNL1       -0.4725
     16 C         -10.0779  -18.6519   22.1957 C.ar    1  UNL1        0.1346
     17 C         -10.1377  -17.9745   20.8587 C.ar    1  UNL1        0.0366
     18 C         -11.3856  -17.2573   20.4364 C.ar    1  UNL1        0.0028
     19 C         -12.5737  -17.2174   21.3512 C.ar    1  UNL1       -0.0044
     20 C         -12.5140  -17.8947   22.6882 C.ar    1  UNL1       -0.0229
     21 C         -13.7021  -17.8548   23.6029 C.3     1  UNL1        0.0308
     22 C         -11.2661  -18.6120   23.1105 C.ar    1  UNL1        0.0082
     23 C         -11.2063  -19.2894   24.4475 C.3     1  UNL1        0.0339
@<TRIPOS>BOND
     1    12    13    1
     2    13    11    1
     3     1    11    1
     4     1     2    1
     5     2     3    1
     6     3     4    1
     7     4     5   ar
     8     5     6   ar
     9     6     7   ar
    10     7     8   ar
    11     8     9   ar
    12     9    10    1
    13    10    15    1
    14    15    16    1
    15    16    17   ar
    16    17    18   ar
    17    18    19   ar
    18    19    20   ar
    19    20    21    1
    20    20    22   ar
    21    22    23    1
    22    10     1    1
    23    22    16   ar
    24     9     4   ar
    25    13    14    1
@<TRIPOS>MOLECULE
*****
 23 25 0 0 0
SMALL
GASTEIGER

@<TRIPOS>ATOM
      1 C          -7.6832  -16.0507   22.6244 C.3     1  UNL1        0.1753
      2 O          -8.6840  -15.0739   22.0820 O.3     1  UNL1       -0.3460
      3 C          -9.9453  -15.5710   21.4400 C.3     1  UNL1        0.1685
      4 C         -10.2058  -17.0449   21.3405 C.ar    1  UNL1        0.0067
      5 C         -11.4671  -17.5419   20.6985 C.ar    1  UNL1       -0.0021
      6 C         -11.7275  -19.0157   20.5990 C.ar    1  UNL1       -0.0003
      7 C         -10.7267  -19.9925   21.1414 C.ar    1  UNL1       -0.0002
      8 C          -9.4654  -19.4955   21.7833 C.ar    1  UNL1       -0.0010
      9 C          -9.2050  -18.0217   21.8829 C.ar    1  UNL1        0.0181
     10 C          -7.9437  -17.5246   22.5248 C.3     1  UNL1        0.2161
     11 C          -6.4219  -15.5537   23.2664 C.3     1  UNL1        0.1027
     12 C          -5.8118  -15.1903   25.7654 C.3     1  UNL1        0.0859
     13 N          -6.4920  -14.7226   24.5131 N.3     1  UNL1       -0.2942
     14 H          -6.0925  -13.8126   24.2832 H       1  UNL1        0.1234
     15 O          -6.9429  -18.5014   23.0673 O.3     1  UNL1       -0.4725
     16 C          -5.9198  -19.1112   22.1555 C.ar    1  UNL1        0.1346
     17 C          -6.3489  -20.0544   21.0709 C.ar    1  UNL1        0.0366
     18 C          -5.3258  -20.6642   20.1591 C.ar    1  UNL1        0.0028
     19 C          -3.8736  -20.3308   20.3318 C.ar    1  UNL1       -0.0044
     20 C          -3.4444  -19.3875   21.4163 C.ar    1  UNL1       -0.0229
     21 C          -1.9922  -19.0541   21.5890 C.3     1  UNL1        0.0308
     22 C          -4.4675  -18.7777   22.3281 C.ar    1  UNL1        0.0082
     23 C          -4.0384  -17.8345   23.4126 C.3     1  UNL1        0.0339
@<TRIPOS>BOND
     1    12    13    1
     2    13    11    1
     3     1    11    1
     4     1     2    1
     5     2     3    1
     6     3     4    1
     7     4     5   ar
     8     5     6   ar
     9     6     7   ar
    10     7     8   ar
    11     8     9   ar
    12     9    10    1
    13    10    15    1
    14    15    16    1
    15    16    17   ar
    16    17    18   ar
    17    18    19   ar
    18    19    20   ar
    19    20    21    1
    20    20    22   ar
    21    22    23    1
    22    10     1    1
    23    22    16   ar
    24     9     4   ar
    25    13    14    1
@<TRIPOS>MOLECULE
*****
 23 25 0 0 0
SMALL
GASTEIGER

@<TRIPOS>ATOM
      1 C          -5.2373  -16.6464   23.5145 C.3     1  UNL1        0.1753
      2 O          -3.8090  -16.5925   23.0592 O.3     1  UNL1       -0.3460
      3 C          -3.2885  -17.6209   22.0994 C.3     1  UNL1        0.1685
      4 C          -4.1963  -18.7033   21.5947 C.ar    1  UNL1        0.0067
      5 C          -3.6757  -19.7317   20.6349 C.ar    1  UNL1       -0.0021
      6 C          -4.5835  -20.8140   20.1303 C.ar    1  UNL1       -0.0003
      7 C          -6.0117  -20.8678   20.5855 C.ar    1  UNL1       -0.0002
      8 C          -6.5322  -19.8394   21.5454 C.ar    1  UNL1       -0.0010
      9 C          -5.6245  -18.7571   22.0500 C.ar    1  UNL1        0.0181
     10 C          -6.1450  -17.7286   23.0099 C.3     1  UNL1        0.2161
     11 C          -5.7578  -15.6178   24.4744 C.3     1  UNL1        0.1027
     12 C          -6.4951  -15.6026   26.9655 C.3     1  UNL1        0.0859
     13 N          -5.4138  -15.7098   25.9315 N.3     1  UNL1       -0.2942
     14 H          -4.9617  -16.6135   26.0708 H       1  UNL1        0.1234
     15 O          -7.5732  -17.7825   23.4651 O.3     1  UNL1       -0.4725
     16 C          -8.6565  -17.1995   22.6068 C.ar    1  UNL1        0.1346
     17 C          -8.4769  -15.8439   21.9901 C.ar    1  UNL1        0.0366
     18 C          -9.5601  -15.2610   21.1318 C.ar    1  UNL1        0.0028
     19 C         -10.8230  -16.0335   20.8902 C.ar    1  UNL1       -0.0044
     20 C         -11.0026  -17.3890   21.5069 C.ar    1  UNL1       -0.0229
     21 C         -12.2655  -18.1615   21.2652 C.3     1  UNL1        0.0308
     22 C          -9.9193  -17.9720   22.3652 C.ar    1  UNL1        0.0082
     23 C         -10.0990  -19.3275   22.9819 C.3     1  UNL1        0.0339
@<TRIPOS>BOND
     1    12    13    1
     2    13    11    1
     3     1    11    1
     4     1     2    1
     5     2     3    1
     6     3     4    1
     7     4     5   ar
     8     5     6   ar
     9     6     7   ar
    10     7     8   ar
    11     8     9   ar
    12     9    10    1
    13    10    15    1
    14    15    16    1
    15    16    17   ar
    16    17    18   ar
    17    18    19   ar
    18    19    20   ar
    19    20    21    1
    20    20    22   ar
    21    22    23    1
    22    10     1    1
    23    22    16   ar
    24     9     4   ar
    25    13    14    1
@<TRIPOS>MOLECULE
*****
 23 25 0 0 0
SMALL
GASTEIGER

@<TRIPOS>ATOM
      1 C          -5.8743  -17.0459   23.2689 C.3     1  UNL1        0.1753
      2 O          -4.4594  -16.6800   22.9312 O.3     1  UNL1       -0.3460
      3 C          -3.6590  -17.5514   22.0093 C.3     1  UNL1        0.1685
      4 C          -4.2735  -18.7888   21.4251 C.ar    1  UNL1        0.0067
      5 C          -3.4731  -19.6602   20.5032 C.ar    1  UNL1       -0.0021
      6 C          -4.0876  -20.8976   19.9190 C.ar    1  UNL1       -0.0003
      7 C          -5.5025  -21.2635   20.2567 C.ar    1  UNL1       -0.0002
      8 C          -6.3029  -20.3921   21.1785 C.ar    1  UNL1       -0.0010
      9 C          -5.6884  -19.1547   21.7627 C.ar    1  UNL1        0.0181
     10 C          -6.4889  -18.2832   22.6847 C.3     1  UNL1        0.2161
     11 C          -6.6748  -16.1744   24.1908 C.3     1  UNL1        0.1027
     12 C          -6.3329  -15.4076   26.6494 C.3     1  UNL1        0.0859
     13 N          -5.9775  -15.3061   25.1957 N.3     1  UNL1       -0.2942
     14 H          -4.9811  -15.5113   25.1211 H       1  UNL1        0.1234
     15 O          -7.9038  -18.6491   23.0224 O.3     1  UNL1       -0.4725
     16 C          -9.0162  -18.2896   22.0825 C.ar    1  UNL1        0.1346
     17 C          -9.0578  -18.8859   20.7067 C.ar    1  UNL1        0.0366
     18 C         -10.1702  -18.5264   19.7668 C.ar    1  UNL1        0.0028
     19 C         -11.2409  -17.5706   20.2027 C.ar    1  UNL1       -0.0044
     20 C         -11.1993  -16.9744   21.5784 C.ar    1  UNL1       -0.0229
     21 C         -12.2701  -16.0186   22.0143 C.3     1  UNL1        0.0308
     22 C         -10.0869  -17.3339   22.5184 C.ar    1  UNL1        0.0082
     23 C         -10.0453  -16.7376   23.8941 C.3     1  UNL1        0.0339
@<TRIPOS>BOND
     1    12    13    1
     2    13    11    1
     3     1    11    1
     4     1     2    1
     5     2     3    1
     6     3     4    1
     7     4     5   ar
     8     5     6   ar
     9     6     7   ar
    10     7     8   ar
    11     8     9   ar
    12     9    10    1
    13    10    15    1
    14    15    16    1
    15    16    17   ar
    16    17    18   ar
    17    18    19   ar
    18    19    20   ar
    19    20    21    1
    20    20    22   ar
    21    22    23    1
    22    10     1    1
    23    22    16   ar
    24     9     4   ar
    25    13    14    1
@<TRIPOS>MOLECULE
*****
 23 25 0 0 0
SMALL
GASTEIGER

@<TRIPOS>ATOM
      1 C          -6.6512  -16.7045   23.3669 C.3     1  UNL1        0.1753
      2 O          -5.7043  -15.5477   23.4904 O.3     1  UNL1       -0.3460
      3 C          -4.2544  -15.7257   23.1494 C.3     1  UNL1        0.1685
      4 C          -3.7515  -17.0604   22.6850 C.ar    1  UNL1        0.0067
      5 C          -2.3017  -17.2383   22.3440 C.ar    1  UNL1       -0.0021
      6 C          -1.7988  -18.5730   21.8796 C.ar    1  UNL1       -0.0003
      7 C          -2.7458  -19.7298   21.7562 C.ar    1  UNL1       -0.0002
      8 C          -4.1956  -19.5518   22.0971 C.ar    1  UNL1       -0.0010
      9 C          -4.6985  -18.2171   22.5615 C.ar    1  UNL1        0.0181
     10 C          -6.1484  -18.0391   22.9025 C.3     1  UNL1        0.2161
     11 C          -8.1011  -16.5265   23.7080 C.3     1  UNL1        0.1027
     12 C          -8.2899  -15.4364   26.0587 C.3     1  UNL1        0.0859
     13 N          -8.5319  -15.3840   24.5793 N.3     1  UNL1       -0.2942
     14 H          -8.0541  -14.5524   24.2320 H       1  UNL1        0.1234
     15 O          -7.0953  -19.1959   22.7791 O.3     1  UNL1       -0.4725
     16 C          -7.9992  -19.3013   21.5867 C.ar    1  UNL1        0.1346
     17 C          -7.4146  -19.3975   20.2086 C.ar    1  UNL1        0.0366
     18 C          -8.3184  -19.5029   19.0162 C.ar    1  UNL1        0.0028
     19 C          -9.8069  -19.5121   19.2018 C.ar    1  UNL1       -0.0044
     20 C         -10.3915  -19.4159   20.5798 C.ar    1  UNL1       -0.0229
     21 C         -11.8799  -19.4251   20.7654 C.3     1  UNL1        0.0308
     22 C          -9.4876  -19.3105   21.7723 C.ar    1  UNL1        0.0082
     23 C         -10.0722  -19.2143   23.1503 C.3     1  UNL1        0.0339
@<TRIPOS>BOND
     1    12    13    1
     2    13    11    1
     3     1    11    1
     4     1     2    1
     5     2     3    1
     6     3     4    1
     7     4     5   ar
     8     5     6   ar
     9     6     7   ar
    10     7     8   ar
    11     8     9   ar
    12     9    10    1
    13    10    15    1
    14    15    16    1
    15    16    17   ar
    16    17    18   ar
    17    18    19   ar
    18    19    20   ar
    19    20    21    1
    20    20    22   ar
    21    22    23    1
    22    10     1    1
    23    22    16   ar
    24     9     4   ar
    25    13    14    1
@<TRIPOS>MOLECULE
*****
 23 25 0 0 0
SMALL
GASTEIGER

@<TRIPOS>ATOM
      1 C          -6.6807  -16.7672   23.4049 C.3     1  UNL1        0.1753
      2 O          -8.0045  -16.0620   23.3879 O.3     1  UNL1       -0.3460
      3 C          -9.0850  -16.5177   22.4526 C.3     1  UNL1        0.1685
      4 C          -8.8418  -17.6786   21.5343 C.ar    1  UNL1        0.0067
      5 C          -9.9224  -18.1342   20.5990 C.ar    1  UNL1       -0.0021
      6 C          -9.6791  -19.2951   19.6808 C.ar    1  UNL1       -0.0003
      7 C          -8.3553  -20.0003   19.6978 C.ar    1  UNL1       -0.0002
      8 C          -7.2748  -19.5446   20.6330 C.ar    1  UNL1       -0.0010
      9 C          -7.5180  -18.3838   21.5513 C.ar    1  UNL1        0.0181
     10 C          -6.4375  -17.9281   22.4866 C.3     1  UNL1        0.2161
     11 C          -5.6001  -16.3115   24.3402 C.3     1  UNL1        0.1027
     12 C          -6.1960  -15.2692   26.6441 C.3     1  UNL1        0.0859
     13 N          -5.8152  -15.1034   25.2028 N.3     1  UNL1       -0.2942
     14 H          -4.9447  -14.5720   25.1875 H       1  UNL1        0.1234
     15 O          -5.1137  -18.6333   22.5036 O.3     1  UNL1       -0.4725
     16 C          -3.9121  -17.9881   21.8791 C.ar    1  UNL1        0.1346
     17 C          -3.1947  -16.8844   22.5983 C.ar    1  UNL1        0.0366
     18 C          -1.9931  -16.2392   21.9738 C.ar    1  UNL1        0.0028
     19 C          -1.5090  -16.6977   20.6301 C.ar    1  UNL1       -0.0044
     20 C          -2.2264  -17.8014   19.9110 C.ar    1  UNL1       -0.0229
     21 C          -1.7423  -18.2599   18.5673 C.3     1  UNL1        0.0308
     22 C          -3.4280  -18.4466   20.5355 C.ar    1  UNL1        0.0082
     23 C          -4.1454  -19.5503   19.8163 C.3     1  UNL1        0.0339
@<TRIPOS>BOND
     1    12    13    1
     2    13    11    1
     3     1    11    1
     4     1     2    1
     5     2     3    1
     6     3     4    1
     7     4     5   ar
     8     5     6   ar
     9     6     7   ar
    10     7     8   ar
    11     8     9   ar
    12     9    10    1
    13    10    15    1
    14    15    16    1
    15    16    17   ar
    16    17    18   ar
    17    18    19   ar
    18    19    20   ar
    19    20    21    1
    20    20    22   ar
    21    22    23    1
    22    10     1    1
    23    22    16   ar
    24     9     4   ar
    25    13    14    1
