@<TRIPOS>MOLECULE
*****
 32 34 0 0 0
SMALL
GASTEIGER

@<TRIPOS>ATOM
      1 C          -9.9156  -19.1909   21.0675 C.ar    1  UNL1        0.0293
      2 C          -8.4915  -18.7270   21.1501 C.ar    1  UNL1        0.0145
      3 C          -7.5489  -18.9939   20.0142 C.ar    1  UNL1        0.0505
      4 C          -8.0303  -19.7245   18.7959 C.ar    1  UNL1        0.0170
      5 C          -9.4543  -20.1883   18.7133 C.ar    1  UNL1        0.0306
      6 C         -10.3970  -19.9215   19.8492 C.ar    1  UNL1        0.1380
      7 F         -11.8211  -20.3853   19.7667 F       1  UNL1       -0.2044
      8 C         -10.0294  -20.0201   22.8048 C.3     1  UNL1        0.0321
      9 C         -10.8583  -18.9241   22.2034 C.3     1  UNL1        0.1432
     10 N         -11.3598  -17.9207   21.2076 N.2     1  UNL1       -0.2214
     11 C         -12.5161  -17.0312   21.5564 C.2     1  UNL1        0.2769
     12 N         -13.0175  -16.0278   20.5605 N.pl3   1  UNL1       -0.3133
     13 O         -13.1709  -17.1451   22.9011 O.2     1  UNL1       -0.4480
     14 C         -12.6695  -18.1484   23.8970 C.3     1  UNL1        0.2383
     15 C         -11.5132  -19.0379   23.5481 C.3     1  UNL1        0.2277
     16 F         -11.0116  -20.0414   24.5439 F       1  UNL1       -0.2309
     17 H         -12.5877  -15.9530   19.6779 H       1  UNL1        0.1466
     18 H         -13.7765  -15.4439   20.7894 H       1  UNL1        0.1466
     19 C         -13.3243  -18.2623   25.2417 C.3     1  UNL1        0.2394
     20 F         -14.7631  -18.6743   25.3428 F       1  UNL1       -0.2302
     21 N          -6.1247  -18.5300   20.0967 N.am    1  UNL1       -0.2791
     22 C          -5.0115  -19.5335   20.1581 C.2     1  UNL1        0.2672
     23 O          -5.3224  -21.0009   20.1369 O.2     1  UNL1       -0.2682
     24 H          -5.9207  -17.5670   20.1106 H       1  UNL1        0.1552
     25 C          -3.5874  -19.0698   20.2406 C.ar    1  UNL1        0.1348
     26 C          -2.7940  -19.3029   21.4920 C.ar    1  UNL1        0.0245
     27 C          -1.3698  -18.8392   21.5745 C.ar    1  UNL1        0.0135
     28 C          -0.7391  -18.1422   20.4055 C.ar    1  UNL1        0.0876
     29 C          -1.5326  -17.9091   19.1540 C.ar    1  UNL1        0.1092
     30 N          -2.9566  -18.3728   19.0716 N.ar    1  UNL1       -0.2385
     31 C           0.6850  -17.6785   20.4880 C.1     1  UNL1        0.1020
     32 N           2.1091  -17.2148   20.5705 N.1     1  UNL1       -0.1908
@<TRIPOS>BOND
     1     9     8    1
     2     9     1    1
     3     1     2   ar
     4     2     3   ar
     5     3    21    1
     6    21    22   am
     7    22    23    2
     8    22    25    1
     9    25    26   ar
    10    26    27   ar
    11    27    28   ar
    12    28    31    1
    13    31    32    3
    14    28    29   ar
    15    29    30   ar
    16     3     4   ar
    17     4     5   ar
    18     5     6   ar
    19     6     7    1
    20     9    10    1
    21    10    11    2
    22    11    12    1
    23    11    13    1
    24    13    14    1
    25    14    19    1
    26    19    20    1
    27    14    15    1
    28    15    16    1
    29    15     9    1
    30     6     1   ar
    31    30    25   ar
    32    21    24    1
    33    12    17    1
    34    12    18    1
@<TRIPOS>MOLECULE
*****
 32 34 0 0 0
SMALL
GASTEIGER

@<TRIPOS>ATOM
      1 C           2.8825   -0.3820   20.3825 C.ar    1  UNL1        0.0293
      2 C           1.4967    0.0105   20.8013 C.ar    1  UNL1        0.0145
      3 C           0.7190    1.0007   19.9861 C.ar    1  UNL1        0.0505
      4 C           1.3272    1.5985   18.7521 C.ar    1  UNL1        0.0170
      5 C           2.7130    1.2060   18.3332 C.ar    1  UNL1        0.0306
      6 C           3.4907    0.2158   19.1485 C.ar    1  UNL1        0.1380
      7 F           4.8766   -0.1767   18.7297 F       1  UNL1       -0.2044
      8 C           3.7188   -0.1818   22.1086 C.3     1  UNL1        0.0321
      9 C           3.6603   -1.3722   21.1977 C.3     1  UNL1        0.1432
     10 N           3.3317   -2.2187   20.0038 N.2     1  UNL1       -0.2214
     11 C           3.8011   -3.6419   19.9414 C.2     1  UNL1        0.2769
     12 N           3.4725   -4.4884   18.7474 N.pl3   1  UNL1       -0.3133
     13 O           4.5992   -4.2188   21.0730 O.2     1  UNL1       -0.4480
     14 C           4.9278   -3.3723   22.2669 C.3     1  UNL1        0.2383
     15 C           4.4584   -1.9491   22.3293 C.3     1  UNL1        0.2277
     16 F           4.7869   -1.1025   23.5232 F       1  UNL1       -0.2309
     17 H           2.9487   -4.1098   18.0047 H       1  UNL1        0.1466
     18 H           3.7806   -5.4226   18.7064 H       1  UNL1        0.1466
     19 C           5.7259   -3.9491   23.3984 C.3     1  UNL1        0.2394
     20 F           7.0033   -4.6834   23.1174 F       1  UNL1       -0.2302
     21 N          -0.6669    1.3932   20.4049 N.am    1  UNL1       -0.2791
     22 C          -0.9108    2.7374   21.0242 C.2     1  UNL1        0.2672
     23 O           0.2312    3.6891   21.2248 O.2     1  UNL1       -0.2682
     24 H          -1.4164    0.7685   20.2733 H       1  UNL1        0.1552
     25 C          -2.2966    3.1299   21.4430 C.ar    1  UNL1        0.1348
     26 C          -2.5297    3.7255   22.7998 C.ar    1  UNL1        0.0245
     27 C          -3.9156    4.1181   23.2186 C.ar    1  UNL1        0.0135
     28 C          -5.0683    3.9149   22.2806 C.ar    1  UNL1        0.0876
     29 C          -4.8352    3.3193   20.9238 C.ar    1  UNL1        0.1092
     30 N          -3.4494    2.9268   20.5050 N.ar    1  UNL1       -0.2385
     31 C          -6.4541    4.3074   22.6994 C.1     1  UNL1        0.1020
     32 N          -7.8400    4.7000   23.1182 N.1     1  UNL1       -0.1908
@<TRIPOS>BOND
     1     9     8    1
     2     9     1    1
     3     1     2   ar
     4     2     3   ar
     5     3    21    1
     6    21    22   am
     7    22    23    2
     8    22    25    1
     9    25    26   ar
    10    26    27   ar
    11    27    28   ar
    12    28    31    1
    13    31    32    3
    14    28    29   ar
    15    29    30   ar
    16     3     4   ar
    17     4     5   ar
    18     5     6   ar
    19     6     7    1
    20     9    10    1
    21    10    11    2
    22    11    12    1
    23    11    13    1
    24    13    14    1
    25    14    19    1
    26    19    20    1
    27    14    15    1
    28    15    16    1
    29    15     9    1
    30     6     1   ar
    31    30    25   ar
    32    21    24    1
    33    12    17    1
    34    12    18    1
@<TRIPOS>MOLECULE
*****
 32 34 0 0 0
SMALL
GASTEIGER

@<TRIPOS>ATOM
      1 C         -10.1332  -19.0600   21.0153 C.ar    1  UNL1        0.0293
      2 C          -8.7054  -18.6072   21.0938 C.ar    1  UNL1        0.0145
      3 C          -7.7607  -18.9066   19.9678 C.ar    1  UNL1        0.0505
      4 C          -8.2438  -19.6588   18.7633 C.ar    1  UNL1        0.0170
      5 C          -9.6716  -20.1116   18.6848 C.ar    1  UNL1        0.0306
      6 C         -10.6163  -19.8123   19.8108 C.ar    1  UNL1        0.1380
      7 F         -12.0442  -20.2651   19.7324 F       1  UNL1       -0.2044
      8 C         -11.6246  -17.8399   21.0908 C.3     1  UNL1        0.0321
      9 C         -11.0780  -18.7607   22.1413 C.3     1  UNL1        0.1432
     10 N         -10.2033  -19.7854   22.8007 N.2     1  UNL1       -0.2214
     11 C         -10.4632  -20.1910   24.2212 C.2     1  UNL1        0.2769
     12 N          -9.5885  -21.2158   24.8806 N.pl3   1  UNL1       -0.3133
     13 O         -11.5978  -19.5718   24.9824 O.2     1  UNL1       -0.4480
     14 C         -12.4725  -18.5471   24.3230 C.3     1  UNL1        0.2383
     15 C         -12.2126  -18.1415   22.9025 C.3     1  UNL1        0.2277
     16 F         -13.0872  -17.1167   22.2430 F       1  UNL1       -0.2309
     17 H          -8.8438  -21.6221   24.3810 H       1  UNL1        0.1466
     18 H          -9.7590  -21.4820   25.8129 H       1  UNL1        0.1466
     19 C         -13.6071  -17.9279   25.0841 C.3     1  UNL1        0.2394
     20 F         -14.9874  -18.5046   24.9738 F       1  UNL1       -0.2302
     21 N          -6.3327  -18.4537   20.0463 N.am    1  UNL1       -0.2791
     22 C          -5.2290  -19.4654   20.1368 C.2     1  UNL1        0.2672
     23 O          -5.5532  -20.9300   20.1489 O.2     1  UNL1       -0.2682
     24 H          -6.1200  -17.4925   20.0384 H       1  UNL1        0.1552
     25 C          -3.8012  -19.0126   20.2153 C.ar    1  UNL1        0.1348
     26 C          -2.9014  -19.5511   21.2879 C.ar    1  UNL1        0.0245
     27 C          -1.4735  -19.0983   21.3663 C.ar    1  UNL1        0.0135
     28 C          -0.9454  -18.1070   20.3721 C.ar    1  UNL1        0.0876
     29 C          -1.8451  -17.5686   19.2995 C.ar    1  UNL1        0.1092
     30 N          -3.2730  -18.0213   19.2210 N.ar    1  UNL1       -0.2385
     31 C           0.4824  -17.6542   20.4506 C.1     1  UNL1        0.1020
     32 N           1.9104  -17.2014   20.5291 N.1     1  UNL1       -0.1908
@<TRIPOS>BOND
     1     9     8    1
     2     9     1    1
     3     1     2   ar
     4     2     3   ar
     5     3    21    1
     6    21    22   am
     7    22    23    2
     8    22    25    1
     9    25    26   ar
    10    26    27   ar
    11    27    28   ar
    12    28    31    1
    13    31    32    3
    14    28    29   ar
    15    29    30   ar
    16     3     4   ar
    17     4     5   ar
    18     5     6   ar
    19     6     7    1
    20     9    10    1
    21    10    11    2
    22    11    12    1
    23    11    13    1
    24    13    14    1
    25    14    19    1
    26    19    20    1
    27    14    15    1
    28    15    16    1
    29    15     9    1
    30     6     1   ar
    31    30    25   ar
    32    21    24    1
    33    12    17    1
    34    12    18    1
@<TRIPOS>MOLECULE
*****
 32 34 0 0 0
SMALL
GASTEIGER

@<TRIPOS>ATOM
      1 C           3.5362   -0.8830   19.7724 C.ar    1  UNL1        0.0293
      2 C           2.5482   -0.4303   20.8062 C.ar    1  UNL1        0.0145
      3 C           1.3485    0.3714   20.3967 C.ar    1  UNL1        0.0505
      4 C           1.1368    0.7205   18.9533 C.ar    1  UNL1        0.0170
      5 C           2.1248    0.2678   17.9195 C.ar    1  UNL1        0.0306
      6 C           3.3245   -0.5340   18.3290 C.ar    1  UNL1        0.1380
      7 F           4.3126   -0.9867   17.2952 F       1  UNL1       -0.2044
      8 C           5.2711   -0.2971   20.3771 C.3     1  UNL1        0.0321
      9 C           4.7361   -1.6848   20.1819 C.3     1  UNL1        0.1432
     10 N           3.7844   -2.7940   19.8445 N.2     1  UNL1       -0.2214
     11 C           4.2182   -4.2231   19.9844 C.2     1  UNL1        0.2769
     12 N           3.2664   -5.3323   19.6470 N.pl3   1  UNL1       -0.3133
     13 O           5.6038   -4.5429   20.4617 O.2     1  UNL1       -0.4480
     14 C           6.5556   -3.4337   20.7991 C.3     1  UNL1        0.2383
     15 C           6.1217   -2.0047   20.6592 C.3     1  UNL1        0.2277
     16 F           7.0734   -0.8954   20.9966 F       1  UNL1       -0.2309
     17 H           2.3570   -5.1224   19.3338 H       1  UNL1        0.1466
     18 H           3.5511   -6.2702   19.7388 H       1  UNL1        0.1466
     19 C           7.9412   -3.7535   21.2764 C.3     1  UNL1        0.2394
     20 F           8.6021   -5.0332   20.8573 F       1  UNL1       -0.2302
     21 N           0.3604    0.8242   21.4306 N.am    1  UNL1       -0.2791
     22 C           0.5772    2.1170   22.1597 C.2     1  UNL1        0.2672
     23 O           1.7820    2.9570   21.8551 O.2     1  UNL1       -0.2682
     24 H          -0.4303    0.2728   21.6305 H       1  UNL1        0.1552
     25 C          -0.4108    2.5697   23.1935 C.ar    1  UNL1        0.1348
     26 C          -0.2216    2.1852   24.6310 C.ar    1  UNL1        0.0245
     27 C          -1.2097    2.6380   25.6648 C.ar    1  UNL1        0.0135
     28 C          -2.3869    3.4753   25.2612 C.ar    1  UNL1        0.0876
     29 C          -2.5761    3.8599   23.8237 C.ar    1  UNL1        0.1092
     30 N          -1.5881    3.4071   22.7899 N.ar    1  UNL1       -0.2385
     31 C          -3.3749    3.9281   26.2950 C.1     1  UNL1        0.1020
     32 N          -4.3630    4.3808   27.3289 N.1     1  UNL1       -0.1908
@<TRIPOS>BOND
     1     9     8    1
     2     9     1    1
     3     1     2   ar
     4     2     3   ar
     5     3    21    1
     6    21    22   am
     7    22    23    2
     8    22    25    1
     9    25    26   ar
    10    26    27   ar
    11    27    28   ar
    12    28    31    1
    13    31    32    3
    14    28    29   ar
    15    29    30   ar
    16     3     4   ar
    17     4     5   ar
    18     5     6   ar
    19     6     7    1
    20     9    10    1
    21    10    11    2
    22    11    12    1
    23    11    13    1
    24    13    14    1
    25    14    19    1
    26    19    20    1
    27    14    15    1
    28    15    16    1
    29    15     9    1
    30     6     1   ar
    31    30    25   ar
    32    21    24    1
    33    12    17    1
    34    12    18    1
@<TRIPOS>MOLECULE
*****
 32 34 0 0 0
SMALL
GASTEIGER

@<TRIPOS>ATOM
      1 C           3.5929   -1.3832   19.6479 C.ar    1  UNL1        0.0293
      2 C           3.7865   -1.8465   21.0613 C.ar    1  UNL1        0.0145
      3 C           4.6309   -3.0531   21.3460 C.ar    1  UNL1        0.0505
      4 C           5.2816   -3.7964   20.2173 C.ar    1  UNL1        0.0170
      5 C           5.0879   -3.3331   18.8038 C.ar    1  UNL1        0.0306
      6 C           4.2436   -2.1265   18.5192 C.ar    1  UNL1        0.1380
      7 F           4.0499   -1.6631   17.1057 F       1  UNL1       -0.2044
      8 C           1.7070   -1.0954   19.9297 C.3     1  UNL1        0.0321
      9 C           2.7485   -0.1765   19.3632 C.3     1  UNL1        0.1432
     10 N           4.0832    0.3233   18.8955 N.2     1  UNL1       -0.2214
     11 C           4.2118    1.7107   18.3399 C.2     1  UNL1        0.2769
     12 N           5.5466    2.2105   17.8723 N.pl3   1  UNL1       -0.3133
     13 O           3.0057    2.5982   18.2520 O.2     1  UNL1       -0.4480
     14 C           1.6710    2.0984   18.7196 C.3     1  UNL1        0.2383
     15 C           1.5424    0.7110   19.2752 C.3     1  UNL1        0.2277
     16 F           0.2077    0.2111   19.7429 F       1  UNL1       -0.2309
     17 H           6.3382    1.6280   17.9300 H       1  UNL1        0.1466
     18 H           5.6310    3.1211   17.5076 H       1  UNL1        0.1466
     19 C           0.4649    2.9859   18.6317 C.3     1  UNL1        0.2394
     20 F          -0.3875    2.9727   17.3975 F       1  UNL1       -0.2302
     21 N           4.8245   -3.5165   22.7595 N.am    1  UNL1       -0.2791
     22 C           6.0672   -3.1377   23.5093 C.2     1  UNL1        0.2672
     23 O           7.1162   -2.2955   22.8456 O.2     1  UNL1       -0.2682
     24 H           4.1361   -4.0692   23.1950 H       1  UNL1        0.1552
     25 C           6.2609   -3.6010   24.9227 C.ar    1  UNL1        0.1348
     26 C           6.7690   -4.9858   25.1951 C.ar    1  UNL1        0.0245
     27 C           6.9627   -5.4491   26.6086 C.ar    1  UNL1        0.0135
     28 C           6.6484   -4.5276   27.7496 C.ar    1  UNL1        0.0876
     29 C           6.1403   -3.1428   27.4772 C.ar    1  UNL1        0.1092
     30 N           5.9466   -2.6795   26.0638 N.ar    1  UNL1       -0.2385
     31 C           6.8421   -4.9910   29.1630 C.1     1  UNL1        0.1020
     32 N           7.0358   -5.4543   30.5765 N.1     1  UNL1       -0.1908
@<TRIPOS>BOND
     1     9     8    1
     2     9     1    1
     3     1     2   ar
     4     2     3   ar
     5     3    21    1
     6    21    22   am
     7    22    23    2
     8    22    25    1
     9    25    26   ar
    10    26    27   ar
    11    27    28   ar
    12    28    31    1
    13    31    32    3
    14    28    29   ar
    15    29    30   ar
    16     3     4   ar
    17     4     5   ar
    18     5     6   ar
    19     6     7    1
    20     9    10    1
    21    10    11    2
    22    11    12    1
    23    11    13    1
    24    13    14    1
    25    14    19    1
    26    19    20    1
    27    14    15    1
    28    15    16    1
    29    15     9    1
    30     6     1   ar
    31    30    25   ar
    32    21    24    1
    33    12    17    1
    34    12    18    1
@<TRIPOS>MOLECULE
*****
 32 34 0 0 0
SMALL
GASTEIGER

@<TRIPOS>ATOM
      1 C           2.7291    0.9930   18.9496 C.ar    1  UNL1        0.0293
      2 C           1.3125    1.2404   19.3762 C.ar    1  UNL1        0.0145
      3 C           0.7392    2.6247   19.3066 C.ar    1  UNL1        0.0505
      4 C           1.5824    3.7616   18.8103 C.ar    1  UNL1        0.0170
      5 C           2.9990    3.5143   18.3836 C.ar    1  UNL1        0.0306
      6 C           3.5723    2.1299   18.4533 C.ar    1  UNL1        0.1380
      7 F           4.9890    1.8825   18.0267 F       1  UNL1       -0.2044
      8 C           3.3456   -0.1658   17.5369 C.3     1  UNL1        0.0321
      9 C           3.3025   -0.3914   19.0193 C.3     1  UNL1        0.1432
     10 N           3.0602   -0.1362   20.4773 N.2     1  UNL1       -0.2214
     11 C           3.4063   -1.1869   21.4903 C.2     1  UNL1        0.2769
     12 N           3.1640   -0.9317   22.9485 N.pl3   1  UNL1       -0.3133
     13 O           3.9947   -2.4930   21.0451 O.2     1  UNL1       -0.4480
     14 C           4.2369   -2.7482   19.5870 C.3     1  UNL1        0.2383
     15 C           3.8909   -1.6974   18.5741 C.3     1  UNL1        0.2277
     16 F           4.1331   -1.9525   17.1159 F       1  UNL1       -0.2309
     17 H           2.7778   -0.0745   23.2407 H       1  UNL1        0.1466
     18 H           3.3911   -1.6213   23.6133 H       1  UNL1        0.1466
     19 C           4.8253   -4.0542   19.1418 C.3     1  UNL1        0.2394
     20 F           3.9334   -5.1351   18.6070 F       1  UNL1       -0.2302
     21 N          -0.6775    2.8721   19.7332 N.am    1  UNL1       -0.2791
     22 C          -0.9959    3.0988   21.1814 C.2     1  UNL1        0.2672
     23 O           0.1024    3.0781   22.2029 O.2     1  UNL1       -0.2682
     24 H          -1.3983    2.8858   19.0628 H       1  UNL1        0.1552
     25 C          -2.4124    3.3463   21.6081 C.ar    1  UNL1        0.1348
     26 C          -2.6955    3.9765   22.9395 C.ar    1  UNL1        0.0245
     27 C          -4.1122    4.2239   23.3662 C.ar    1  UNL1        0.0135
     28 C          -5.2456    3.8411   22.4614 C.ar    1  UNL1        0.0876
     29 C          -4.9626    3.2109   21.1300 C.ar    1  UNL1        0.1092
     30 N          -3.5460    2.9635   20.7033 N.ar    1  UNL1       -0.2385
     31 C          -6.6622    4.0886   22.8881 C.1     1  UNL1        0.1020
     32 N          -8.0788    4.3360   23.3148 N.1     1  UNL1       -0.1908
@<TRIPOS>BOND
     1     9     8    1
     2     9     1    1
     3     1     2   ar
     4     2     3   ar
     5     3    21    1
     6    21    22   am
     7    22    23    2
     8    22    25    1
     9    25    26   ar
    10    26    27   ar
    11    27    28   ar
    12    28    31    1
    13    31    32    3
    14    28    29   ar
    15    29    30   ar
    16     3     4   ar
    17     4     5   ar
    18     5     6   ar
    19     6     7    1
    20     9    10    1
    21    10    11    2
    22    11    12    1
    23    11    13    1
    24    13    14    1
    25    14    19    1
    26    19    20    1
    27    14    15    1
    28    15    16    1
    29    15     9    1
    30     6     1   ar
    31    30    25   ar
    32    21    24    1
    33    12    17    1
    34    12    18    1
@<TRIPOS>MOLECULE
*****
 32 34 0 0 0
SMALL
GASTEIGER

@<TRIPOS>ATOM
      1 C           3.5086   -0.6294   19.3075 C.ar    1  UNL1        0.0293
      2 C           4.2569   -1.0698   20.5307 C.ar    1  UNL1        0.0145
      3 C           5.3916   -2.0428   20.4059 C.ar    1  UNL1        0.0505
      4 C           5.7780   -2.5754   19.0579 C.ar    1  UNL1        0.0170
      5 C           5.0298   -2.1350   17.8348 C.ar    1  UNL1        0.0306
      6 C           3.8951   -1.1620   17.9596 C.ar    1  UNL1        0.1380
      7 F           3.1468   -0.7215   16.7364 F       1  UNL1       -0.2044
      8 C           1.7248   -0.8867   19.9935 C.3     1  UNL1        0.0321
      9 C           2.3739    0.3437   19.4323 C.3     1  UNL1        0.1432
     10 N           3.4169    1.2361   18.8277 N.2     1  UNL1       -0.2214
     11 C           3.0999    2.6743   18.5428 C.2     1  UNL1        0.2769
     12 N           4.1430    3.5667   17.9381 N.pl3   1  UNL1       -0.3133
     13 O           1.7397    3.2200   18.8624 O.2     1  UNL1       -0.4480
     14 C           0.6966    2.3276   19.4670 C.3     1  UNL1        0.2383
     15 C           1.0137    0.8895   19.7519 C.3     1  UNL1        0.2277
     16 F          -0.0293   -0.0030   20.3565 F       1  UNL1       -0.2309
     17 H           5.0357    3.2085   17.7283 H       1  UNL1        0.1466
     18 H           3.9350    4.5106   17.7511 H       1  UNL1        0.1466
     19 C          -0.6635    2.8733   19.7867 C.3     1  UNL1        0.2394
     20 F          -1.3094    2.5542   21.1023 F       1  UNL1       -0.2302
     21 N           6.1399   -2.4832   21.6291 N.am    1  UNL1       -0.2791
     22 C           5.7627   -3.7603   22.3197 C.2     1  UNL1        0.2672
     23 O           4.6373   -4.5969   21.7871 O.2     1  UNL1       -0.2682
     24 H           6.8785   -1.9342   21.9786 H       1  UNL1        0.1552
     25 C           6.5109   -4.2008   23.5428 C.ar    1  UNL1        0.1348
     26 C           6.3514   -3.4489   24.8309 C.ar    1  UNL1        0.0245
     27 C           7.0996   -3.8894   26.0541 C.ar    1  UNL1        0.0135
     28 C           8.0074   -5.0818   25.9891 C.ar    1  UNL1        0.0876
     29 C           8.1670   -5.8336   24.7010 C.ar    1  UNL1        0.1092
     30 N           7.4188   -5.3931   23.4779 N.ar    1  UNL1       -0.2385
     31 C           8.7557   -5.5222   27.2123 C.1     1  UNL1        0.1020
     32 N           9.5040   -5.9627   28.4354 N.1     1  UNL1       -0.1908
@<TRIPOS>BOND
     1     9     8    1
     2     9     1    1
     3     1     2   ar
     4     2     3   ar
     5     3    21    1
     6    21    22   am
     7    22    23    2
     8    22    25    1
     9    25    26   ar
    10    26    27   ar
    11    27    28   ar
    12    28    31    1
    13    31    32    3
    14    28    29   ar
    15    29    30   ar
    16     3     4   ar
    17     4     5   ar
    18     5     6   ar
    19     6     7    1
    20     9    10    1
    21    10    11    2
    22    11    12    1
    23    11    13    1
    24    13    14    1
    25    14    19    1
    26    19    20    1
    27    14    15    1
    28    15    16    1
    29    15     9    1
    30     6     1   ar
    31    30    25   ar
    32    21    24    1
    33    12    17    1
    34    12    18    1
@<TRIPOS>MOLECULE
*****
 32 34 0 0 0
SMALL
GASTEIGER

@<TRIPOS>ATOM
      1 C           4.1398   -0.3564   18.9080 C.ar    1  UNL1        0.0293
      2 C           4.8042   -0.7089   20.2058 C.ar    1  UNL1        0.0145
      3 C           5.5759   -1.9891   20.3298 C.ar    1  UNL1        0.0505
      4 C           5.6833   -2.9168   19.1560 C.ar    1  UNL1        0.0170
      5 C           5.0190   -2.5643   17.8582 C.ar    1  UNL1        0.0306
      6 C           4.2472   -1.2841   17.7342 C.ar    1  UNL1        0.1380
      7 F           3.5828   -0.9316   16.4363 F       1  UNL1       -0.2044
      8 C           4.6698    1.3438   18.1684 C.3     1  UNL1        0.0321
      9 C           3.3680    0.9239   18.7839 C.3     1  UNL1        0.1432
     10 N           2.3342    0.0593   19.4425 N.2     1  UNL1       -0.2214
     11 C           0.9808    0.6208   19.7633 C.2     1  UNL1        0.2769
     12 N          -0.0530   -0.2439   20.4220 N.pl3   1  UNL1       -0.3133
     13 O           0.6611    2.0469   19.4255 O.2     1  UNL1       -0.4480
     14 C           1.6949    2.9114   18.7669 C.3     1  UNL1        0.2383
     15 C           3.0483    2.3500   18.4461 C.3     1  UNL1        0.2277
     16 F           4.0822    3.2145   17.7875 F       1  UNL1       -0.2309
     17 H           0.1568   -1.1798   20.6437 H       1  UNL1        0.1466
     18 H          -0.9413    0.1246   20.6325 H       1  UNL1        0.1466
     19 C           1.3752    4.3376   18.4290 C.3     1  UNL1        0.2394
     20 F           1.6258    4.8543   17.0433 F       1  UNL1       -0.2302
     21 N           6.2403   -2.3416   21.6276 N.am    1  UNL1       -0.2791
     22 C           5.7226   -3.4851   22.4489 C.2     1  UNL1        0.2672
     23 O           4.5404   -4.2760   21.9723 O.2     1  UNL1       -0.2682
     24 H           7.0162   -1.8225   21.9404 H       1  UNL1        0.1552
     25 C           6.3869   -3.8376   23.7467 C.ar    1  UNL1        0.1348
     26 C           7.3620   -4.9759   23.8052 C.ar    1  UNL1        0.0245
     27 C           8.0264   -5.3285   25.1030 C.ar    1  UNL1        0.0135
     28 C           7.7157   -4.5427   26.3424 C.ar    1  UNL1        0.0876
     29 C           6.7406   -3.4044   26.2839 C.ar    1  UNL1        0.1092
     30 N           6.0762   -3.0518   24.9861 N.ar    1  UNL1       -0.2385
     31 C           8.3800   -4.8953   27.6401 C.1     1  UNL1        0.1020
     32 N           9.0444   -5.2479   28.9380 N.1     1  UNL1       -0.1908
@<TRIPOS>BOND
     1     9     8    1
     2     9     1    1
     3     1     2   ar
     4     2     3   ar
     5     3    21    1
     6    21    22   am
     7    22    23    2
     8    22    25    1
     9    25    26   ar
    10    26    27   ar
    11    27    28   ar
    12    28    31    1
    13    31    32    3
    14    28    29   ar
    15    29    30   ar
    16     3     4   ar
    17     4     5   ar
    18     5     6   ar
    19     6     7    1
    20     9    10    1
    21    10    11    2
    22    11    12    1
    23    11    13    1
    24    13    14    1
    25    14    19    1
    26    19    20    1
    27    14    15    1
    28    15    16    1
    29    15     9    1
    30     6     1   ar
    31    30    25   ar
    32    21    24    1
    33    12    17    1
    34    12    18    1
@<TRIPOS>MOLECULE
*****
 32 34 0 0 0
SMALL
GASTEIGER

@<TRIPOS>ATOM
      1 C           3.2342   -0.1654   21.3055 C.ar    1  UNL1        0.0293
      2 C           1.8218    0.2454   21.5994 C.ar    1  UNL1        0.0145
      3 C           1.5302    1.6348   22.0836 C.ar    1  UNL1        0.0505
      4 C           2.6510    2.6134   22.2740 C.ar    1  UNL1        0.0170
      5 C           4.0633    2.2026   21.9801 C.ar    1  UNL1        0.0306
      6 C           4.3549    0.8132   21.4958 C.ar    1  UNL1        0.1380
      7 F           5.7674    0.4024   21.2019 F       1  UNL1       -0.2044
      8 C           2.9755   -0.9507   19.5633 C.3     1  UNL1        0.0321
      9 C           3.5258   -1.5548   20.8212 C.3     1  UNL1        0.1432
     10 N           3.9749   -1.6764   22.2472 N.2     1  UNL1       -0.2214
     11 C           4.5245   -2.9776   22.7521 C.2     1  UNL1        0.2769
     12 N           4.9736   -3.0991   24.1781 N.pl3   1  UNL1       -0.3133
     13 O           4.6250   -4.1572   21.8309 O.2     1  UNL1       -0.4480
     14 C           4.1760   -4.0356   20.4049 C.3     1  UNL1        0.2383
     15 C           3.6264   -2.7344   19.9000 C.3     1  UNL1        0.2277
     16 F           3.1773   -2.6128   18.4740 F       1  UNL1       -0.2309
     17 H           4.9076   -2.3249   24.7827 H       1  UNL1        0.1466
     18 H           5.3343   -3.9531   24.5095 H       1  UNL1        0.1466
     19 C           4.2765   -5.2152   19.4837 C.3     1  UNL1        0.2394
     20 F           4.8126   -5.0380   18.0941 F       1  UNL1       -0.2302
     21 N           0.1178    2.0456   22.3776 N.am    1  UNL1       -0.2791
     22 C          -0.6742    2.7971   21.3489 C.2     1  UNL1        0.2672
     23 O          -0.0537    3.1377   20.0264 O.2     1  UNL1       -0.2682
     24 H          -0.2894    1.8220   23.2456 H       1  UNL1        0.1552
     25 C          -2.0866    3.2079   21.6428 C.ar    1  UNL1        0.1348
     26 C          -2.4001    3.9731   22.8942 C.ar    1  UNL1        0.0245
     27 C          -3.8126    4.3840   23.1881 C.ar    1  UNL1        0.0135
     28 C          -4.9114    4.0296   22.2305 C.ar    1  UNL1        0.0876
     29 C          -4.5978    3.2644   20.9791 C.ar    1  UNL1        0.1092
     30 N          -3.1855    2.8536   20.6852 N.ar    1  UNL1       -0.2385
     31 C          -6.3237    4.4404   22.5244 C.1     1  UNL1        0.1020
     32 N          -7.7362    4.8513   22.8182 N.1     1  UNL1       -0.1908
@<TRIPOS>BOND
     1     9     8    1
     2     9     1    1
     3     1     2   ar
     4     2     3   ar
     5     3    21    1
     6    21    22   am
     7    22    23    2
     8    22    25    1
     9    25    26   ar
    10    26    27   ar
    11    27    28   ar
    12    28    31    1
    13    31    32    3
    14    28    29   ar
    15    29    30   ar
    16     3     4   ar
    17     4     5   ar
    18     5     6   ar
    19     6     7    1
    20     9    10    1
    21    10    11    2
    22    11    12    1
    23    11    13    1
    24    13    14    1
    25    14    19    1
    26    19    20    1
    27    14    15    1
    28    15    16    1
    29    15     9    1
    30     6     1   ar
    31    30    25   ar
    32    21    24    1
    33    12    17    1
    34    12    18    1
