@<TRIPOS>MOLECULE
*****
 30 33 0 0 0
SMALL
GASTEIGER

@<TRIPOS>ATOM
      1 N          -8.2961  -17.8370   23.0028 N.am    1  UNL1       -0.2904
      2 C          -7.7492  -19.1882   22.6494 C.2     1  UNL1        0.2673
      3 O          -8.3654  -20.4236   23.2358 O.2     1  UNL1       -0.2684
      4 H          -7.8916  -17.0261   22.6179 H       1  UNL1        0.1503
      5 C          -6.5860  -19.3040   21.7093 C.ar    1  UNL1        0.1759
      6 N          -6.5306  -20.1556   20.4758 N.ar    1  UNL1       -0.0723
      7 O          -5.1843  -19.9664   19.8420 O.2     1  UNL1       -0.3533
      8 C          -4.4077  -18.9978   20.6838 C.ar    1  UNL1        0.1769
      9 C          -5.2739  -18.5884   21.8379 C.ar    1  UNL1        0.0625
     10 C          -4.7561  -17.6169   22.8567 C.ar    1  UNL1        0.0049
     11 C          -3.3720  -17.0548   22.7215 C.ar    1  UNL1        0.0003
     12 C          -2.5057  -17.4642   21.5673 C.ar    1  UNL1        0.0030
     13 C          -1.1216  -16.9022   21.4321 C.ar    1  UNL1        0.0001
     14 C          -0.2554  -17.3116   20.2780 C.ar    1  UNL1        0.0000
     15 C          -0.7732  -18.2831   19.2592 C.ar    1  UNL1        0.0001
     16 C          -2.1573  -18.8452   19.3944 C.ar    1  UNL1        0.0031
     17 C          -3.0235  -18.4357   20.5485 C.ar    1  UNL1        0.0372
     18 C          -9.4594  -17.7211   23.9429 C.3     1  UNL1        0.1945
     19 C          -9.2356  -17.2969   25.3641 C.2     1  UNL1        0.3369
     20 O          -9.4361  -18.2787   26.4803 O.2     1  UNL1       -0.2482
     21 O          -8.8114  -15.8909   25.6693 O.3     1  UNL1       -0.4511
     22 C          -6.4495  -15.1606   24.8705 C.3     1  UNL1        0.0473
     23 C          -7.3733  -15.5902   25.9715 C.3     1  UNL1        0.1691
     24 C          -6.8590  -15.7191   27.3747 C.3     1  UNL1        0.0473
     25 C         -10.8462  -18.0294   23.4616 C.3     1  UNL1        0.1386
     26 N         -11.2957  -17.5511   22.1129 N.ar    1  UNL1       -0.3055
     27 C         -11.9014  -16.2130   21.8086 C.ar    1  UNL1        0.0981
     28 C         -12.1984  -16.1619   20.3392 C.ar    1  UNL1        0.1193
     29 N         -11.7763  -17.4685   19.7354 N.ar    1  UNL1       -0.2223
     30 C         -11.2184  -18.3271   20.8315 C.ar    1  UNL1        0.1787
@<TRIPOS>BOND
     1    22    23    1
     2    23    24    1
     3    23    21    1
     4    21    19    1
     5    19    20    2
     6    19    18    1
     7    18    25    1
     8    25    26    1
     9    26    27   ar
    10    27    28   ar
    11    28    29   ar
    12    29    30   ar
    13    18     1    1
    14     1     2   am
    15     2     3    2
    16     2     5    1
    17     5     6   ar
    18     6     7   ar
    19     7     8   ar
    20     8     9   ar
    21     9    10   ar
    22    10    11   ar
    23    11    12   ar
    24    12    13   ar
    25    13    14   ar
    26    14    15   ar
    27    15    16   ar
    28    16    17   ar
    29    30    26   ar
    30     9     5   ar
    31    17    12   ar
    32    17     8   ar
    33     1     4    1
@<TRIPOS>MOLECULE
*****
 30 33 0 0 0
SMALL
GASTEIGER

@<TRIPOS>ATOM
      1 N          -8.7358  -18.4402   22.8815 N.am    1  UNL1       -0.2904
      2 C          -7.9291  -19.6947   22.7234 C.2     1  UNL1        0.2673
      3 O          -8.3173  -20.9355   23.4716 O.2     1  UNL1       -0.2684
      4 H          -8.4810  -17.6259   22.3904 H       1  UNL1        0.1503
      5 C          -6.7341  -19.7086   21.8168 C.ar    1  UNL1        0.1759
      6 N          -6.5567  -20.5747   20.6050 N.ar    1  UNL1       -0.0723
      7 O          -5.2196  -20.2602   20.0022 O.2     1  UNL1       -0.3533
      8 C          -4.5707  -19.1998   20.8415 C.ar    1  UNL1        0.1769
      9 C          -5.5066  -18.8589   21.9629 C.ar    1  UNL1        0.0625
     10 C          -5.1203  -17.8187   22.9723 C.ar    1  UNL1        0.0049
     11 C          -3.7981  -17.1195   22.8603 C.ar    1  UNL1        0.0003
     12 C          -2.8620  -17.4604   21.7387 C.ar    1  UNL1        0.0030
     13 C          -1.5398  -16.7611   21.6267 C.ar    1  UNL1        0.0001
     14 C          -0.6038  -17.1020   20.5052 C.ar    1  UNL1        0.0000
     15 C          -0.9901  -18.1422   19.4958 C.ar    1  UNL1        0.0001
     16 C          -2.3124  -18.8414   19.6079 C.ar    1  UNL1        0.0031
     17 C          -3.2483  -18.5005   20.7294 C.ar    1  UNL1        0.0372
     18 C          -9.9309  -18.4262   23.7881 C.3     1  UNL1        0.1945
     19 C         -11.2961  -18.7069   23.2336 C.2     1  UNL1        0.3369
     20 O         -12.5163  -18.2569   23.9810 O.2     1  UNL1       -0.2482
     21 O         -11.4411  -19.4375   21.9316 O.3     1  UNL1       -0.4511
     22 C         -10.3006  -19.4186   19.5974 C.3     1  UNL1        0.0473
     23 C         -11.1359  -18.7374   20.6406 C.3     1  UNL1        0.1691
     24 C         -11.6659  -17.3562   20.3929 C.3     1  UNL1        0.0473
     25 C          -9.7608  -18.1315   25.2490 C.3     1  UNL1        0.1386
     26 N          -8.8626  -17.0137   25.6890 N.ar    1  UNL1       -0.3055
     27 C          -8.4553  -16.7136   27.1011 C.ar    1  UNL1        0.0981
     28 C          -7.5549  -15.5141   27.0789 C.ar    1  UNL1        0.1193
     29 N          -7.4058  -15.0729   25.6531 N.ar    1  UNL1       -0.2223
     30 C          -8.2139  -15.9997   24.7940 C.ar    1  UNL1        0.1787
@<TRIPOS>BOND
     1    22    23    1
     2    23    24    1
     3    23    21    1
     4    21    19    1
     5    19    20    2
     6    19    18    1
     7    18    25    1
     8    25    26    1
     9    26    27   ar
    10    27    28   ar
    11    28    29   ar
    12    29    30   ar
    13    18     1    1
    14     1     2   am
    15     2     3    2
    16     2     5    1
    17     5     6   ar
    18     6     7   ar
    19     7     8   ar
    20     8     9   ar
    21     9    10   ar
    22    10    11   ar
    23    11    12   ar
    24    12    13   ar
    25    13    14   ar
    26    14    15   ar
    27    15    16   ar
    28    16    17   ar
    29    30    26   ar
    30     9     5   ar
    31    17    12   ar
    32    17     8   ar
    33     1     4    1
@<TRIPOS>MOLECULE
*****
 30 33 0 0 0
SMALL
GASTEIGER

@<TRIPOS>ATOM
      1 N          -5.3076  -18.3872   21.3762 N.am    1  UNL1       -0.2904
      2 C          -6.3960  -19.3605   21.7194 C.2     1  UNL1        0.2673
      3 O          -6.0561  -20.6637   22.3799 O.2     1  UNL1       -0.2684
      4 H          -5.5308  -17.5319   20.9427 H       1  UNL1        0.1503
      5 C          -7.8246  -19.0308   21.4019 C.ar    1  UNL1        0.1759
      6 N          -8.3806  -18.7402   20.0394 N.ar    1  UNL1       -0.0723
      7 O          -9.8475  -18.4635   20.1867 O.2     1  UNL1       -0.3533
      8 C         -10.1980  -18.5831   21.6402 C.ar    1  UNL1        0.1769
      9 C          -8.9478  -18.9337   22.3913 C.ar    1  UNL1        0.0625
     10 C          -8.9938  -19.1192   23.8791 C.ar    1  UNL1        0.0049
     11 C         -10.2899  -18.9542   24.6158 C.ar    1  UNL1        0.0003
     12 C         -11.5402  -18.6036   23.8647 C.ar    1  UNL1        0.0030
     13 C         -12.8363  -18.4386   24.6015 C.ar    1  UNL1        0.0001
     14 C         -14.0864  -18.0881   23.8504 C.ar    1  UNL1        0.0000
     15 C         -14.0405  -17.9025   22.3626 C.ar    1  UNL1        0.0001
     16 C         -12.7444  -18.0675   21.6259 C.ar    1  UNL1        0.0031
     17 C         -11.4942  -18.4181   22.3770 C.ar    1  UNL1        0.0372
     18 C          -3.8791  -18.7169   21.6936 C.3     1  UNL1        0.1945
     19 C          -3.0936  -19.6076   20.7774 C.2     1  UNL1        0.3369
     20 O          -3.7827  -20.7129   20.0334 O.2     1  UNL1       -0.2482
     21 O          -1.6191  -19.3931   20.6050 O.3     1  UNL1       -0.4511
     22 C          -1.9337  -17.7527   18.6150 C.3     1  UNL1        0.0473
     23 C          -1.1198  -18.2492   19.7731 C.3     1  UNL1        0.1691
     24 C           0.1934  -17.6017   20.0993 C.3     1  UNL1        0.0473
     25 C          -3.2361  -18.1558   22.9272 C.3     1  UNL1        0.1386
     26 N          -3.9574  -17.1279   23.7477 N.ar    1  UNL1       -0.3055
     27 C          -4.3004  -17.2438   25.2033 C.ar    1  UNL1        0.0981
     28 C          -5.0173  -15.9911   25.6117 C.ar    1  UNL1        0.1193
     29 N          -5.1174  -15.1011   24.4085 N.ar    1  UNL1       -0.2223
     30 C          -4.4623  -15.8036   23.2565 C.ar    1  UNL1        0.1787
@<TRIPOS>BOND
     1    22    23    1
     2    23    24    1
     3    23    21    1
     4    21    19    1
     5    19    20    2
     6    19    18    1
     7    18    25    1
     8    25    26    1
     9    26    27   ar
    10    27    28   ar
    11    28    29   ar
    12    29    30   ar
    13    18     1    1
    14     1     2   am
    15     2     3    2
    16     2     5    1
    17     5     6   ar
    18     6     7   ar
    19     7     8   ar
    20     8     9   ar
    21     9    10   ar
    22    10    11   ar
    23    11    12   ar
    24    12    13   ar
    25    13    14   ar
    26    14    15   ar
    27    15    16   ar
    28    16    17   ar
    29    30    26   ar
    30     9     5   ar
    31    17    12   ar
    32    17     8   ar
    33     1     4    1
@<TRIPOS>MOLECULE
*****
 30 33 0 0 0
SMALL
GASTEIGER

@<TRIPOS>ATOM
      1 N           3.0113   -0.9712   27.1215 N.am    1  UNL1       -0.2904
      2 C           3.2799    0.1297   26.1388 C.2     1  UNL1        0.2673
      3 O           3.8015    1.4520   26.6180 O.2     1  UNL1       -0.2684
      4 H           2.6690   -1.8390   26.8070 H       1  UNL1        0.1503
      5 C           3.0269   -0.0916   24.6769 C.ar    1  UNL1        0.1759
      6 N           2.0986    0.7082   23.8118 N.ar    1  UNL1       -0.0723
      7 O           2.1558    0.1425   22.4237 O.2     1  UNL1       -0.3533
      8 C           3.1195   -1.0069   22.4310 C.ar    1  UNL1        0.1769
      9 C           3.6579   -1.1516   23.8236 C.ar    1  UNL1        0.0625
     10 C           4.6531   -2.2299   24.1346 C.ar    1  UNL1        0.0049
     11 C           5.1100   -3.1635   23.0532 C.ar    1  UNL1        0.0003
     12 C           4.5716   -3.0189   21.6605 C.ar    1  UNL1        0.0030
     13 C           5.0284   -3.9525   20.5791 C.ar    1  UNL1        0.0001
     14 C           4.4901   -3.8078   19.1866 C.ar    1  UNL1        0.0000
     15 C           3.4948   -2.7295   18.8755 C.ar    1  UNL1        0.0001
     16 C           3.0380   -1.7959   19.9570 C.ar    1  UNL1        0.0031
     17 C           3.5764   -1.9406   21.3495 C.ar    1  UNL1        0.0372
     18 C           3.2643   -0.7499   28.5834 C.3     1  UNL1        0.1945
     19 C           2.1626   -0.2443   29.4670 C.2     1  UNL1        0.3369
     20 O           1.9590   -0.8411   30.8279 O.2     1  UNL1       -0.2482
     21 O           1.2646    0.8583   28.9895 O.3     1  UNL1       -0.4511
     22 C          -0.2496    1.1539   26.8991 C.3     1  UNL1        0.0473
     23 C           0.0081    0.5301   28.2388 C.3     1  UNL1        0.1691
     24 C          -0.9905   -0.4216   28.8276 C.3     1  UNL1        0.0473
     25 C           4.6188   -1.0343   29.1617 C.3     1  UNL1        0.1386
     26 N           5.7166   -1.5527   28.2808 N.ar    1  UNL1       -0.3055
     27 C           6.6942   -0.7187   27.5070 C.ar    1  UNL1        0.0981
     28 C           7.6114   -1.6467   26.7670 C.ar    1  UNL1        0.1193
     29 N           7.2005   -3.0542   27.0834 N.ar    1  UNL1       -0.2223
     30 C           6.0295   -2.9961   28.0190 C.ar    1  UNL1        0.1787
@<TRIPOS>BOND
     1    22    23    1
     2    23    24    1
     3    23    21    1
     4    21    19    1
     5    19    20    2
     6    19    18    1
     7    18    25    1
     8    25    26    1
     9    26    27   ar
    10    27    28   ar
    11    28    29   ar
    12    29    30   ar
    13    18     1    1
    14     1     2   am
    15     2     3    2
    16     2     5    1
    17     5     6   ar
    18     6     7   ar
    19     7     8   ar
    20     8     9   ar
    21     9    10   ar
    22    10    11   ar
    23    11    12   ar
    24    12    13   ar
    25    13    14   ar
    26    14    15   ar
    27    15    16   ar
    28    16    17   ar
    29    30    26   ar
    30     9     5   ar
    31    17    12   ar
    32    17     8   ar
    33     1     4    1
@<TRIPOS>MOLECULE
*****
 30 33 0 0 0
SMALL
GASTEIGER

@<TRIPOS>ATOM
      1 N           6.2692   -4.6230   26.8492 N.am    1  UNL1       -0.2904
      2 C           7.1036   -4.0675   25.7335 C.2     1  UNL1        0.2673
      3 O           8.4996   -3.5914   26.0062 O.2     1  UNL1       -0.2684
      4 H           5.3529   -4.9355   26.6702 H       1  UNL1        0.1503
      5 C           6.5419   -3.9881   24.3448 C.ar    1  UNL1        0.1759
      6 N           6.9450   -4.8435   23.1804 N.ar    1  UNL1       -0.0723
      7 O           6.1308   -4.4234   21.9927 O.2     1  UNL1       -0.3533
      8 C           5.2244   -3.3085   22.4231 C.ar    1  UNL1        0.1769
      9 C           5.4785   -3.0394   23.8767 C.ar    1  UNL1        0.0625
     10 C           4.7087   -1.9652   24.5864 C.ar    1  UNL1        0.0049
     11 C           3.6848   -1.1602   23.8425 C.ar    1  UNL1        0.0003
     12 C           3.4307   -1.4292   22.3888 C.ar    1  UNL1        0.0030
     13 C           2.4069   -0.6241   21.6448 C.ar    1  UNL1        0.0001
     14 C           2.1528   -0.8932   20.1912 C.ar    1  UNL1        0.0000
     15 C           2.9226   -1.9673   19.4816 C.ar    1  UNL1        0.0001
     16 C           3.9465   -2.7724   20.2255 C.ar    1  UNL1        0.0031
     17 C           4.2005   -2.5033   21.6791 C.ar    1  UNL1        0.0372
     18 C           6.8308   -4.7024   28.2379 C.3     1  UNL1        0.1945
     19 C           7.5958   -5.9185   28.6691 C.2     1  UNL1        0.3369
     20 O           7.3752   -6.4982   30.0348 O.2     1  UNL1       -0.2482
     21 O           8.5813   -6.5550   27.7344 O.3     1  UNL1       -0.4511
     22 C           7.7647   -7.6879   25.5436 C.3     1  UNL1        0.0473
     23 C           8.2034   -7.7917   26.9743 C.3     1  UNL1        0.1691
     24 C           8.2642   -9.1321   27.6449 C.3     1  UNL1        0.0473
     25 C           6.6273   -3.5659   29.1954 C.3     1  UNL1        0.1386
     26 N           6.3758   -2.1820   28.6742 N.ar    1  UNL1       -0.3055
     27 C           7.4194   -1.1404   28.3988 C.ar    1  UNL1        0.0981
     28 C           6.7251    0.0886   27.8913 C.ar    1  UNL1        0.1193
     29 N           5.2524   -0.1936   27.8530 N.ar    1  UNL1       -0.2223
     30 C           5.0365   -1.5969   28.3369 C.ar    1  UNL1        0.1787
@<TRIPOS>BOND
     1    22    23    1
     2    23    24    1
     3    23    21    1
     4    21    19    1
     5    19    20    2
     6    19    18    1
     7    18    25    1
     8    25    26    1
     9    26    27   ar
    10    27    28   ar
    11    28    29   ar
    12    29    30   ar
    13    18     1    1
    14     1     2   am
    15     2     3    2
    16     2     5    1
    17     5     6   ar
    18     6     7   ar
    19     7     8   ar
    20     8     9   ar
    21     9    10   ar
    22    10    11   ar
    23    11    12   ar
    24    12    13   ar
    25    13    14   ar
    26    14    15   ar
    27    15    16   ar
    28    16    17   ar
    29    30    26   ar
    30     9     5   ar
    31    17    12   ar
    32    17     8   ar
    33     1     4    1
@<TRIPOS>MOLECULE
*****
 30 33 0 0 0
SMALL
GASTEIGER

@<TRIPOS>ATOM
      1 N           3.6273   -1.1195   28.3795 N.am    1  UNL1       -0.2904
      2 C           3.8753   -0.4458   27.0626 C.2     1  UNL1        0.2673
      3 O           3.6591    1.0321   26.9236 O.2     1  UNL1       -0.2684
      4 H           3.7692   -2.0895   28.4706 H       1  UNL1        0.1503
      5 C           4.3395   -1.2499   25.8844 C.ar    1  UNL1        0.1759
      6 N           5.4137   -2.2967   25.8995 N.ar    1  UNL1       -0.0723
      7 O           5.5492   -2.8421   24.5088 O.2     1  UNL1       -0.3533
      8 C           4.5586   -2.1323   23.6341 C.ar    1  UNL1        0.1769
      9 C           3.8110   -1.1483   24.4843 C.ar    1  UNL1        0.0625
     10 C           2.7456   -0.2869   23.8736 C.ar    1  UNL1        0.0049
     11 C           2.4278   -0.4095   22.4128 C.ar    1  UNL1        0.0003
     12 C           3.1754   -1.3936   21.5626 C.ar    1  UNL1        0.0030
     13 C           2.8576   -1.5162   20.1019 C.ar    1  UNL1        0.0001
     14 C           3.6051   -2.5002   19.2517 C.ar    1  UNL1        0.0000
     15 C           4.6706   -3.3616   19.8624 C.ar    1  UNL1        0.0001
     16 C           4.9884   -3.2390   21.3231 C.ar    1  UNL1        0.0031
     17 C           4.2408   -2.2550   22.1733 C.ar    1  UNL1        0.0372
     18 C           3.1630   -0.3155   29.5577 C.3     1  UNL1        0.1945
     19 C           1.7107    0.0301   29.7043 C.2     1  UNL1        0.3369
     20 O           1.2585    0.9048   30.8359 O.2     1  UNL1       -0.2482
     21 O           0.7107   -0.4989   28.7194 O.3     1  UNL1       -0.4511
     22 C          -1.7996   -0.0092   29.1762 C.3     1  UNL1        0.0473
     23 C          -0.5354    0.2818   28.4231 C.3     1  UNL1        0.1691
     24 C          -0.5173    1.3534   27.3736 C.3     1  UNL1        0.0473
     25 C           4.1509    0.1428   30.5892 C.3     1  UNL1        0.1386
     26 N           4.3537   -0.6578   31.8413 N.ar    1  UNL1       -0.3055
     27 C           3.9765   -0.2338   33.2298 C.ar    1  UNL1        0.0981
     28 C           4.3590   -1.3370   34.1714 C.ar    1  UNL1        0.1193
     29 N           4.9727   -2.4428   33.3648 N.ar    1  UNL1       -0.2223
     30 C           4.9694   -2.0230   31.9248 C.ar    1  UNL1        0.1787
@<TRIPOS>BOND
     1    22    23    1
     2    23    24    1
     3    23    21    1
     4    21    19    1
     5    19    20    2
     6    19    18    1
     7    18    25    1
     8    25    26    1
     9    26    27   ar
    10    27    28   ar
    11    28    29   ar
    12    29    30   ar
    13    18     1    1
    14     1     2   am
    15     2     3    2
    16     2     5    1
    17     5     6   ar
    18     6     7   ar
    19     7     8   ar
    20     8     9   ar
    21     9    10   ar
    22    10    11   ar
    23    11    12   ar
    24    12    13   ar
    25    13    14   ar
    26    14    15   ar
    27    15    16   ar
    28    16    17   ar
    29    30    26   ar
    30     9     5   ar
    31    17    12   ar
    32    17     8   ar
    33     1     4    1
@<TRIPOS>MOLECULE
*****
 30 33 0 0 0
SMALL
GASTEIGER

@<TRIPOS>ATOM
      1 N           0.5868    0.7076   25.1285 N.am    1  UNL1       -0.2904
      2 C           2.0830    0.8099   25.1065 C.2     1  UNL1        0.2673
      3 O           2.7614    2.0113   25.6950 O.2     1  UNL1       -0.2684
      4 H           0.1415   -0.0809   24.7422 H       1  UNL1        0.1503
      5 C           2.9010   -0.2893   24.4959 C.ar    1  UNL1        0.1759
      6 N           3.8156   -1.2217   25.2336 N.ar    1  UNL1       -0.0723
      7 O           4.4278   -2.1577   24.2341 O.2     1  UNL1       -0.3533
      8 C           3.8915   -1.8038   22.8787 C.ar    1  UNL1        0.1769
      9 C           2.9480   -0.6491   23.0405 C.ar    1  UNL1        0.0625
     10 C           2.2534   -0.0744   21.8416 C.ar    1  UNL1        0.0049
     11 C           2.5024   -0.6544   20.4809 C.ar    1  UNL1        0.0003
     12 C           3.4461   -1.8092   20.3191 C.ar    1  UNL1        0.0030
     13 C           3.6951   -2.3892   18.9584 C.ar    1  UNL1        0.0001
     14 C           4.6387   -3.5440   18.7966 C.ar    1  UNL1        0.0000
     15 C           5.3332   -4.1187   19.9955 C.ar    1  UNL1        0.0001
     16 C           5.0842   -3.5386   21.3561 C.ar    1  UNL1        0.0031
     17 C           4.1406   -2.3839   21.5179 C.ar    1  UNL1        0.0372
     18 C          -0.2313    1.8068   25.7391 C.3     1  UNL1        0.1945
     19 C          -0.4956    3.0638   24.9644 C.2     1  UNL1        0.3369
     20 O          -0.2384    4.4008   25.5939 O.2     1  UNL1       -0.2482
     21 O          -1.0169    2.9839   23.5602 O.3     1  UNL1       -0.4511
     22 C          -0.5032    2.4380   21.0726 C.3     1  UNL1        0.0473
     23 C          -0.0604    2.9664   22.4049 C.3     1  UNL1        0.1691
     24 C           1.3387    3.4775   22.5818 C.3     1  UNL1        0.0473
     25 C          -0.7851    1.6490   27.1241 C.3     1  UNL1        0.1386
     26 N           0.1098    1.2064   28.2436 N.ar    1  UNL1       -0.3055
     27 C           1.0694    2.0752   29.0014 C.ar    1  UNL1        0.0981
     28 C           1.7548    1.2230   30.0281 C.ar    1  UNL1        0.1193
     29 N           1.2187   -0.1725   29.9047 N.ar    1  UNL1       -0.2223
     30 C           0.2021   -0.1828   28.8019 C.ar    1  UNL1        0.1787
@<TRIPOS>BOND
     1    22    23    1
     2    23    24    1
     3    23    21    1
     4    21    19    1
     5    19    20    2
     6    19    18    1
     7    18    25    1
     8    25    26    1
     9    26    27   ar
    10    27    28   ar
    11    28    29   ar
    12    29    30   ar
    13    18     1    1
    14     1     2   am
    15     2     3    2
    16     2     5    1
    17     5     6   ar
    18     6     7   ar
    19     7     8   ar
    20     8     9   ar
    21     9    10   ar
    22    10    11   ar
    23    11    12   ar
    24    12    13   ar
    25    13    14   ar
    26    14    15   ar
    27    15    16   ar
    28    16    17   ar
    29    30    26   ar
    30     9     5   ar
    31    17    12   ar
    32    17     8   ar
    33     1     4    1
@<TRIPOS>MOLECULE
*****
 30 33 0 0 0
SMALL
GASTEIGER

@<TRIPOS>ATOM
      1 N           5.9475   -3.7503   27.5894 N.am    1  UNL1       -0.2904
      2 C           6.1979   -2.3691   27.0607 C.2     1  UNL1        0.2673
      3 O           7.3916   -1.5913   27.5300 O.2     1  UNL1       -0.2684
      4 H           5.1640   -4.2607   27.2814 H       1  UNL1        0.1503
      5 C           5.2546   -1.7656   26.0627 C.ar    1  UNL1        0.1759
      6 N           4.3226   -0.6172   26.3127 N.ar    1  UNL1       -0.0723
      7 O           3.5697   -0.3465   25.0439 O.2     1  UNL1       -0.3533
      8 C           4.0363   -1.3276   24.0098 C.ar    1  UNL1        0.1769
      9 C           5.0776   -2.2047   24.6393 C.ar    1  UNL1        0.0625
     10 C           5.7301   -3.2899   23.8352 C.ar    1  UNL1        0.0049
     11 C           5.3414   -3.4980   22.4015 C.ar    1  UNL1        0.0003
     12 C           4.3000   -2.6209   21.7719 C.ar    1  UNL1        0.0030
     13 C           3.9113   -2.8290   20.3382 C.ar    1  UNL1        0.0001
     14 C           2.8700   -1.9519   19.7086 C.ar    1  UNL1        0.0000
     15 C           2.2175   -0.8667   20.5127 C.ar    1  UNL1        0.0001
     16 C           2.6062   -0.6586   21.9464 C.ar    1  UNL1        0.0031
     17 C           3.6475   -1.5357   22.5760 C.ar    1  UNL1        0.0372
     18 C           6.8908   -4.3538   28.5875 C.3     1  UNL1        0.1945
     19 C           6.6265   -4.2019   30.0562 C.2     1  UNL1        0.3369
     20 O           6.8226   -5.3687   30.9782 O.2     1  UNL1       -0.2482
     21 O           6.1661   -2.8832   30.6030 O.3     1  UNL1       -0.4511
     22 C           7.6735   -2.2123   32.6098 C.3     1  UNL1        0.0473
     23 C           6.3258   -2.5798   32.0632 C.3     1  UNL1        0.1691
     24 C           5.1378   -2.6438   32.9769 C.3     1  UNL1        0.0473
     25 C           8.0982   -5.1092   28.1169 C.3     1  UNL1        0.1386
     26 N           7.9575   -6.5220   27.6332 N.ar    1  UNL1       -0.3055
     27 C           8.5991   -7.7317   28.2456 C.ar    1  UNL1        0.0981
     28 C           8.1886   -8.9306   27.4430 C.ar    1  UNL1        0.1193
     29 N           7.2932   -8.4618   26.3346 N.ar    1  UNL1       -0.2223
     30 C           7.1503   -6.9733   26.4522 C.ar    1  UNL1        0.1787
@<TRIPOS>BOND
     1    22    23    1
     2    23    24    1
     3    23    21    1
     4    21    19    1
     5    19    20    2
     6    19    18    1
     7    18    25    1
     8    25    26    1
     9    26    27   ar
    10    27    28   ar
    11    28    29   ar
    12    29    30   ar
    13    18     1    1
    14     1     2   am
    15     2     3    2
    16     2     5    1
    17     5     6   ar
    18     6     7   ar
    19     7     8   ar
    20     8     9   ar
    21     9    10   ar
    22    10    11   ar
    23    11    12   ar
    24    12    13   ar
    25    13    14   ar
    26    14    15   ar
    27    15    16   ar
    28    16    17   ar
    29    30    26   ar
    30     9     5   ar
    31    17    12   ar
    32    17     8   ar
    33     1     4    1
@<TRIPOS>MOLECULE
*****
 30 33 0 0 0
SMALL
GASTEIGER

@<TRIPOS>ATOM
      1 N           5.9773   -3.4146   27.5753 N.am    1  UNL1       -0.2904
      2 C           6.9739   -3.3438   26.4566 C.2     1  UNL1        0.2673
      3 O           8.4159   -3.0566   26.7537 O.2     1  UNL1       -0.2684
      4 H           5.0309   -3.6032   27.3803 H       1  UNL1        0.1503
      5 C           6.5285   -3.5603   25.0406 C.ar    1  UNL1        0.1759
      6 N           7.0350   -4.6216   24.1095 N.ar    1  UNL1       -0.0723
      7 O           6.3180   -4.4706   22.8006 O.2     1  UNL1       -0.3533
      8 C           5.3684   -3.3160   22.9229 C.ar    1  UNL1        0.1769
      9 C           5.4985   -2.7533   24.3072 C.ar    1  UNL1        0.0625
     10 C           4.6622   -1.5789   24.7212 C.ar    1  UNL1        0.0049
     11 C           3.6958   -0.9671   23.7507 C.ar    1  UNL1        0.0003
     12 C           3.5657   -1.5298   22.3663 C.ar    1  UNL1        0.0030
     13 C           2.5993   -0.9180   21.3959 C.ar    1  UNL1        0.0001
     14 C           2.4692   -1.4806   20.0115 C.ar    1  UNL1        0.0000
     15 C           3.3055   -2.6550   19.5976 C.ar    1  UNL1        0.0001
     16 C           4.2719   -3.2668   20.5680 C.ar    1  UNL1        0.0031
     17 C           4.4020   -2.7042   21.9524 C.ar    1  UNL1        0.0372
     18 C           6.4226   -3.1982   28.9913 C.3     1  UNL1        0.1945
     19 C           6.9746   -4.3436   29.7872 C.2     1  UNL1        0.3369
     20 O           7.7950   -4.0776   31.0145 O.2     1  UNL1       -0.2482
     21 O           6.7062   -5.7549   29.3559 O.3     1  UNL1       -0.4511
     22 C           7.5919   -6.8586   27.1770 C.3     1  UNL1        0.0473
     23 C           7.7649   -6.5317   28.6307 C.3     1  UNL1        0.1691
     24 C           8.9965   -6.9816   29.3593 C.3     1  UNL1        0.0473
     25 C           6.3158   -1.8366   29.6114 C.3     1  UNL1        0.1386
     26 N           5.2088   -1.5375   30.5784 N.ar    1  UNL1       -0.3055
     27 C           4.0941   -0.5565   30.3666 C.ar    1  UNL1        0.0981
     28 C           3.2185   -0.5797   31.5844 C.ar    1  UNL1        0.1193
     29 N           3.7922   -1.5751   32.5487 N.ar    1  UNL1       -0.2223
     30 C           5.0222   -2.1671   31.9270 C.ar    1  UNL1        0.1787
@<TRIPOS>BOND
     1    22    23    1
     2    23    24    1
     3    23    21    1
     4    21    19    1
     5    19    20    2
     6    19    18    1
     7    18    25    1
     8    25    26    1
     9    26    27   ar
    10    27    28   ar
    11    28    29   ar
    12    29    30   ar
    13    18     1    1
    14     1     2   am
    15     2     3    2
    16     2     5    1
    17     5     6   ar
    18     6     7   ar
    19     7     8   ar
    20     8     9   ar
    21     9    10   ar
    22    10    11   ar
    23    11    12   ar
    24    12    13   ar
    25    13    14   ar
    26    14    15   ar
    27    15    16   ar
    28    16    17   ar
    29    30    26   ar
    30     9     5   ar
    31    17    12   ar
    32    17     8   ar
    33     1     4    1
