@<TRIPOS>MOLECULE
*****
 35 37 0 0 0
SMALL
GASTEIGER

@<TRIPOS>ATOM
      1 C         -11.5203  -18.9857   22.3323 C.ar    1  UNL1        0.1387
      2 C         -11.2231  -19.0202   20.8624 C.ar    1  UNL1        0.0383
      3 C          -9.8699  -19.4525   20.3807 C.ar    1  UNL1        0.0233
      4 C          -8.8138  -19.8502   21.3689 C.ar    1  UNL1        0.1255
      5 C          -9.1110  -19.8157   22.8388 C.ar    1  UNL1        0.0233
      6 C         -10.4642  -19.3835   23.3205 C.ar    1  UNL1        0.0383
      7 S          -7.4606  -20.2824   20.8873 S.O2    1  UNL1        0.0768
      8 O          -7.8757  -20.0056   19.4727 O.2     1  UNL1       -0.1498
      9 O          -7.0456  -20.5593   22.3018 O.2     1  UNL1       -0.1498
     10 N          -6.1074  -20.7146   20.4056 N.am    1  UNL1       -0.1690
     11 C          -4.9652  -19.7424   20.4065 C.2     1  UNL1        0.3231
     12 O          -5.1762  -18.3379   20.8890 O.2     1  UNL1       -0.2509
     13 N          -3.6120  -20.1747   19.9248 N.am    1  UNL1       -0.2671
     14 H          -5.9690  -21.6365   20.0889 H       1  UNL1        0.1781
     15 H          -3.4735  -21.0965   19.6081 H       1  UNL1        0.1565
     16 C          -2.4697  -19.2024   19.9257 C.ar    1  UNL1        0.0516
     17 C          -1.6768  -18.9780   21.1790 C.ar    1  UNL1        0.0147
     18 C          -0.5345  -18.0058   21.1799 C.ar    1  UNL1        0.0013
     19 C          -0.1853  -17.2579   19.9275 C.ar    1  UNL1        0.0001
     20 C          -0.9782  -17.4822   18.6741 C.ar    1  UNL1        0.0013
     21 C          -2.1205  -18.4545   18.6732 C.ar    1  UNL1        0.0147
     22 O         -12.8735  -18.5535   22.8140 O.3     1  UNL1       -0.4740
     23 C         -13.1564  -17.0995   23.0501 C.3     1  UNL1        0.2226
     24 C         -12.2815  -16.0540   22.4244 C.3     1  UNL1        0.1200
     25 C          -7.9150  -15.8410   23.4913 C.3     1  UNL1        0.1018
     26 C          -8.3382  -15.8052   22.0527 C.3     1  UNL1        0.0285
     27 C          -9.7937  -15.8762   21.6970 C.3     1  UNL1        0.0728
     28 N         -10.8260  -15.9830   22.7800 N.3     1  UNL1       -0.2695
     29 C         -10.4029  -16.0188   24.2186 C.3     1  UNL1        0.0728
     30 C          -8.9474  -15.9478   24.5742 C.3     1  UNL1        0.0285
     31 C          -6.4595  -15.7700   23.8469 C.2     1  UNL1        0.3165
     32 O          -5.4840  -16.7118   23.2056 O.2     1  UNL1       -0.2501
     33 O          -5.9796  -14.7573   24.8439 O.3     1  UNL1       -0.4485
     34 C          -6.6294  -15.4398   27.2651 C.3     1  UNL1        0.0513
     35 C          -5.5796  -15.1930   26.2223 C.3     1  UNL1        0.2086
@<TRIPOS>BOND
     1    34    35    1
     2    35    33    1
     3    33    31    1
     4    31    32    2
     5    31    25    1
     6    25    26    1
     7    26    27    1
     8    27    28    1
     9    28    24    1
    10    24    23    1
    11    23    22    1
    12    22     1    1
    13     1     2   ar
    14     2     3   ar
    15     3     4   ar
    16     4     7    1
    17     7     8    2
    18     7     9    2
    19     7    10    1
    20    10    11   am
    21    11    12    2
    22    11    13   am
    23    13    16    1
    24    16    17   ar
    25    17    18   ar
    26    18    19   ar
    27    19    20   ar
    28    20    21   ar
    29     4     5   ar
    30     5     6   ar
    31    28    29    1
    32    29    30    1
    33    30    25    1
    34     6     1   ar
    35    21    16   ar
    36    10    14    1
    37    13    15    1
@<TRIPOS>MOLECULE
*****
 35 37 0 0 0
SMALL
GASTEIGER

@<TRIPOS>ATOM
      1 C           7.6547   -5.4114   23.7540 C.ar    1  UNL1        0.1387
      2 C           8.0082   -6.6392   24.5399 C.ar    1  UNL1        0.0383
      3 C           7.8237   -6.6558   26.0284 C.ar    1  UNL1        0.0233
      4 C           7.2856   -5.4447   26.7310 C.ar    1  UNL1        0.1255
      5 C           6.9320   -4.2169   25.9451 C.ar    1  UNL1        0.0233
      6 C           7.1166   -4.2003   24.4566 C.ar    1  UNL1        0.0383
      7 S           7.1010   -5.4613   28.2195 S.O2    1  UNL1        0.0768
      8 O           5.6267   -5.6664   28.0344 O.2     1  UNL1       -0.1498
      9 O           8.5753   -5.2562   28.4046 O.2     1  UNL1       -0.1498
     10 N           6.9165   -5.4779   29.7080 N.am    1  UNL1       -0.1690
     11 C           6.5830   -4.2098   30.4366 C.2     1  UNL1        0.3231
     12 O           6.4340   -2.9252   29.6767 O.2     1  UNL1       -0.2509
     13 N           6.3984   -4.2265   31.9251 N.am    1  UNL1       -0.2671
     14 H           7.0142   -6.3210   30.2067 H       1  UNL1        0.1781
     15 H           6.4962   -5.0697   32.4239 H       1  UNL1        0.1565
     16 C           6.0649   -2.9585   32.6537 C.ar    1  UNL1        0.0516
     17 C           4.6737   -2.7318   33.1666 C.ar    1  UNL1        0.0147
     18 C           4.3402   -1.4638   33.8952 C.ar    1  UNL1        0.0013
     19 C           5.3979   -0.4224   34.1109 C.ar    1  UNL1        0.0001
     20 C           6.7893   -0.6490   33.5981 C.ar    1  UNL1        0.0013
     21 C           7.1228   -1.9170   32.8695 C.ar    1  UNL1        0.0147
     22 O           7.8392   -5.3948   22.2654 O.3     1  UNL1       -0.4740
     23 C           7.6003   -4.1306   21.4942 C.3     1  UNL1        0.2226
     24 C           6.5700   -4.1003   20.4044 C.3     1  UNL1        0.1200
     25 C           3.0432   -1.3232   20.7191 C.3     1  UNL1        0.1018
     26 C           3.5062   -1.7980   19.3738 C.3     1  UNL1        0.0285
     27 C           4.6818   -2.7237   19.2688 C.3     1  UNL1        0.0728
     28 N           5.3944   -3.1746   20.5093 N.3     1  UNL1       -0.2695
     29 C           4.9314   -2.6998   21.8547 C.3     1  UNL1        0.0728
     30 C           3.7557   -1.7741   21.9596 C.3     1  UNL1        0.0285
     31 C           1.8675   -0.3975   20.8240 C.2     1  UNL1        0.3165
     32 O           1.6638    0.4184   22.0661 O.2     1  UNL1       -0.2501
     33 O           0.8956   -0.2877   19.6869 O.3     1  UNL1       -0.4485
     34 C           2.2554    1.5730   18.4873 C.3     1  UNL1        0.0513
     35 C           0.9459    0.8976   18.7690 C.3     1  UNL1        0.2086
@<TRIPOS>BOND
     1    34    35    1
     2    35    33    1
     3    33    31    1
     4    31    32    2
     5    31    25    1
     6    25    26    1
     7    26    27    1
     8    27    28    1
     9    28    24    1
    10    24    23    1
    11    23    22    1
    12    22     1    1
    13     1     2   ar
    14     2     3   ar
    15     3     4   ar
    16     4     7    1
    17     7     8    2
    18     7     9    2
    19     7    10    1
    20    10    11   am
    21    11    12    2
    22    11    13   am
    23    13    16    1
    24    16    17   ar
    25    17    18   ar
    26    18    19   ar
    27    19    20   ar
    28    20    21   ar
    29     4     5   ar
    30     5     6   ar
    31    28    29    1
    32    29    30    1
    33    30    25    1
    34     6     1   ar
    35    21    16   ar
    36    10    14    1
    37    13    15    1
@<TRIPOS>MOLECULE
*****
 35 37 0 0 0
SMALL
GASTEIGER

@<TRIPOS>ATOM
      1 C           8.6251   -5.7002   23.7809 C.ar    1  UNL1        0.1387
      2 C           8.8152   -4.4792   24.6311 C.ar    1  UNL1        0.0383
      3 C           8.4039   -4.4982   26.0735 C.ar    1  UNL1        0.0233
      4 C           7.8024   -5.7382   26.6656 C.ar    1  UNL1        0.1255
      5 C           7.6123   -6.9592   25.8153 C.ar    1  UNL1        0.0233
      6 C           8.0236   -6.9402   24.3729 C.ar    1  UNL1        0.0383
      7 S           7.3910   -5.7572   28.1080 S.O2    1  UNL1        0.0768
      8 O           8.8333   -5.7907   28.5188 O.2     1  UNL1       -0.1498
      9 O           5.9488   -5.7237   27.6971 O.2     1  UNL1       -0.1498
     10 N           6.9797   -5.7763   29.5503 N.am    1  UNL1       -0.1690
     11 C           6.7832   -4.4869   30.2913 C.2     1  UNL1        0.3231
     12 O           6.9980   -3.1786   29.5899 O.2     1  UNL1       -0.2509
     13 N           6.3718   -4.5060   31.7337 N.am    1  UNL1       -0.2671
     14 H           6.8387   -6.6350   30.0107 H       1  UNL1        0.1781
     15 H           6.2308   -5.3648   32.1940 H       1  UNL1        0.1565
     16 C           6.1753   -3.2167   32.4746 C.ar    1  UNL1        0.0516
     17 C           4.8022   -2.8099   32.9208 C.ar    1  UNL1        0.0147
     18 C           4.6057   -1.5206   33.6618 C.ar    1  UNL1        0.0013
     19 C           5.7822   -0.6380   33.9565 C.ar    1  UNL1        0.0001
     20 C           7.1554   -1.0448   33.5103 C.ar    1  UNL1        0.0013
     21 C           7.3519   -2.3342   32.7694 C.ar    1  UNL1        0.0147
     22 O           9.0364   -5.6812   22.3384 O.3     1  UNL1       -0.4740
     23 C           8.1260   -5.0839   21.3067 C.3     1  UNL1        0.2226
     24 C           8.1728   -3.6109   21.0277 C.3     1  UNL1        0.1200
     25 C           4.9383   -1.6837   18.5632 C.3     1  UNL1        0.1018
     26 C           4.9633   -3.1736   18.7348 C.3     1  UNL1        0.0285
     27 C           6.0414   -3.8160   19.5563 C.3     1  UNL1        0.0728
     28 N           7.0947   -2.9685   20.2062 N.3     1  UNL1       -0.2695
     29 C           7.0697   -1.4786   20.0346 C.3     1  UNL1        0.0728
     30 C           5.9915   -0.8362   19.2131 C.3     1  UNL1        0.0285
     31 C           3.8601   -1.0413   17.7417 C.2     1  UNL1        0.3165
     32 O           3.9480   -1.0573   16.2444 O.2     1  UNL1       -0.2501
     33 O           2.6941   -0.3829   18.4175 O.3     1  UNL1       -0.4485
     34 C           1.0479   -0.2395   20.4224 C.3     1  UNL1        0.0513
     35 C           2.2785   -0.8199   19.7909 C.3     1  UNL1        0.2086
@<TRIPOS>BOND
     1    34    35    1
     2    35    33    1
     3    33    31    1
     4    31    32    2
     5    31    25    1
     6    25    26    1
     7    26    27    1
     8    27    28    1
     9    28    24    1
    10    24    23    1
    11    23    22    1
    12    22     1    1
    13     1     2   ar
    14     2     3   ar
    15     3     4   ar
    16     4     7    1
    17     7     8    2
    18     7     9    2
    19     7    10    1
    20    10    11   am
    21    11    12    2
    22    11    13   am
    23    13    16    1
    24    16    17   ar
    25    17    18   ar
    26    18    19   ar
    27    19    20   ar
    28    20    21   ar
    29     4     5   ar
    30     5     6   ar
    31    28    29    1
    32    29    30    1
    33    30    25    1
    34     6     1   ar
    35    21    16   ar
    36    10    14    1
    37    13    15    1
@<TRIPOS>MOLECULE
*****
 35 37 0 0 0
SMALL
GASTEIGER

@<TRIPOS>ATOM
      1 C           4.4378   -2.2803   18.7048 C.ar    1  UNL1        0.1387
      2 C           4.4093   -1.2308   17.6334 C.ar    1  UNL1        0.0383
      3 C           3.4932   -0.0503   17.7642 C.ar    1  UNL1        0.0233
      4 C           2.6056    0.0808   18.9662 C.ar    1  UNL1        0.1255
      5 C           2.6341   -0.9687   20.0376 C.ar    1  UNL1        0.0233
      6 C           3.5502   -2.1492   19.9069 C.ar    1  UNL1        0.0383
      7 S           1.6895    1.2613   19.0970 S.O2    1  UNL1        0.0768
      8 O           0.7852    0.6751   18.0538 O.2     1  UNL1       -0.1498
      9 O           2.5939    1.8476   20.1402 O.2     1  UNL1       -0.1498
     10 N           0.7735    2.4418   19.2278 N.am    1  UNL1       -0.1690
     11 C          -0.3716    2.3990   20.1957 C.2     1  UNL1        0.3231
     12 O          -0.6006    1.1757   21.0329 O.2     1  UNL1       -0.2509
     13 N          -1.2877    3.5796   20.3265 N.am    1  UNL1       -0.2671
     14 H           0.9237    3.2448   18.6783 H       1  UNL1        0.1781
     15 H          -1.1374    4.3826   19.7770 H       1  UNL1        0.1565
     16 C          -2.4328    3.5368   21.2944 C.ar    1  UNL1        0.0516
     17 C          -2.1892    3.7737   22.7554 C.ar    1  UNL1        0.0147
     18 C          -3.3342    3.7309   23.7233 C.ar    1  UNL1        0.0013
     19 C          -4.7230    3.4512   23.2303 C.ar    1  UNL1        0.0001
     20 C          -4.9667    3.2142   21.7693 C.ar    1  UNL1        0.0013
     21 C          -3.8216    3.2571   20.8013 C.ar    1  UNL1        0.0147
     22 O           5.3539   -3.4609   18.5740 O.3     1  UNL1       -0.4740
     23 C           5.7644   -4.2304   19.7944 C.3     1  UNL1        0.2226
     24 C           7.0036   -3.8414   20.5447 C.3     1  UNL1        0.1200
     25 C           7.6130   -5.2598   24.7716 C.3     1  UNL1        0.1018
     26 C           6.5170   -4.2850   24.4584 C.3     1  UNL1        0.0285
     27 C           6.3138   -3.8122   23.0494 C.3     1  UNL1        0.0728
     28 N           7.2067   -4.3142   21.9537 N.3     1  UNL1       -0.2695
     29 C           8.3028   -5.2891   22.2670 C.3     1  UNL1        0.0728
     30 C           8.5059   -5.7619   23.6760 C.3     1  UNL1        0.0285
     31 C           7.8162   -5.7327   26.1806 C.2     1  UNL1        0.3165
     32 O           9.1967   -5.7753   26.7657 O.2     1  UNL1       -0.2501
     33 O           6.6388   -6.1628   27.0045 O.3     1  UNL1       -0.4485
     34 C           6.9043   -5.3943   29.4721 C.3     1  UNL1        0.0513
     35 C           6.1833   -5.3202   28.1588 C.3     1  UNL1        0.2086
@<TRIPOS>BOND
     1    34    35    1
     2    35    33    1
     3    33    31    1
     4    31    32    2
     5    31    25    1
     6    25    26    1
     7    26    27    1
     8    27    28    1
     9    28    24    1
    10    24    23    1
    11    23    22    1
    12    22     1    1
    13     1     2   ar
    14     2     3   ar
    15     3     4   ar
    16     4     7    1
    17     7     8    2
    18     7     9    2
    19     7    10    1
    20    10    11   am
    21    11    12    2
    22    11    13   am
    23    13    16    1
    24    16    17   ar
    25    17    18   ar
    26    18    19   ar
    27    19    20   ar
    28    20    21   ar
    29     4     5   ar
    30     5     6   ar
    31    28    29    1
    32    29    30    1
    33    30    25    1
    34     6     1   ar
    35    21    16   ar
    36    10    14    1
    37    13    15    1
@<TRIPOS>MOLECULE
*****
 35 37 0 0 0
SMALL
GASTEIGER

@<TRIPOS>ATOM
      1 C           7.8680   -6.4562   28.2476 C.ar    1  UNL1        0.1387
      2 C           8.0302   -5.6626   26.9852 C.ar    1  UNL1        0.0383
      3 C           7.4940   -4.2640   26.9043 C.ar    1  UNL1        0.0233
      4 C           6.7956   -3.6591   28.0859 C.ar    1  UNL1        0.1255
      5 C           6.6334   -4.4528   29.3484 C.ar    1  UNL1        0.0233
      6 C           7.1696   -5.8513   29.4292 C.ar    1  UNL1        0.0383
      7 S           6.2595   -2.2605   28.0051 S.O2    1  UNL1        0.0768
      8 O           6.4766   -2.2630   26.5210 O.2     1  UNL1       -0.1498
      9 O           6.0423   -2.2580   29.4893 O.2     1  UNL1       -0.1498
     10 N           5.7233   -0.8620   27.9243 N.am    1  UNL1       -0.1690
     11 C           4.2606   -0.6323   27.6840 C.2     1  UNL1        0.3231
     12 O           3.3341   -1.8010   27.5244 O.2     1  UNL1       -0.2509
     13 N           3.7244    0.7664   27.6032 N.am    1  UNL1       -0.2671
     14 H           6.3314   -0.0949   28.0291 H       1  UNL1        0.1781
     15 H           4.3325    1.5335   27.7079 H       1  UNL1        0.1565
     16 C           2.2618    0.9961   27.3628 C.ar    1  UNL1        0.0516
     17 C           1.3117    1.0569   28.5219 C.ar    1  UNL1        0.0147
     18 C          -0.1510    1.2866   28.2816 C.ar    1  UNL1        0.0013
     19 C          -0.6636    1.4556   26.8821 C.ar    1  UNL1        0.0001
     20 C           0.2865    1.3949   25.7228 C.ar    1  UNL1        0.0013
     21 C           1.7492    1.1652   25.9632 C.ar    1  UNL1        0.0147
     22 O           8.4042   -7.8548   28.3284 O.3     1  UNL1       -0.4740
     23 C           7.8124   -8.9355   27.4730 C.3     1  UNL1        0.2226
     24 C           7.8252  -10.3586   27.9468 C.3     1  UNL1        0.1200
     25 C           4.0735  -12.8345   27.7350 C.3     1  UNL1        0.1018
     26 C           4.1230  -11.4897   27.0725 C.3     1  UNL1        0.0285
     27 C           5.3735  -10.6644   27.1431 C.3     1  UNL1        0.0728
     28 N           6.5746  -11.1839   27.8762 N.3     1  UNL1       -0.2695
     29 C           6.5251  -12.5288   28.5386 C.3     1  UNL1        0.0728
     30 C           5.2746  -13.3541   28.4680 C.3     1  UNL1        0.0285
     31 C           2.8229  -13.6598   27.6644 C.2     1  UNL1        0.3165
     32 O           2.9148  -15.1485   27.5050 O.2     1  UNL1       -0.2501
     33 O           1.4806  -12.9965   27.7532 O.3     1  UNL1       -0.4485
     34 C           1.2281  -13.3812   30.3102 C.3     1  UNL1        0.0513
     35 C           0.6093  -13.2242   28.9528 C.3     1  UNL1        0.2086
@<TRIPOS>BOND
     1    34    35    1
     2    35    33    1
     3    33    31    1
     4    31    32    2
     5    31    25    1
     6    25    26    1
     7    26    27    1
     8    27    28    1
     9    28    24    1
    10    24    23    1
    11    23    22    1
    12    22     1    1
    13     1     2   ar
    14     2     3   ar
    15     3     4   ar
    16     4     7    1
    17     7     8    2
    18     7     9    2
    19     7    10    1
    20    10    11   am
    21    11    12    2
    22    11    13   am
    23    13    16    1
    24    16    17   ar
    25    17    18   ar
    26    18    19   ar
    27    19    20   ar
    28    20    21   ar
    29     4     5   ar
    30     5     6   ar
    31    28    29    1
    32    29    30    1
    33    30    25    1
    34     6     1   ar
    35    21    16   ar
    36    10    14    1
    37    13    15    1
@<TRIPOS>MOLECULE
*****
 35 37 0 0 0
SMALL
GASTEIGER

@<TRIPOS>ATOM
      1 C           4.6658   -1.4826   18.3255 C.ar    1  UNL1        0.1387
      2 C           4.8717   -0.1171   17.7399 C.ar    1  UNL1        0.0383
      3 C           3.8594    0.9631   17.9817 C.ar    1  UNL1        0.0233
      4 C           2.6411    0.6777   18.8090 C.ar    1  UNL1        0.1255
      5 C           2.4352   -0.6879   19.3946 C.ar    1  UNL1        0.0233
      6 C           3.4475   -1.7680   19.1528 C.ar    1  UNL1        0.0383
      7 S           1.6288    1.7579   19.0507 S.O2    1  UNL1        0.0768
      8 O           0.6426    1.0264   18.1892 O.2     1  UNL1       -0.1498
      9 O           2.6150    2.4893   19.9123 O.2     1  UNL1       -0.1498
     10 N           0.6165    2.8380   19.2925 N.am    1  UNL1       -0.1690
     11 C          -0.4144    2.6723   20.3694 C.2     1  UNL1        0.3231
     12 O          -0.4330    1.4265   21.2046 O.2     1  UNL1       -0.2509
     13 N          -1.4267    3.7525   20.6111 N.am    1  UNL1       -0.2671
     14 H           0.6287    3.6557   18.7444 H       1  UNL1        0.1781
     15 H          -1.4145    4.5702   20.0630 H       1  UNL1        0.1565
     16 C          -2.4577    3.5869   21.6880 C.ar    1  UNL1        0.0516
     17 C          -3.8774    3.2675   21.3244 C.ar    1  UNL1        0.0147
     18 C          -4.9083    3.1018   22.4013 C.ar    1  UNL1        0.0013
     19 C          -4.5195    3.2555   23.8419 C.ar    1  UNL1        0.0001
     20 C          -3.0997    3.5749   24.2055 C.ar    1  UNL1        0.0013
     21 C          -2.0688    3.7406   23.1286 C.ar    1  UNL1        0.0147
     22 O           5.6781   -2.5629   18.0837 O.3     1  UNL1       -0.4740
     23 C           7.0453   -2.4592   18.6922 C.3     1  UNL1        0.2226
     24 C           7.2575   -2.8360   20.1285 C.3     1  UNL1        0.1200
     25 C           4.4078   -1.3649   23.2852 C.3     1  UNL1        0.1018
     26 C           5.3065   -0.3959   22.5758 C.3     1  UNL1        0.0285
     27 C           6.2564   -0.8863   21.5235 C.3     1  UNL1        0.0728
     28 N           6.3076   -2.3456   21.1807 N.3     1  UNL1       -0.2695
     29 C           5.4089   -3.3146   21.8901 C.3     1  UNL1        0.0728
     30 C           4.4590   -2.8243   22.9424 C.3     1  UNL1        0.0285
     31 C           3.4579   -0.8745   24.3375 C.2     1  UNL1        0.3165
     32 O           3.6770   -1.2413   25.7753 O.2     1  UNL1       -0.2501
     33 O           2.2889   -0.0174   23.9519 O.3     1  UNL1       -0.4485
     34 C           0.2151    1.2456   24.8761 C.3     1  UNL1        0.0513
     35 C           1.6749    0.9103   24.9581 C.3     1  UNL1        0.2086
@<TRIPOS>BOND
     1    34    35    1
     2    35    33    1
     3    33    31    1
     4    31    32    2
     5    31    25    1
     6    25    26    1
     7    26    27    1
     8    27    28    1
     9    28    24    1
    10    24    23    1
    11    23    22    1
    12    22     1    1
    13     1     2   ar
    14     2     3   ar
    15     3     4   ar
    16     4     7    1
    17     7     8    2
    18     7     9    2
    19     7    10    1
    20    10    11   am
    21    11    12    2
    22    11    13   am
    23    13    16    1
    24    16    17   ar
    25    17    18   ar
    26    18    19   ar
    27    19    20   ar
    28    20    21   ar
    29     4     5   ar
    30     5     6   ar
    31    28    29    1
    32    29    30    1
    33    30    25    1
    34     6     1   ar
    35    21    16   ar
    36    10    14    1
    37    13    15    1
@<TRIPOS>MOLECULE
*****
 35 37 0 0 0
SMALL
GASTEIGER

@<TRIPOS>ATOM
      1 C           8.4790   -5.0674   23.1434 C.ar    1  UNL1        0.1387
      2 C           7.1339   -4.4849   23.4617 C.ar    1  UNL1        0.0383
      3 C           6.3065   -3.8690   22.3726 C.ar    1  UNL1        0.0233
      4 C           6.8242   -3.8357   20.9652 C.ar    1  UNL1        0.1255
      5 C           8.1694   -4.4183   20.6469 C.ar    1  UNL1        0.0233
      6 C           8.9967   -5.0341   21.7360 C.ar    1  UNL1        0.0383
      7 S           5.9969   -3.2199   19.8761 S.O2    1  UNL1        0.0768
      8 O           4.8061   -4.0081   20.3350 O.2     1  UNL1       -0.1498
      9 O           7.1877   -2.4317   19.4171 O.2     1  UNL1       -0.1498
     10 N           5.1695   -2.6040   18.7870 N.am    1  UNL1       -0.1690
     11 C           4.4491   -1.3114   19.0322 C.2     1  UNL1        0.3231
     12 O           4.5560   -0.6347   20.3665 O.2     1  UNL1       -0.2509
     13 N           3.6217   -0.6956   17.9430 N.am    1  UNL1       -0.2671
     14 H           5.0994   -3.0482   17.9112 H       1  UNL1        0.1781
     15 H           3.5516   -1.1398   17.0672 H       1  UNL1        0.1565
     16 C           2.9013    0.5970   18.1882 C.ar    1  UNL1        0.0516
     17 C           3.6716    1.8816   18.2681 C.ar    1  UNL1        0.0147
     18 C           2.9512    3.1742   18.5133 C.ar    1  UNL1        0.0013
     19 C           1.4604    3.1822   18.6787 C.ar    1  UNL1        0.0001
     20 C           0.6900    1.8976   18.5988 C.ar    1  UNL1        0.0013
     21 C           1.4104    0.6050   18.3536 C.ar    1  UNL1        0.0147
     22 O           9.3064   -5.6833   24.2325 O.3     1  UNL1       -0.4740
     23 C           9.1590   -7.1412   24.5531 C.3     1  UNL1        0.2226
     24 C           7.9759   -7.6199   25.3412 C.3     1  UNL1        0.1200
     25 C           7.1396   -5.8982   29.4138 C.3     1  UNL1        0.1018
     26 C           8.2180   -6.9263   29.2412 C.3     1  UNL1        0.0285
     27 C           8.4968   -7.5003   27.8837 C.3     1  UNL1        0.0728
     28 N           7.6972   -7.0460   26.6988 N.3     1  UNL1       -0.2695
     29 C           6.6187   -6.0179   26.8713 C.3     1  UNL1        0.0728
     30 C           6.3399   -5.4439   28.2288 C.3     1  UNL1        0.0285
     31 C           6.8608   -5.3243   30.7713 C.2     1  UNL1        0.3165
     32 O           6.8018   -6.2255   31.9689 O.2     1  UNL1       -0.2501
     33 O           6.6410   -3.8491   30.9313 O.3     1  UNL1       -0.4485
     34 C           5.7980   -1.8899   32.4149 C.3     1  UNL1        0.0513
     35 C           6.3580   -3.2758   32.2882 C.3     1  UNL1        0.2086
@<TRIPOS>BOND
     1    34    35    1
     2    35    33    1
     3    33    31    1
     4    31    32    2
     5    31    25    1
     6    25    26    1
     7    26    27    1
     8    27    28    1
     9    28    24    1
    10    24    23    1
    11    23    22    1
    12    22     1    1
    13     1     2   ar
    14     2     3   ar
    15     3     4   ar
    16     4     7    1
    17     7     8    2
    18     7     9    2
    19     7    10    1
    20    10    11   am
    21    11    12    2
    22    11    13   am
    23    13    16    1
    24    16    17   ar
    25    17    18   ar
    26    18    19   ar
    27    19    20   ar
    28    20    21   ar
    29     4     5   ar
    30     5     6   ar
    31    28    29    1
    32    29    30    1
    33    30    25    1
    34     6     1   ar
    35    21    16   ar
    36    10    14    1
    37    13    15    1
@<TRIPOS>MOLECULE
*****
 35 37 0 0 0
SMALL
GASTEIGER

@<TRIPOS>ATOM
      1 C           4.4992   -2.3130   18.7399 C.ar    1  UNL1        0.1387
      2 C           3.5464   -2.2122   19.8939 C.ar    1  UNL1        0.0383
      3 C           2.6246   -1.0339   20.0047 C.ar    1  UNL1        0.0233
      4 C           2.6558    0.0434   18.9614 C.ar    1  UNL1        0.1255
      5 C           3.6088   -0.0575   17.8073 C.ar    1  UNL1        0.0233
      6 C           4.5305   -1.2357   17.6966 C.ar    1  UNL1        0.0383
      7 S           1.7342    1.2216   19.0721 S.O2    1  UNL1        0.0768
      8 O           2.6332    1.8275   20.1088 O.2     1  UNL1       -0.1498
      9 O           0.8352    0.6158   18.0355 O.2     1  UNL1       -0.1498
     10 N           0.8125    2.3998   19.1829 N.am    1  UNL1       -0.1690
     11 C          -0.3364    2.3653   20.1466 C.2     1  UNL1        0.3231
     12 O          -0.5637    1.1526   20.9996 O.2     1  UNL1       -0.2509
     13 N          -1.2581    3.5436   20.2573 N.am    1  UNL1       -0.2671
     14 H           0.9617    3.1958   18.6231 H       1  UNL1        0.1781
     15 H          -1.1090    4.3396   19.6975 H       1  UNL1        0.1565
     16 C          -2.4071    3.5091   21.2210 C.ar    1  UNL1        0.0516
     17 C          -3.7926    3.2168   20.7261 C.ar    1  UNL1        0.0147
     18 C          -4.9415    3.1823   21.6898 C.ar    1  UNL1        0.0013
     19 C          -4.7050    3.4401   23.1484 C.ar    1  UNL1        0.0001
     20 C          -3.3194    3.7324   23.6434 C.ar    1  UNL1        0.0013
     21 C          -2.1705    3.7669   22.6797 C.ar    1  UNL1        0.0147
     22 O           5.4210   -3.4913   18.6291 O.3     1  UNL1       -0.4740
     23 C           5.8250   -4.2459   19.8609 C.3     1  UNL1        0.2226
     24 C           6.9335   -3.7274   20.7282 C.3     1  UNL1        0.1200
     25 C           7.3091   -5.1403   24.9841 C.3     1  UNL1        0.1018
     26 C           8.1576   -5.7565   23.9116 C.3     1  UNL1        0.0285
     27 C           8.0324   -5.2855   22.4930 C.3     1  UNL1        0.0728
     28 N           7.0587   -4.1983   22.1468 N.3     1  UNL1       -0.2695
     29 C           6.2102   -3.5821   23.2193 C.3     1  UNL1        0.0728
     30 C           6.3354   -4.0531   24.6379 C.3     1  UNL1        0.0285
     31 C           7.4343   -5.6112   26.4027 C.2     1  UNL1        0.3165
     32 O           6.4395   -5.1635   27.4322 O.2     1  UNL1       -0.2501
     33 O           8.5543   -6.5299   26.7919 O.3     1  UNL1       -0.4485
     34 C           8.2789   -9.0104   27.5141 C.3     1  UNL1        0.0513
     35 C           8.3449   -7.5541   27.8676 C.3     1  UNL1        0.2086
@<TRIPOS>BOND
     1    34    35    1
     2    35    33    1
     3    33    31    1
     4    31    32    2
     5    31    25    1
     6    25    26    1
     7    26    27    1
     8    27    28    1
     9    28    24    1
    10    24    23    1
    11    23    22    1
    12    22     1    1
    13     1     2   ar
    14     2     3   ar
    15     3     4   ar
    16     4     7    1
    17     7     8    2
    18     7     9    2
    19     7    10    1
    20    10    11   am
    21    11    12    2
    22    11    13   am
    23    13    16    1
    24    16    17   ar
    25    17    18   ar
    26    18    19   ar
    27    19    20   ar
    28    20    21   ar
    29     4     5   ar
    30     5     6   ar
    31    28    29    1
    32    29    30    1
    33    30    25    1
    34     6     1   ar
    35    21    16   ar
    36    10    14    1
    37    13    15    1
@<TRIPOS>MOLECULE
*****
 35 37 0 0 0
SMALL
GASTEIGER

@<TRIPOS>ATOM
      1 C           0.9563    1.0306   22.0919 C.ar    1  UNL1        0.1387
      2 C           1.4869    1.6390   23.3561 C.ar    1  UNL1        0.0383
      3 C           2.6633    1.0193   24.0505 C.ar    1  UNL1        0.0233
      4 C           3.3090   -0.2089   23.4806 C.ar    1  UNL1        0.1255
      5 C           2.7783   -0.8173   22.2163 C.ar    1  UNL1        0.0233
      6 C           1.6020   -0.1975   21.5220 C.ar    1  UNL1        0.0383
      7 S           4.4853   -0.8286   24.1749 S.O2    1  UNL1        0.0768
      8 O           3.5868   -1.2929   25.2827 O.2     1  UNL1       -0.1498
      9 O           5.3837   -0.3643   23.0672 O.2     1  UNL1       -0.1498
     10 N           5.6616   -1.4484   24.8693 N.am    1  UNL1       -0.1690
     11 C           6.0656   -2.8568   24.5480 C.2     1  UNL1        0.3231
     12 O           5.2933   -3.6454   23.5324 O.2     1  UNL1       -0.2509
     13 N           7.2420   -3.4765   25.2424 N.am    1  UNL1       -0.2671
     14 H           6.1685   -0.9308   25.5359 H       1  UNL1        0.1781
     15 H           7.7489   -2.9589   25.9090 H       1  UNL1        0.1565
     16 C           7.6460   -4.8849   24.9211 C.ar    1  UNL1        0.0516
     17 C           7.3387   -5.9918   25.8856 C.ar    1  UNL1        0.0147
     18 C           7.7427   -7.4002   25.5643 C.ar    1  UNL1        0.0013
     19 C           8.4539   -7.7017   24.2786 C.ar    1  UNL1        0.0001
     20 C           8.7612   -6.5947   23.3140 C.ar    1  UNL1        0.0013
     21 C           8.3572   -5.1863   23.6353 C.ar    1  UNL1        0.0147
     22 O          -0.2201    1.6504   21.3975 O.3     1  UNL1       -0.4740
     23 C          -0.0722    2.1847   20.0037 C.3     1  UNL1        0.2226
     24 C           1.2341    2.7745   19.5613 C.3     1  UNL1        0.1200
     25 C           4.5171    0.0928   18.0514 C.3     1  UNL1        0.1018
     26 C           3.0894   -0.1945   17.6924 C.3     1  UNL1        0.0285
     27 C           1.9950    0.6994   18.1957 C.3     1  UNL1        0.0728
     28 N           2.3284    1.8806   19.0580 N.3     1  UNL1       -0.2695
     29 C           3.7562    2.1679   19.4169 C.3     1  UNL1        0.0728
     30 C           4.8506    1.2740   18.9136 C.3     1  UNL1        0.0285
     31 C           5.6115   -0.8011   17.5481 C.2     1  UNL1        0.3165
     32 O           6.9319   -0.2155   17.1436 O.2     1  UNL1       -0.2501
     33 O           5.3855   -2.2807   17.4492 O.3     1  UNL1       -0.4485
     34 C           4.6900   -4.4355   18.7233 C.3     1  UNL1        0.0513
     35 C           5.4280   -3.1301   18.6848 C.3     1  UNL1        0.2086
@<TRIPOS>BOND
     1    34    35    1
     2    35    33    1
     3    33    31    1
     4    31    32    2
     5    31    25    1
     6    25    26    1
     7    26    27    1
     8    27    28    1
     9    28    24    1
    10    24    23    1
    11    23    22    1
    12    22     1    1
    13     1     2   ar
    14     2     3   ar
    15     3     4   ar
    16     4     7    1
    17     7     8    2
    18     7     9    2
    19     7    10    1
    20    10    11   am
    21    11    12    2
    22    11    13   am
    23    13    16    1
    24    16    17   ar
    25    17    18   ar
    26    18    19   ar
    27    19    20   ar
    28    20    21   ar
    29     4     5   ar
    30     5     6   ar
    31    28    29    1
    32    29    30    1
    33    30    25    1
    34     6     1   ar
    35    21    16   ar
    36    10    14    1
    37    13    15    1
