@<TRIPOS>MOLECULE
*****
 37 40 0 0 0
SMALL
GASTEIGER

@<TRIPOS>ATOM
      1 C           3.0616   -0.9971   22.2641 C.ar    1  UNL1       -0.0224
      2 C           3.6443   -1.9891   21.3017 C.ar    1  UNL1       -0.0041
      3 C           4.6403   -3.0031   21.7811 C.ar    1  UNL1        0.0042
      4 C           5.0536   -3.0250   23.2228 C.ar    1  UNL1        0.0537
      5 C           4.4710   -2.0329   24.1852 C.ar    1  UNL1        0.0042
      6 C           3.4750   -1.0190   23.7059 C.ar    1  UNL1       -0.0041
      7 N           0.0735    2.0449   20.8261 N.3     1  UNL1       -0.2689
      8 C           0.0654    0.6577   20.2555 C.3     1  UNL1        0.0727
      9 C           1.0614   -0.3563   20.7348 C.3     1  UNL1        0.0217
     10 C           2.0656    0.0170   21.7848 C.3     1  UNL1        0.0251
     11 C           2.0737    1.4041   22.3554 C.3     1  UNL1        0.0217
     12 C           1.0777    2.4182   21.8760 C.3     1  UNL1        0.0727
     13 C          -0.9225    3.0589   20.3467 C.3     1  UNL1        0.0991
     14 C          -4.6421    3.8683   22.7467 C.ar    1  UNL1        0.0533
     15 C          -3.2949    3.9475   23.4015 C.ar    1  UNL1        0.0042
     16 C          -2.0551    3.6777   22.6016 C.ar    1  UNL1       -0.0028
     17 C          -2.1624    3.3287   21.1467 C.ar    1  UNL1       -0.0061
     18 C          -3.5095    3.2494   20.4918 C.ar    1  UNL1       -0.0028
     19 C          -4.7493    3.5192   21.2918 C.ar    1  UNL1        0.0042
     20 C          -8.4722    4.2519   23.7126 C.3     1  UNL1        0.1109
     21 N          -7.2323    3.9821   22.9126 N.am    1  UNL1       -0.2992
     22 C          -5.8819    4.1380   23.5467 C.2     1  UNL1        0.2459
     23 O          -5.7714    4.5638   24.9807 O.2     1  UNL1       -0.2701
     24 H          -7.3049    3.7027   21.9714 H       1  UNL1        0.1498
     25 C           6.0497   -4.0390   23.7022 C.2     1  UNL1        0.2495
     26 O           6.8269   -4.8536   22.7110 O.2     1  UNL1       -0.2698
     27 N           6.2685   -4.2384   25.1726 N.am    1  UNL1       -0.2794
     28 H           5.7584   -3.7038   25.8232 H       1  UNL1        0.1552
     29 C           7.2645   -5.2524   25.6519 C.ar    1  UNL1        0.0636
     30 C           8.5330   -5.4789   24.8839 C.ar    1  UNL1        0.0159
     31 C           9.5290   -6.4929   25.3632 C.ar    1  UNL1        0.0014
     32 C           9.2566   -7.2805   26.6104 C.ar    1  UNL1        0.0013
     33 C           7.9882   -7.0540   27.3784 C.ar    1  UNL1        0.0153
     34 C           6.9921   -6.0400   26.8991 C.ar    1  UNL1        0.0552
     35 N           5.7237   -5.8135   27.6671 N.pl3   1  UNL1       -0.3560
     36 H           5.5449   -6.3304   28.4857 H       1  UNL1        0.1424
     37 H           5.0700   -5.1480   27.3525 H       1  UNL1        0.1424
@<TRIPOS>BOND
     1    20    21    1
     2    21    22   am
     3    22    23    2
     4    22    14    1
     5    14    15   ar
     6    15    16   ar
     7    16    17   ar
     8    17    13    1
     9    13     7    1
    10     7     8    1
    11     8     9    1
    12     9    10    1
    13    10     1    1
    14     1     2   ar
    15     2     3   ar
    16     3     4   ar
    17     4    25    1
    18    25    26    2
    19    25    27   am
    20    27    29    1
    21    29    30   ar
    22    30    31   ar
    23    31    32   ar
    24    32    33   ar
    25    33    34   ar
    26    34    35    1
    27     4     5   ar
    28     5     6   ar
    29    10    11    1
    30    11    12    1
    31    17    18   ar
    32    18    19   ar
    33    19    14   ar
    34    12     7    1
    35     6     1   ar
    36    34    29   ar
    37    21    24    1
    38    27    28    1
    39    35    36    1
    40    35    37    1
@<TRIPOS>MOLECULE
*****
 37 40 0 0 0
SMALL
GASTEIGER

@<TRIPOS>ATOM
      1 C           0.3738    1.6285   26.9202 C.ar    1  UNL1       -0.0224
      2 C           0.3748    1.4825   25.4274 C.ar    1  UNL1       -0.0041
      3 C          -0.6810    2.1619   24.6067 C.ar    1  UNL1        0.0042
      4 C          -1.7379    2.9873   25.2789 C.ar    1  UNL1        0.0537
      5 C          -1.7389    3.1333   26.7718 C.ar    1  UNL1        0.0042
      6 C          -0.6830    2.4539   27.5924 C.ar    1  UNL1       -0.0041
      7 N           3.5414   -0.4098   29.3824 N.3     1  UNL1       -0.2689
      8 C           3.9277    0.3727   28.1623 C.3     1  UNL1        0.0727
      9 C           2.8719    1.0521   27.3416 C.3     1  UNL1        0.0217
     10 C           1.4297    0.9491   27.7410 C.3     1  UNL1        0.0251
     11 C           1.0434    0.1667   28.9610 C.3     1  UNL1        0.0217
     12 C           2.0993   -0.5128   29.7818 C.3     1  UNL1        0.0727
     13 C           4.5973   -1.0891   30.2031 C.3     1  UNL1        0.0991
     14 C           4.8836   -0.2766   34.6199 C.ar    1  UNL1        0.0533
     15 C           5.1800    0.8157   33.6356 C.ar    1  UNL1        0.0042
     16 C           5.0845    0.5449   32.1633 C.ar    1  UNL1       -0.0028
     17 C           4.6927   -0.8183   31.6753 C.ar    1  UNL1       -0.0061
     18 C           4.3964   -1.9106   32.6596 C.ar    1  UNL1       -0.0028
     19 C           4.4918   -1.6398   34.1319 C.ar    1  UNL1        0.0042
     20 C           4.0250    1.0936   38.2441 C.3     1  UNL1        0.1109
     21 N           3.9296    0.8228   36.7719 N.am    1  UNL1       -0.2992
     22 C           4.9790   -0.0058   36.0921 C.2     1  UNL1        0.2459
     23 O           6.1239   -0.5634   36.8846 O.2     1  UNL1       -0.2701
     24 H           3.1781    1.1888   36.2517 H       1  UNL1        0.1498
     25 C          -2.7938    3.6668   24.4582 C.2     1  UNL1        0.2495
     26 O          -2.6909    5.1354   24.1708 O.2     1  UNL1       -0.2698
     27 N          -3.9525    2.8776   23.9248 N.am    1  UNL1       -0.2794
     28 H          -4.0200    1.9137   24.1134 H       1  UNL1        0.1552
     29 C          -5.0083    3.5570   23.1041 C.ar    1  UNL1        0.0636
     30 C          -6.1058    4.3241   23.7803 C.ar    1  UNL1        0.0159
     31 C          -7.1616    5.0036   22.9596 C.ar    1  UNL1        0.0014
     32 C          -7.1200    4.9159   21.4627 C.ar    1  UNL1        0.0013
     33 C          -6.0226    4.1489   20.7865 C.ar    1  UNL1        0.0153
     34 C          -4.9667    3.4694   21.6072 C.ar    1  UNL1        0.0552
     35 N          -3.8693    2.7023   20.9311 N.pl3   1  UNL1       -0.3560
     36 H          -3.8420    2.6448   19.9486 H       1  UNL1        0.1424
     37 H          -3.1763    2.2564   21.4697 H       1  UNL1        0.1424
@<TRIPOS>BOND
     1    20    21    1
     2    21    22   am
     3    22    23    2
     4    22    14    1
     5    14    15   ar
     6    15    16   ar
     7    16    17   ar
     8    17    13    1
     9    13     7    1
    10     7     8    1
    11     8     9    1
    12     9    10    1
    13    10     1    1
    14     1     2   ar
    15     2     3   ar
    16     3     4   ar
    17     4    25    1
    18    25    26    2
    19    25    27   am
    20    27    29    1
    21    29    30   ar
    22    30    31   ar
    23    31    32   ar
    24    32    33   ar
    25    33    34   ar
    26    34    35    1
    27     4     5   ar
    28     5     6   ar
    29    10    11    1
    30    11    12    1
    31    17    18   ar
    32    18    19   ar
    33    19    14   ar
    34    12     7    1
    35     6     1   ar
    36    34    29   ar
    37    21    24    1
    38    27    28    1
    39    35    36    1
    40    35    37    1
@<TRIPOS>MOLECULE
*****
 37 40 0 0 0
SMALL
GASTEIGER

@<TRIPOS>ATOM
      1 C           1.9832   -0.0326   20.6156 C.ar    1  UNL1       -0.0224
      2 C           2.4313   -0.1482   22.0424 C.ar    1  UNL1       -0.0041
      3 C           3.3826   -1.2362   22.4439 C.ar    1  UNL1        0.0042
      4 C           3.8858   -2.2086   21.4186 C.ar    1  UNL1        0.0537
      5 C           3.4377   -2.0930   19.9918 C.ar    1  UNL1        0.0042
      6 C           2.4864   -1.0050   19.5903 C.ar    1  UNL1       -0.0041
      7 N          -0.8708    3.2315   19.4109 N.3     1  UNL1       -0.2689
      8 C          -0.8505    2.7379   20.8273 C.3     1  UNL1        0.0727
      9 C           0.1008    1.6499   21.2288 C.3     1  UNL1        0.0217
     10 C           1.0319    1.0554   20.2140 C.3     1  UNL1        0.0251
     11 C           1.0116    1.5489   18.7977 C.3     1  UNL1        0.0217
     12 C           0.0602    2.6370   18.3961 C.3     1  UNL1        0.0727
     13 C          -1.8221    4.3194   19.0094 C.3     1  UNL1        0.0991
     14 C          -5.6980    4.8529   21.2326 C.ar    1  UNL1        0.0533
     15 C          -5.5427    3.7252   20.2559 C.ar    1  UNL1        0.0042
     16 C          -4.2507    3.5473   19.5148 C.ar    1  UNL1       -0.0028
     17 C          -3.1141    4.4973   19.7505 C.ar    1  UNL1       -0.0061
     18 C          -3.2694    5.6250   20.7272 C.ar    1  UNL1       -0.0028
     19 C          -4.5614    5.8028   21.4682 C.ar    1  UNL1        0.0042
     20 C          -8.5718    4.3750   23.9276 C.3     1  UNL1        0.1109
     21 N          -7.2798    4.1972   23.1865 N.am    1  UNL1       -0.2992
     22 C          -6.9900    5.0307   21.9736 C.2     1  UNL1        0.2459
     23 O          -7.9922    6.0421   21.5018 O.2     1  UNL1       -0.2701
     24 H          -6.6220    3.5334   23.4962 H       1  UNL1        0.1498
     25 C           4.8371   -3.2966   21.8202 C.2     1  UNL1        0.2495
     26 O           4.6968   -4.6699   21.2333 O.2     1  UNL1       -0.2698
     27 N           5.9287   -3.0114   22.8086 N.am    1  UNL1       -0.2794
     28 H           6.0208   -2.1101   23.1938 H       1  UNL1        0.1552
     29 C           6.8800   -4.0994   23.2101 C.ar    1  UNL1        0.0636
     30 C           6.8282   -4.6666   24.5978 C.ar    1  UNL1        0.0159
     31 C           7.7794   -5.7546   24.9994 C.ar    1  UNL1        0.0014
     32 C           8.7826   -6.2755   24.0132 C.ar    1  UNL1        0.0013
     33 C           8.8344   -5.7084   22.6256 C.ar    1  UNL1        0.0153
     34 C           7.8831   -4.6203   22.2240 C.ar    1  UNL1        0.0552
     35 N           7.9350   -4.0531   20.8364 N.pl3   1  UNL1       -0.3560
     36 H           8.5934   -4.3950   20.1891 H       1  UNL1        0.1424
     37 H           7.3106   -3.3390   20.5728 H       1  UNL1        0.1424
@<TRIPOS>BOND
     1    20    21    1
     2    21    22   am
     3    22    23    2
     4    22    14    1
     5    14    15   ar
     6    15    16   ar
     7    16    17   ar
     8    17    13    1
     9    13     7    1
    10     7     8    1
    11     8     9    1
    12     9    10    1
    13    10     1    1
    14     1     2   ar
    15     2     3   ar
    16     3     4   ar
    17     4    25    1
    18    25    26    2
    19    25    27   am
    20    27    29    1
    21    29    30   ar
    22    30    31   ar
    23    31    32   ar
    24    32    33   ar
    25    33    34   ar
    26    34    35    1
    27     4     5   ar
    28     5     6   ar
    29    10    11    1
    30    11    12    1
    31    17    18   ar
    32    18    19   ar
    33    19    14   ar
    34    12     7    1
    35     6     1   ar
    36    34    29   ar
    37    21    24    1
    38    27    28    1
    39    35    36    1
    40    35    37    1
@<TRIPOS>MOLECULE
*****
 37 40 0 0 0
SMALL
GASTEIGER

@<TRIPOS>ATOM
      1 C           6.4742   -2.4679   32.7134 C.ar    1  UNL1       -0.0224
      2 C           7.2041   -1.3149   33.3361 C.ar    1  UNL1       -0.0041
      3 C           6.4719   -0.3586   34.2302 C.ar    1  UNL1        0.0042
      4 C           5.0098   -0.5554   34.5016 C.ar    1  UNL1        0.0537
      5 C           4.2799   -1.7084   33.8788 C.ar    1  UNL1        0.0042
      6 C           5.0121   -2.6646   32.9848 C.ar    1  UNL1       -0.0041
      7 N           8.6707   -5.3369   30.0311 N.3     1  UNL1       -0.2689
      8 C           7.5140   -5.8176   30.8565 C.3     1  UNL1        0.0727
      9 C           6.7819   -4.8613   31.7505 C.3     1  UNL1        0.0217
     10 C           7.2064   -3.4242   31.8193 C.3     1  UNL1        0.0251
     11 C           8.3629   -2.9435   30.9940 C.3     1  UNL1        0.0217
     12 C           9.0951   -3.8999   30.0998 C.3     1  UNL1        0.0727
     13 C           9.4028   -6.2932   29.1370 C.3     1  UNL1        0.0991
     14 C           8.7799   -6.1353   24.6831 C.ar    1  UNL1        0.0533
     15 C           8.4410   -7.3827   25.4440 C.ar    1  UNL1        0.0042
     16 C           8.6486   -7.4354   26.9287 C.ar    1  UNL1       -0.0028
     17 C           9.1951   -6.2406   27.6524 C.ar    1  UNL1       -0.0061
     18 C           9.5340   -4.9932   26.8915 C.ar    1  UNL1       -0.0028
     19 C           9.3264   -4.9405   25.4068 C.ar    1  UNL1        0.0042
     20 C           8.2124   -4.7066   21.0243 C.3     1  UNL1        0.1109
     21 N           8.4201   -4.7593   22.5090 N.am    1  UNL1       -0.2992
     22 C           8.5723   -6.0826   23.1985 C.2     1  UNL1        0.2459
     23 O           8.5169   -7.3533   22.4034 O.2     1  UNL1       -0.2701
     24 H           8.4564   -3.9252   23.0308 H       1  UNL1        0.1498
     25 C           4.2776    0.4010   35.3957 C.2     1  UNL1        0.2495
     26 O           3.6331    1.6254   34.8165 O.2     1  UNL1       -0.2698
     27 N           4.1900    0.1329   36.8689 N.am    1  UNL1       -0.2794
     28 H           4.6130   -0.6708   37.2490 H       1  UNL1        0.1552
     29 C           3.4578    1.0892   37.7629 C.ar    1  UNL1        0.0636
     30 C           2.1570    0.6833   38.3902 C.ar    1  UNL1        0.0159
     31 C           1.4249    1.6397   39.2842 C.ar    1  UNL1        0.0014
     32 C           1.9934    3.0018   39.5511 C.ar    1  UNL1        0.0013
     33 C           3.2941    3.4077   38.9239 C.ar    1  UNL1        0.0153
     34 C           4.0264    2.4514   38.0298 C.ar    1  UNL1        0.0552
     35 N           5.3271    2.8572   37.4026 N.pl3   1  UNL1       -0.3560
     36 H           5.7002    3.7513   37.5778 H       1  UNL1        0.1424
     37 H           5.8076    2.2296   36.8158 H       1  UNL1        0.1424
@<TRIPOS>BOND
     1    20    21    1
     2    21    22   am
     3    22    23    2
     4    22    14    1
     5    14    15   ar
     6    15    16   ar
     7    16    17   ar
     8    17    13    1
     9    13     7    1
    10     7     8    1
    11     8     9    1
    12     9    10    1
    13    10     1    1
    14     1     2   ar
    15     2     3   ar
    16     3     4   ar
    17     4    25    1
    18    25    26    2
    19    25    27   am
    20    27    29    1
    21    29    30   ar
    22    30    31   ar
    23    31    32   ar
    24    32    33   ar
    25    33    34   ar
    26    34    35    1
    27     4     5   ar
    28     5     6   ar
    29    10    11    1
    30    11    12    1
    31    17    18   ar
    32    18    19   ar
    33    19    14   ar
    34    12     7    1
    35     6     1   ar
    36    34    29   ar
    37    21    24    1
    38    27    28    1
    39    35    36    1
    40    35    37    1
@<TRIPOS>MOLECULE
*****
 37 40 0 0 0
SMALL
GASTEIGER

@<TRIPOS>ATOM
      1 C          -0.7787    2.2971   25.8775 C.ar    1  UNL1       -0.0224
      2 C          -2.1257    2.9027   26.1396 C.ar    1  UNL1       -0.0041
      3 C          -2.9229    3.4774   25.0064 C.ar    1  UNL1        0.0042
      4 C          -2.3730    3.4465   23.6111 C.ar    1  UNL1        0.0537
      5 C          -1.0260    2.8409   23.3491 C.ar    1  UNL1        0.0042
      6 C          -0.2289    2.2661   24.4823 C.ar    1  UNL1       -0.0041
      7 N           1.6131    0.5728   29.2771 N.3     1  UNL1       -0.2689
      8 C           2.2091    1.6380   28.4052 C.3     1  UNL1        0.0727
      9 C           1.4118    2.2127   27.2720 C.3     1  UNL1        0.0217
     10 C           0.0186    1.7223   27.0107 C.3     1  UNL1        0.0251
     11 C          -0.5775    0.6572   27.8826 C.3     1  UNL1        0.0217
     12 C           0.2198    0.0824   29.0158 C.3     1  UNL1        0.0727
     13 C           2.4103   -0.0019   30.4102 C.3     1  UNL1        0.0991
     14 C           2.7148    2.2295   34.3062 C.ar    1  UNL1        0.0533
     15 C           1.6738    2.6182   33.2986 C.ar    1  UNL1        0.0042
     16 C           1.5723    1.8744   32.0000 C.ar    1  UNL1       -0.0028
     17 C           2.5118    0.7419   31.7089 C.ar    1  UNL1       -0.0061
     18 C           3.5528    0.3532   32.7164 C.ar    1  UNL1       -0.0028
     19 C           3.6543    1.0970   34.0150 C.ar    1  UNL1        0.0042
     20 C           2.1024    3.2796   38.0840 C.3     1  UNL1        0.1109
     21 N           2.0009    2.5358   36.7854 N.am    1  UNL1       -0.2992
     22 C           2.8163    2.9733   35.6048 C.2     1  UNL1        0.2459
     23 O           3.7331    4.1545   35.7229 O.2     1  UNL1       -0.2701
     24 H           1.3992    1.7605   36.7079 H       1  UNL1        0.1498
     25 C          -3.1703    4.0213   22.4779 C.2     1  UNL1        0.2495
     26 O          -3.1144    5.4928   22.1921 O.2     1  UNL1       -0.2698
     27 N          -4.0234    3.1246   21.6305 N.am    1  UNL1       -0.2794
     28 H          -4.0601    2.1588   21.8181 H       1  UNL1        0.1552
     29 C          -4.8206    3.6994   20.4974 C.ar    1  UNL1        0.0636
     30 C          -4.2257    3.7706   19.1222 C.ar    1  UNL1        0.0159
     31 C          -5.0229    4.3454   17.9890 C.ar    1  UNL1        0.0014
     32 C          -6.4150    4.8490   18.2310 C.ar    1  UNL1        0.0013
     33 C          -7.0099    4.7778   19.6061 C.ar    1  UNL1        0.0153
     34 C          -6.2127    4.2030   20.7394 C.ar    1  UNL1        0.0552
     35 N          -6.8076    4.1317   22.1145 N.pl3   1  UNL1       -0.3560
     36 H          -7.7212    4.4622   22.2733 H       1  UNL1        0.1424
     37 H          -6.2844    3.7545   22.8582 H       1  UNL1        0.1424
@<TRIPOS>BOND
     1    20    21    1
     2    21    22   am
     3    22    23    2
     4    22    14    1
     5    14    15   ar
     6    15    16   ar
     7    16    17   ar
     8    17    13    1
     9    13     7    1
    10     7     8    1
    11     8     9    1
    12     9    10    1
    13    10     1    1
    14     1     2   ar
    15     2     3   ar
    16     3     4   ar
    17     4    25    1
    18    25    26    2
    19    25    27   am
    20    27    29    1
    21    29    30   ar
    22    30    31   ar
    23    31    32   ar
    24    32    33   ar
    25    33    34   ar
    26    34    35    1
    27     4     5   ar
    28     5     6   ar
    29    10    11    1
    30    11    12    1
    31    17    18   ar
    32    18    19   ar
    33    19    14   ar
    34    12     7    1
    35     6     1   ar
    36    34    29   ar
    37    21    24    1
    38    27    28    1
    39    35    36    1
    40    35    37    1
@<TRIPOS>MOLECULE
*****
 37 40 0 0 0
SMALL
GASTEIGER

@<TRIPOS>ATOM
      1 C           0.3664    1.6473   26.9658 C.ar    1  UNL1       -0.0224
      2 C           0.4763    1.6379   25.4699 C.ar    1  UNL1       -0.0041
      3 C          -0.5638    2.3269   24.6372 C.ar    1  UNL1        0.0042
      4 C          -1.7138    3.0252   25.3004 C.ar    1  UNL1        0.0537
      5 C          -1.8237    3.0346   26.7963 C.ar    1  UNL1        0.0042
      6 C          -0.7836    2.3456   27.6290 C.ar    1  UNL1       -0.0041
      7 N           3.4867   -0.4197   29.4643 N.3     1  UNL1       -0.2689
      8 C           2.0360   -0.5389   29.8265 C.3     1  UNL1        0.0727
      9 C           0.9959    0.1501   28.9937 C.3     1  UNL1        0.0217
     10 C           1.4066    0.9583   27.7987 C.3     1  UNL1        0.0251
     11 C           2.8572    1.0776   27.4364 C.3     1  UNL1        0.0217
     12 C           3.8974    0.3886   28.2692 C.3     1  UNL1        0.0727
     13 C           4.5268   -1.1086   30.2971 C.3     1  UNL1        0.0991
     14 C           4.7924   -0.2715   34.7105 C.ar    1  UNL1        0.0533
     15 C           4.4261   -1.6437   34.2282 C.ar    1  UNL1        0.0042
     16 C           4.3376   -1.9228   32.7570 C.ar    1  UNL1       -0.0028
     17 C           4.6153   -0.8296   31.7682 C.ar    1  UNL1       -0.0061
     18 C           4.9816    0.5427   32.2506 C.ar    1  UNL1       -0.0028
     19 C           5.0701    0.8217   33.7217 C.ar    1  UNL1        0.0042
     20 C           3.9126    1.1123   38.3245 C.3     1  UNL1        0.1109
     21 N           3.8241    0.8332   36.8534 N.am    1  UNL1       -0.2992
     22 C           4.8809    0.0076   36.1817 C.2     1  UNL1        0.2459
     23 O           6.0264   -0.5390   36.9811 O.2     1  UNL1       -0.2701
     24 H           3.0722    1.1920   36.3287 H       1  UNL1        0.1498
     25 C          -2.7539    3.7142   24.4676 C.2     1  UNL1        0.2495
     26 O          -2.3826    4.9110   23.6430 O.2     1  UNL1       -0.2698
     27 N          -4.1653    3.2064   24.4593 N.am    1  UNL1       -0.2794
     28 H          -4.4090    2.4209   25.0005 H       1  UNL1        0.1552
     29 C          -5.2053    3.8954   23.6265 C.ar    1  UNL1        0.0636
     30 C          -5.2896    3.6214   22.1541 C.ar    1  UNL1        0.0159
     31 C          -6.3296    4.3103   21.3214 C.ar    1  UNL1        0.0014
     32 C          -7.2854    5.2734   21.9609 C.ar    1  UNL1        0.0013
     33 C          -7.2012    5.5474   23.4332 C.ar    1  UNL1        0.0153
     34 C          -6.1611    4.8584   24.2661 C.ar    1  UNL1        0.0552
     35 N          -6.0769    5.1325   25.7384 N.pl3   1  UNL1       -0.3560
     36 H          -6.7042    5.7646   26.1581 H       1  UNL1        0.1424
     37 H          -5.3943    4.6803   26.2850 H       1  UNL1        0.1424
@<TRIPOS>BOND
     1    20    21    1
     2    21    22   am
     3    22    23    2
     4    22    14    1
     5    14    15   ar
     6    15    16   ar
     7    16    17   ar
     8    17    13    1
     9    13     7    1
    10     7     8    1
    11     8     9    1
    12     9    10    1
    13    10     1    1
    14     1     2   ar
    15     2     3   ar
    16     3     4   ar
    17     4    25    1
    18    25    26    2
    19    25    27   am
    20    27    29    1
    21    29    30   ar
    22    30    31   ar
    23    31    32   ar
    24    32    33   ar
    25    33    34   ar
    26    34    35    1
    27     4     5   ar
    28     5     6   ar
    29    10    11    1
    30    11    12    1
    31    17    18   ar
    32    18    19   ar
    33    19    14   ar
    34    12     7    1
    35     6     1   ar
    36    34    29   ar
    37    21    24    1
    38    27    28    1
    39    35    36    1
    40    35    37    1
@<TRIPOS>MOLECULE
*****
 37 40 0 0 0
SMALL
GASTEIGER

@<TRIPOS>ATOM
      1 C           0.3885    2.8235   28.4589 C.ar    1  UNL1       -0.0224
      2 C           0.1882    4.3032   28.3165 C.ar    1  UNL1       -0.0041
      3 C          -0.9345    4.8303   27.4730 C.ar    1  UNL1        0.0042
      4 C          -1.8570    3.8777   26.7718 C.ar    1  UNL1        0.0537
      5 C          -1.6567    2.3980   26.9142 C.ar    1  UNL1        0.0042
      6 C          -0.5340    1.8709   27.7577 C.ar    1  UNL1       -0.0041
      7 N           3.7567    1.2419   30.9895 N.3     1  UNL1       -0.2689
      8 C           2.4870    0.4549   30.8539 C.3     1  UNL1        0.0727
      9 C           1.3643    0.9821   30.0104 C.3     1  UNL1        0.0217
     10 C           1.5113    2.2963   29.3024 C.3     1  UNL1        0.0251
     11 C           2.7810    3.0833   29.4380 C.3     1  UNL1        0.0217
     12 C           3.9037    2.5561   30.2816 C.3     1  UNL1        0.0727
     13 C           4.8794    0.7147   31.8331 C.3     1  UNL1        0.0991
     14 C           6.5520   -3.3877   31.0440 C.ar    1  UNL1        0.0533
     15 C           6.3738   -2.4199   29.9120 C.ar    1  UNL1        0.0042
     16 C           5.8163   -1.0525   30.1750 C.ar    1  UNL1       -0.0028
     17 C           5.4370   -0.6527   31.5701 C.ar    1  UNL1       -0.0061
     18 C           5.6152   -1.6205   32.7021 C.ar    1  UNL1       -0.0028
     19 C           6.1727   -2.9880   32.4391 C.ar    1  UNL1        0.0042
     20 C           8.7652   -6.6643   31.3844 C.3     1  UNL1        0.1109
     21 N           8.2077   -5.2968   31.6475 N.am    1  UNL1       -0.2992
     22 C           7.1096   -4.7552   30.7810 C.2     1  UNL1        0.2459
     23 O           6.5690   -5.5810   29.6516 O.2     1  UNL1       -0.2701
     24 H           8.5625   -4.7548   32.3888 H       1  UNL1        0.1498
     25 C          -2.9797    4.4049   25.9283 C.2     1  UNL1        0.2495
     26 O          -2.6928    5.3677   24.8144 O.2     1  UNL1       -0.2698
     27 N          -4.3894    3.9693   26.1986 N.am    1  UNL1       -0.2794
     28 H          -4.5777    3.3373   26.9296 H       1  UNL1        0.1552
     29 C          -5.5121    4.4964   25.3550 C.ar    1  UNL1        0.0636
     30 C          -6.3433    5.6448   25.8453 C.ar    1  UNL1        0.0159
     31 C          -7.4660    6.1720   25.0018 C.ar    1  UNL1        0.0014
     32 C          -7.7575    5.5509   23.6679 C.ar    1  UNL1        0.0013
     33 C          -6.9264    4.4025   23.1776 C.ar    1  UNL1        0.0153
     34 C          -5.8036    3.8753   24.0212 C.ar    1  UNL1        0.0552
     35 N          -4.9725    2.7269   23.5309 N.pl3   1  UNL1       -0.3560
     36 H          -5.1638    2.3192   22.6554 H       1  UNL1        0.1424
     37 H          -4.2356    2.3809   24.0845 H       1  UNL1        0.1424
@<TRIPOS>BOND
     1    20    21    1
     2    21    22   am
     3    22    23    2
     4    22    14    1
     5    14    15   ar
     6    15    16   ar
     7    16    17   ar
     8    17    13    1
     9    13     7    1
    10     7     8    1
    11     8     9    1
    12     9    10    1
    13    10     1    1
    14     1     2   ar
    15     2     3   ar
    16     3     4   ar
    17     4    25    1
    18    25    26    2
    19    25    27   am
    20    27    29    1
    21    29    30   ar
    22    30    31   ar
    23    31    32   ar
    24    32    33   ar
    25    33    34   ar
    26    34    35    1
    27     4     5   ar
    28     5     6   ar
    29    10    11    1
    30    11    12    1
    31    17    18   ar
    32    18    19   ar
    33    19    14   ar
    34    12     7    1
    35     6     1   ar
    36    34    29   ar
    37    21    24    1
    38    27    28    1
    39    35    36    1
    40    35    37    1
@<TRIPOS>MOLECULE
*****
 37 40 0 0 0
SMALL
GASTEIGER

@<TRIPOS>ATOM
      1 C          -0.1988    2.6823   27.6519 C.ar    1  UNL1       -0.0224
      2 C          -0.2152    1.8280   26.4191 C.ar    1  UNL1       -0.0041
      3 C          -1.0595    2.2233   25.2440 C.ar    1  UNL1        0.0042
      4 C          -1.8873    3.4729   25.3017 C.ar    1  UNL1        0.0537
      5 C          -1.8709    4.3271   26.5346 C.ar    1  UNL1        0.0042
      6 C          -1.0266    3.9318   27.7097 C.ar    1  UNL1       -0.0041
      7 N           2.3341    1.4965   31.1774 N.3     1  UNL1       -0.2689
      8 C           1.8284    0.4485   30.2308 C.3     1  UNL1        0.0727
      9 C           0.9842    0.8437   29.0557 C.3     1  UNL1        0.0217
     10 C           0.6455    2.2870   28.8271 C.3     1  UNL1        0.0251
     11 C           1.1512    3.3350   29.7736 C.3     1  UNL1        0.0217
     12 C           1.9955    2.9398   30.9488 C.3     1  UNL1        0.0727
     13 C           3.1784    1.1012   32.3525 C.3     1  UNL1        0.0991
     14 C           6.0644   -2.3330   31.9959 C.ar    1  UNL1        0.0533
     15 C           6.2362   -1.1165   31.1354 C.ar    1  UNL1        0.0042
     16 C           5.2742    0.0282   31.2542 C.ar    1  UNL1       -0.0028
     17 C           4.1404   -0.0435   32.2336 C.ar    1  UNL1       -0.0061
     18 C           3.9686   -1.2600   33.0942 C.ar    1  UNL1       -0.0028
     19 C           4.9306   -2.4048   32.9753 C.ar    1  UNL1        0.0042
     20 C           7.5009   -5.9684   31.3099 C.3     1  UNL1        0.1109
     21 N           6.5389   -4.8236   31.4287 N.am    1  UNL1       -0.2992
     22 C           7.0264   -3.4778   31.8770 C.2     1  UNL1        0.2459
     23 O           8.4758   -3.2767   32.2065 O.2     1  UNL1       -0.2701
     24 H           5.5876   -4.9556   31.2125 H       1  UNL1        0.1498
     25 C          -2.7316    3.8681   24.1266 C.2     1  UNL1        0.2495
     26 O          -2.3856    5.0928   23.3325 O.2     1  UNL1       -0.2698
     27 N          -3.9219    3.0387   23.7454 N.am    1  UNL1       -0.2794
     28 H          -4.1491    2.2349   24.2666 H       1  UNL1        0.1552
     29 C          -4.7662    3.4340   22.5703 C.ar    1  UNL1        0.0636
     30 C          -4.2667    3.1999   21.1754 C.ar    1  UNL1        0.0159
     31 C          -5.1110    3.5952   20.0002 C.ar    1  UNL1        0.0014
     32 C          -6.4547    4.2246   20.2200 C.ar    1  UNL1        0.0013
     33 C          -6.9541    4.4587   21.6148 C.ar    1  UNL1        0.0153
     34 C          -6.1099    4.0634   22.7900 C.ar    1  UNL1        0.0552
     35 N          -6.6093    4.2976   24.1849 N.pl3   1  UNL1       -0.3560
     36 H          -7.4913    4.7107   24.3291 H       1  UNL1        0.1424
     37 H          -6.0553    4.0381   24.9562 H       1  UNL1        0.1424
@<TRIPOS>BOND
     1    20    21    1
     2    21    22   am
     3    22    23    2
     4    22    14    1
     5    14    15   ar
     6    15    16   ar
     7    16    17   ar
     8    17    13    1
     9    13     7    1
    10     7     8    1
    11     8     9    1
    12     9    10    1
    13    10     1    1
    14     1     2   ar
    15     2     3   ar
    16     3     4   ar
    17     4    25    1
    18    25    26    2
    19    25    27   am
    20    27    29    1
    21    29    30   ar
    22    30    31   ar
    23    31    32   ar
    24    32    33   ar
    25    33    34   ar
    26    34    35    1
    27     4     5   ar
    28     5     6   ar
    29    10    11    1
    30    11    12    1
    31    17    18   ar
    32    18    19   ar
    33    19    14   ar
    34    12     7    1
    35     6     1   ar
    36    34    29   ar
    37    21    24    1
    38    27    28    1
    39    35    36    1
    40    35    37    1
@<TRIPOS>MOLECULE
*****
 37 40 0 0 0
SMALL
GASTEIGER

@<TRIPOS>ATOM
      1 C           0.8234    3.1223   29.8574 C.ar    1  UNL1       -0.0224
      2 C           1.4462    4.3591   30.4338 C.ar    1  UNL1       -0.0041
      3 C           2.1313    4.3023   31.7670 C.ar    1  UNL1        0.0042
      4 C           2.1936    3.0087   32.5237 C.ar    1  UNL1        0.0537
      5 C           1.5708    1.7719   31.9473 C.ar    1  UNL1        0.0042
      6 C           0.8857    1.8287   30.6141 C.ar    1  UNL1       -0.0041
      7 N          -1.2320    3.2926   25.8578 N.3     1  UNL1       -0.2689
      8 C          -0.7301    4.5531   26.4974 C.3     1  UNL1        0.0727
      9 C          -0.0450    4.4964   27.8306 C.3     1  UNL1        0.0217
     10 C           0.1382    3.1790   28.5242 C.3     1  UNL1        0.0251
     11 C          -0.3636    1.9185   27.8846 C.3     1  UNL1        0.0217
     12 C          -1.0488    1.9752   26.5514 C.3     1  UNL1        0.0727
     13 C          -1.9171    3.3493   24.5246 C.3     1  UNL1        0.0991
     14 C          -6.2518    4.5309   24.2710 C.ar    1  UNL1        0.0533
     15 C          -5.5239    4.0805   23.0392 C.ar    1  UNL1        0.0042
     16 C          -4.0790    3.6866   23.1238 C.ar    1  UNL1       -0.0028
     17 C          -3.3620    3.7432   24.4401 C.ar    1  UNL1       -0.0061
     18 C          -4.0899    4.1936   25.6718 C.ar    1  UNL1       -0.0028
     19 C          -5.5348    4.5874   25.5873 C.ar    1  UNL1        0.0042
     20 C          -9.5803    6.6694   24.5843 C.3     1  UNL1        0.1109
     21 N          -8.1354    6.2755   24.6689 N.am    1  UNL1       -0.2992
     22 C          -7.6967    4.9247   24.1864 C.2     1  UNL1        0.2459
     23 O          -8.7030    3.9678   23.6194 O.2     1  UNL1       -0.2701
     24 H          -7.4749    6.9037   25.0411 H       1  UNL1        0.1498
     25 C           2.8788    2.9520   33.8570 C.2     1  UNL1        0.2495
     26 O           4.1557    3.7077   34.0767 O.2     1  UNL1       -0.2698
     27 N           2.2869    2.1396   34.9704 N.am    1  UNL1       -0.2794
     28 H           1.4488    1.6436   34.8261 H       1  UNL1        0.1552
     29 C           2.9721    2.0829   36.3035 C.ar    1  UNL1        0.0636
     30 C           4.1517    1.1778   36.5027 C.ar    1  UNL1        0.0159
     31 C           4.8368    1.1211   37.8358 C.ar    1  UNL1        0.0014
     32 C           4.3425    1.9694   38.9698 C.ar    1  UNL1        0.0013
     33 C           3.1630    2.8744   38.7707 C.ar    1  UNL1        0.0153
     34 C           2.4777    2.9312   37.4375 C.ar    1  UNL1        0.0552
     35 N           1.2983    3.8362   37.2384 N.pl3   1  UNL1       -0.3560
     36 H           0.9738    4.3930   37.9827 H       1  UNL1        0.1424
     37 H           0.8485    3.8734   36.3634 H       1  UNL1        0.1424
@<TRIPOS>BOND
     1    20    21    1
     2    21    22   am
     3    22    23    2
     4    22    14    1
     5    14    15   ar
     6    15    16   ar
     7    16    17   ar
     8    17    13    1
     9    13     7    1
    10     7     8    1
    11     8     9    1
    12     9    10    1
    13    10     1    1
    14     1     2   ar
    15     2     3   ar
    16     3     4   ar
    17     4    25    1
    18    25    26    2
    19    25    27   am
    20    27    29    1
    21    29    30   ar
    22    30    31   ar
    23    31    32   ar
    24    32    33   ar
    25    33    34   ar
    26    34    35    1
    27     4     5   ar
    28     5     6   ar
    29    10    11    1
    30    11    12    1
    31    17    18   ar
    32    18    19   ar
    33    19    14   ar
    34    12     7    1
    35     6     1   ar
    36    34    29   ar
    37    21    24    1
    38    27    28    1
    39    35    36    1
    40    35    37    1
