@<TRIPOS>MOLECULE
*****
 26 28 0 0 0
SMALL
GASTEIGER

@<TRIPOS>ATOM
      1 C          -9.7782  -17.7834   22.5592 C.ar    1  UNL1        0.0218
      2 C         -11.2044  -17.6562   22.1119 C.ar    1  UNL1        0.0989
      3 N         -11.6143  -18.1609   20.7602 N.ar    1  UNL1       -0.2426
      4 C         -10.5981  -18.7927   19.8556 C.ar    1  UNL1        0.0962
      5 C          -9.1720  -18.9198   20.3029 C.ar    1  UNL1        0.0166
      6 C          -8.7620  -18.4152   21.6547 C.ar    1  UNL1        0.0006
      7 C          -9.6659  -18.0907   25.1366 C.ar    1  UNL1        0.1409
      8 C          -9.2560  -17.5860   26.4883 C.ar    1  UNL1        0.0665
      9 C          -8.5485  -16.2694   26.6145 C.ar    1  UNL1        0.1432
     10 F          -8.1386  -15.7647   27.9663 F       1  UNL1       -0.2041
     11 C          -8.2509  -15.4574   25.3889 C.ar    1  UNL1        0.0298
     12 C          -8.6608  -15.9621   24.0372 C.ar    1  UNL1        0.0054
     13 C          -9.3683  -17.2787   23.9110 C.ar    1  UNL1        0.0356
     14 C          -9.6264  -20.6175   24.5336 C.3     1  UNL1        0.2525
     15 O         -10.3734  -19.4073   25.0105 O.3     1  UNL1       -0.4714
     16 C          -8.1558  -19.5516   19.3984 C.3     1  UNL1        0.1182
     17 N          -6.7381  -19.0615   19.4050 N.am    1  UNL1       -0.2956
     18 C          -5.6946  -19.7951   20.1943 C.2     1  UNL1        0.2654
     19 O          -6.0688  -21.0188   20.9770 O.2     1  UNL1       -0.2684
     20 H          -6.4926  -18.2583   18.8913 H       1  UNL1        0.1501
     21 C          -4.2770  -19.3049   20.2010 C.ar    1  UNL1        0.1535
     22 C          -3.2605  -19.9617   21.0872 C.ar    1  UNL1        0.1226
     23 N          -1.8429  -19.4716   21.0938 N.ar    1  UNL1       -0.2390
     24 C          -1.4417  -18.3246   20.2142 C.ar    1  UNL1        0.1195
     25 C          -2.4582  -17.6678   19.3280 C.ar    1  UNL1        0.1196
     26 N          -3.8759  -18.1580   19.3214 N.ar    1  UNL1       -0.2360
@<TRIPOS>BOND
     1    14    15    1
     2    15     7    1
     3     7     8   ar
     4     8     9   ar
     5     9    10    1
     6     9    11   ar
     7    11    12   ar
     8    12    13   ar
     9    13     1    1
    10     1     2   ar
    11     2     3   ar
    12     3     4   ar
    13     4     5   ar
    14     5    16    1
    15    16    17    1
    16    17    18   am
    17    18    19    2
    18    18    21    1
    19    21    22   ar
    20    22    23   ar
    21    23    24   ar
    22    24    25   ar
    23    25    26   ar
    24     5     6   ar
    25    13     7   ar
    26     6     1   ar
    27    26    21   ar
    28    17    20    1
@<TRIPOS>MOLECULE
*****
 26 28 0 0 0
SMALL
GASTEIGER

@<TRIPOS>ATOM
      1 C          -9.6714  -19.0432   21.4023 C.ar    1  UNL1        0.0218
      2 C          -9.7204  -19.0327   19.9031 C.ar    1  UNL1        0.0989
      3 N          -8.4961  -19.3824   19.1103 N.ar    1  UNL1       -0.2426
      4 C          -7.2227  -19.7426   19.8166 C.ar    1  UNL1        0.0962
      5 C          -7.1737  -19.7531   21.3157 C.ar    1  UNL1        0.0166
      6 C          -8.3981  -19.4034   22.1086 C.ar    1  UNL1        0.0006
      7 C         -11.9962  -17.8942   21.5624 C.ar    1  UNL1        0.1409
      8 C         -13.2205  -17.5446   22.3553 C.ar    1  UNL1        0.0665
      9 C         -13.3445  -17.9941   23.7809 C.ar    1  UNL1        0.1432
     10 F         -14.5689  -17.6444   24.5738 F       1  UNL1       -0.2041
     11 C         -12.2442  -18.7933   24.4137 C.ar    1  UNL1        0.0298
     12 C         -11.0199  -19.1430   23.6209 C.ar    1  UNL1        0.0054
     13 C         -10.8958  -18.6935   22.1952 C.ar    1  UNL1        0.0356
     14 C         -11.7629  -15.9830   19.8180 C.3     1  UNL1        0.2525
     15 O         -11.8722  -17.4447   20.1367 O.3     1  UNL1       -0.4714
     16 C          -5.9004  -20.1133   22.0220 C.3     1  UNL1        0.1182
     17 N          -4.5775  -19.7574   21.4112 N.am    1  UNL1       -0.2956
     18 C          -3.9087  -18.4639   21.7715 C.2     1  UNL1        0.2654
     19 O          -4.5629  -17.5264   22.7426 O.2     1  UNL1       -0.2684
     20 H          -4.1481  -20.3727   20.7738 H       1  UNL1        0.1501
     21 C          -2.5857  -18.1081   21.1606 C.ar    1  UNL1        0.1535
     22 C          -1.7406  -19.1738   20.5283 C.ar    1  UNL1        0.1226
     23 N          -0.4177  -18.8180   19.9174 N.ar    1  UNL1       -0.2390
     24 C           0.0602  -17.3962   19.9390 C.ar    1  UNL1        0.1195
     25 C          -0.7849  -16.3304   20.5713 C.ar    1  UNL1        0.1196
     26 N          -2.1079  -16.6864   21.1822 N.ar    1  UNL1       -0.2360
@<TRIPOS>BOND
     1    14    15    1
     2    15     7    1
     3     7     8   ar
     4     8     9   ar
     5     9    10    1
     6     9    11   ar
     7    11    12   ar
     8    12    13   ar
     9    13     1    1
    10     1     2   ar
    11     2     3   ar
    12     3     4   ar
    13     4     5   ar
    14     5    16    1
    15    16    17    1
    16    17    18   am
    17    18    19    2
    18    18    21    1
    19    21    22   ar
    20    22    23   ar
    21    23    24   ar
    22    24    25   ar
    23    25    26   ar
    24     5     6   ar
    25    13     7   ar
    26     6     1   ar
    27    26    21   ar
    28    17    20    1
@<TRIPOS>MOLECULE
*****
 26 28 0 0 0
SMALL
GASTEIGER

@<TRIPOS>ATOM
      1 C          -8.7602  -16.9301   23.2237 C.ar    1  UNL1        0.0218
      2 C         -10.2131  -16.7149   22.9193 C.ar    1  UNL1        0.0989
      3 N         -10.8251  -17.3412   21.7015 N.ar    1  UNL1       -0.2426
      4 C          -9.9842  -18.1829   20.7880 C.ar    1  UNL1        0.0962
      5 C          -8.5312  -18.3981   21.0923 C.ar    1  UNL1        0.0166
      6 C          -7.9192  -17.7717   22.3102 C.ar    1  UNL1        0.0006
      7 C          -6.6847  -15.9757   24.4612 C.ar    1  UNL1        0.1409
      8 C          -6.0728  -15.3493   25.6790 C.ar    1  UNL1        0.0665
      9 C          -6.9244  -15.0509   26.8772 C.ar    1  UNL1        0.1432
     10 F          -6.3124  -14.4245   28.0951 F       1  UNL1       -0.2041
     11 C          -8.3879  -15.3789   26.8576 C.ar    1  UNL1        0.0298
     12 C          -8.9998  -16.0053   25.6397 C.ar    1  UNL1        0.0054
     13 C          -8.1482  -16.3037   24.4415 C.ar    1  UNL1        0.0356
     14 C          -4.4514  -16.8292   23.4443 C.3     1  UNL1        0.2525
     15 O          -5.8330  -16.2741   23.2630 O.3     1  UNL1       -0.4714
     16 C          -7.6903  -19.2397   20.1788 C.3     1  UNL1        0.1182
     17 N          -6.2890  -18.8183   19.8492 N.am    1  UNL1       -0.2956
     18 C          -5.1421  -19.3121   20.6804 C.2     1  UNL1        0.2654
     19 O          -5.3966  -20.2274   21.8412 O.2     1  UNL1       -0.2684
     20 H          -6.1220  -18.2176   19.0873 H       1  UNL1        0.1501
     21 C          -3.7408  -18.8907   20.3507 C.ar    1  UNL1        0.1535
     22 C          -2.5942  -19.3817   21.1840 C.ar    1  UNL1        0.1226
     23 N          -1.1929  -18.9603   20.8544 N.ar    1  UNL1       -0.2390
     24 C          -0.9381  -18.0478   19.6913 C.ar    1  UNL1        0.1195
     25 C          -2.0846  -17.5568   18.8580 C.ar    1  UNL1        0.1196
     26 N          -3.4860  -17.9783   19.1878 N.ar    1  UNL1       -0.2360
@<TRIPOS>BOND
     1    14    15    1
     2    15     7    1
     3     7     8   ar
     4     8     9   ar
     5     9    10    1
     6     9    11   ar
     7    11    12   ar
     8    12    13   ar
     9    13     1    1
    10     1     2   ar
    11     2     3   ar
    12     3     4   ar
    13     4     5   ar
    14     5    16    1
    15    16    17    1
    16    17    18   am
    17    18    19    2
    18    18    21    1
    19    21    22   ar
    20    22    23   ar
    21    23    24   ar
    22    24    25   ar
    23    25    26   ar
    24     5     6   ar
    25    13     7   ar
    26     6     1   ar
    27    26    21   ar
    28    17    20    1
@<TRIPOS>MOLECULE
*****
 26 28 0 0 0
SMALL
GASTEIGER

@<TRIPOS>ATOM
      1 C          -8.7448  -16.5151   24.9513 C.ar    1  UNL1        0.0218
      2 C          -8.8304  -16.5754   26.4477 C.ar    1  UNL1        0.0989
      3 N          -7.6511  -16.1741   27.2832 N.ar    1  UNL1       -0.2426
      4 C          -6.3860  -15.7124   26.6223 C.ar    1  UNL1        0.0962
      5 C          -6.3004  -15.6522   25.1260 C.ar    1  UNL1        0.0166
      6 C          -7.4798  -16.0535   24.2905 C.ar    1  UNL1        0.0006
      7 C         -10.4062  -18.3368   24.1320 C.ar    1  UNL1        0.1409
      8 C         -11.5855  -18.7381   23.2965 C.ar    1  UNL1        0.0665
      9 C         -12.2829  -17.7191   22.4450 C.ar    1  UNL1        0.1432
     10 F         -13.4623  -18.1204   21.6095 F       1  UNL1       -0.2041
     11 C         -11.8010  -16.2987   22.4288 C.ar    1  UNL1        0.0298
     12 C         -10.6216  -15.8975   23.2643 C.ar    1  UNL1        0.0054
     13 C          -9.9242  -16.9165   24.1159 C.ar    1  UNL1        0.0356
     14 C          -9.5960  -20.7757   24.5132 C.3     1  UNL1        0.2525
     15 O          -9.7088  -19.3559   24.9836 O.3     1  UNL1       -0.4714
     16 C          -5.0355  -15.1906   24.4651 C.3     1  UNL1        0.1182
     17 N          -4.5262  -15.8974   23.2440 N.am    1  UNL1       -0.2956
     18 C          -3.8878  -17.2489   23.3712 C.2     1  UNL1        0.2654
     19 O          -3.7587  -17.8934   24.7195 O.2     1  UNL1       -0.2684
     20 H          -4.6109  -15.4743   22.3591 H       1  UNL1        0.1501
     21 C          -3.3785  -17.9557   22.1502 C.ar    1  UNL1        0.1535
     22 C          -3.3767  -19.4547   22.0974 C.ar    1  UNL1        0.1226
     23 N          -2.8675  -20.1616   20.8763 N.ar    1  UNL1       -0.2390
     24 C          -2.3599  -19.3693   19.7080 C.ar    1  UNL1        0.1195
     25 C          -2.3617  -17.8702   19.7609 C.ar    1  UNL1        0.1196
     26 N          -2.8710  -17.1634   20.9820 N.ar    1  UNL1       -0.2360
@<TRIPOS>BOND
     1    14    15    1
     2    15     7    1
     3     7     8   ar
     4     8     9   ar
     5     9    10    1
     6     9    11   ar
     7    11    12   ar
     8    12    13   ar
     9    13     1    1
    10     1     2   ar
    11     2     3   ar
    12     3     4   ar
    13     4     5   ar
    14     5    16    1
    15    16    17    1
    16    17    18   am
    17    18    19    2
    18    18    21    1
    19    21    22   ar
    20    22    23   ar
    21    23    24   ar
    22    24    25   ar
    23    25    26   ar
    24     5     6   ar
    25    13     7   ar
    26     6     1   ar
    27    26    21   ar
    28    17    20    1
@<TRIPOS>MOLECULE
*****
 26 28 0 0 0
SMALL
GASTEIGER

@<TRIPOS>ATOM
      1 C          -9.5522  -17.5122   23.4130 C.ar    1  UNL1        0.0218
      2 C          -8.8749  -16.3400   24.0588 C.ar    1  UNL1        0.0989
      3 N          -7.4121  -16.0995   23.8302 N.ar    1  UNL1       -0.2426
      4 C          -6.6265  -17.0313   22.9557 C.ar    1  UNL1        0.0962
      5 C          -7.3038  -18.2036   22.3099 C.ar    1  UNL1        0.0166
      6 C          -8.7667  -18.4440   22.5386 C.ar    1  UNL1        0.0006
      7 C         -12.0316  -17.0758   22.7708 C.ar    1  UNL1        0.1409
      8 C         -13.4944  -17.3163   22.9995 C.ar    1  UNL1        0.0665
      9 C         -13.9407  -18.2337   24.0992 C.ar    1  UNL1        0.1432
     10 F         -15.4036  -18.4741   24.3279 F       1  UNL1       -0.2041
     11 C         -12.9242  -18.9105   24.9701 C.ar    1  UNL1        0.0298
     12 C         -11.4614  -18.6700   24.7414 C.ar    1  UNL1        0.0054
     13 C         -11.0151  -17.7527   23.6417 C.ar    1  UNL1        0.0356
     14 C         -11.5076  -16.6614   20.2601 C.3     1  UNL1        0.2525
     15 O         -11.5853  -16.1585   21.6711 O.3     1  UNL1       -0.4714
     16 C          -6.5183  -19.1353   21.4354 C.3     1  UNL1        0.1182
     17 N          -5.2160  -18.6871   20.8413 N.am    1  UNL1       -0.2956
     18 C          -3.9560  -18.7642   21.6515 C.2     1  UNL1        0.2654
     19 O          -3.9983  -19.2895   23.0558 O.2     1  UNL1       -0.2684
     20 H          -5.1883  -18.3424   19.9195 H       1  UNL1        0.1501
     21 C          -2.6537  -18.3160   21.0573 C.ar    1  UNL1        0.1535
     22 C          -1.7471  -19.3132   20.3987 C.ar    1  UNL1        0.1226
     23 N          -0.4448  -18.8650   19.8046 N.ar    1  UNL1       -0.2390
     24 C          -0.0490  -17.4195   19.8689 C.ar    1  UNL1        0.1195
     25 C          -0.9556  -16.4223   20.5274 C.ar    1  UNL1        0.1196
     26 N          -2.2580  -16.8706   21.1216 N.ar    1  UNL1       -0.2360
@<TRIPOS>BOND
     1    14    15    1
     2    15     7    1
     3     7     8   ar
     4     8     9   ar
     5     9    10    1
     6     9    11   ar
     7    11    12   ar
     8    12    13   ar
     9    13     1    1
    10     1     2   ar
    11     2     3   ar
    12     3     4   ar
    13     4     5   ar
    14     5    16    1
    15    16    17    1
    16    17    18   am
    17    18    19    2
    18    18    21    1
    19    21    22   ar
    20    22    23   ar
    21    23    24   ar
    22    24    25   ar
    23    25    26   ar
    24     5     6   ar
    25    13     7   ar
    26     6     1   ar
    27    26    21   ar
    28    17    20    1
@<TRIPOS>MOLECULE
*****
 26 28 0 0 0
SMALL
GASTEIGER

@<TRIPOS>ATOM
      1 C          -8.6662  -16.8064   23.2881 C.ar    1  UNL1        0.0218
      2 C          -9.4379  -16.6015   24.5579 C.ar    1  UNL1        0.0989
      3 N          -8.7752  -15.9664   25.7442 N.ar    1  UNL1       -0.2426
      4 C          -7.3406  -15.5362   25.6608 C.ar    1  UNL1        0.0962
      5 C          -6.5688  -15.7411   24.3910 C.ar    1  UNL1        0.0166
      6 C          -7.2316  -16.3762   23.2046 C.ar    1  UNL1        0.0006
      7 C          -8.9835  -18.8486   21.7137 C.ar    1  UNL1        0.1409
      8 C          -9.6463  -19.4837   20.5274 C.ar    1  UNL1        0.0665
      9 C         -10.6547  -18.7116   19.7292 C.ar    1  UNL1        0.1432
     10 F         -11.3175  -19.3468   18.5428 F       1  UNL1       -0.2041
     11 C         -11.0002  -17.3045   20.1172 C.ar    1  UNL1        0.0298
     12 C         -10.3373  -16.6695   21.3035 C.ar    1  UNL1        0.0054
     13 C          -9.3290  -17.4415   22.1018 C.ar    1  UNL1        0.0356
     14 C          -6.5958  -19.8413   21.9655 C.3     1  UNL1        0.2525
     15 O          -7.9752  -19.6207   22.5120 O.3     1  UNL1       -0.4714
     16 C          -5.1343  -15.3108   24.3075 C.3     1  UNL1        0.1182
     17 N          -4.2791  -15.7697   23.1638 N.am    1  UNL1       -0.2956
     18 C          -3.6249  -17.1187   23.2105 C.2     1  UNL1        0.2654
     19 O          -3.8259  -18.0089   24.4010 O.2     1  UNL1       -0.2684
     20 H          -4.1472  -15.1854   22.3824 H       1  UNL1        0.1501
     21 C          -2.7697  -17.5775   22.0668 C.ar    1  UNL1        0.1535
     22 C          -2.3341  -19.0105   21.9837 C.ar    1  UNL1        0.1226
     23 N          -1.4789  -19.4693   20.8400 N.ar    1  UNL1       -0.2390
     24 C          -1.0592  -18.4952   19.7793 C.ar    1  UNL1        0.1195
     25 C          -1.4948  -17.0622   19.8624 C.ar    1  UNL1        0.1196
     26 N          -2.3500  -16.6034   21.0062 N.ar    1  UNL1       -0.2360
@<TRIPOS>BOND
     1    14    15    1
     2    15     7    1
     3     7     8   ar
     4     8     9   ar
     5     9    10    1
     6     9    11   ar
     7    11    12   ar
     8    12    13   ar
     9    13     1    1
    10     1     2   ar
    11     2     3   ar
    12     3     4   ar
    13     4     5   ar
    14     5    16    1
    15    16    17    1
    16    17    18   am
    17    18    19    2
    18    18    21    1
    19    21    22   ar
    20    22    23   ar
    21    23    24   ar
    22    24    25   ar
    23    25    26   ar
    24     5     6   ar
    25    13     7   ar
    26     6     1   ar
    27    26    21   ar
    28    17    20    1
@<TRIPOS>MOLECULE
*****
 26 28 0 0 0
SMALL
GASTEIGER

@<TRIPOS>ATOM
      1 C          -4.1691  -16.7973   23.8106 C.ar    1  UNL1        0.0218
      2 C          -3.8307  -17.1412   25.2309 C.ar    1  UNL1        0.0989
      3 N          -4.7188  -16.6768   26.3469 N.ar    1  UNL1       -0.2426
      4 C          -5.9453  -15.8686   26.0427 C.ar    1  UNL1        0.0962
      5 C          -6.2837  -15.5247   24.6224 C.ar    1  UNL1        0.0166
      6 C          -5.3955  -15.9891   23.5063 C.ar    1  UNL1        0.0006
      7 C          -3.3852  -18.6702   22.1895 C.ar    1  UNL1        0.1409
      8 C          -2.4971  -19.1345   21.0735 C.ar    1  UNL1        0.0665
      9 C          -1.5046  -18.1902   20.4624 C.ar    1  UNL1        0.1432
     10 F          -0.6164  -18.6546   19.3464 F       1  UNL1       -0.2041
     11 C          -1.4002  -16.7817   20.9674 C.ar    1  UNL1        0.0298
     12 C          -2.2884  -16.3174   22.0835 C.ar    1  UNL1        0.0054
     13 C          -3.2809  -17.2616   22.6945 C.ar    1  UNL1        0.0356
     14 C          -5.6960  -19.8560   22.1270 C.3     1  UNL1        0.2525
     15 O          -4.3777  -19.6144   22.8005 O.3     1  UNL1       -0.4714
     16 C          -7.5101  -14.7165   24.3182 C.3     1  UNL1        0.1182
     17 N          -8.8010  -15.4067   23.9910 N.am    1  UNL1       -0.2956
     18 C          -9.0971  -15.8130   22.5777 C.2     1  UNL1        0.2654
     19 O          -8.1022  -15.5289   21.4916 O.2     1  UNL1       -0.2684
     20 H          -9.4540  -15.5931   24.7038 H       1  UNL1        0.1501
     21 C         -10.3880  -16.5032   22.2505 C.ar    1  UNL1        0.1535
     22 C         -11.0374  -16.2860   20.9159 C.ar    1  UNL1        0.1226
     23 N         -12.3283  -16.9762   20.5887 N.ar    1  UNL1       -0.2390
     24 C         -12.9699  -17.8837   21.5961 C.ar    1  UNL1        0.1195
     25 C         -12.3205  -18.1010   22.9307 C.ar    1  UNL1        0.1196
     26 N         -11.0295  -17.4107   23.2579 N.ar    1  UNL1       -0.2360
@<TRIPOS>BOND
     1    14    15    1
     2    15     7    1
     3     7     8   ar
     4     8     9   ar
     5     9    10    1
     6     9    11   ar
     7    11    12   ar
     8    12    13   ar
     9    13     1    1
    10     1     2   ar
    11     2     3   ar
    12     3     4   ar
    13     4     5   ar
    14     5    16    1
    15    16    17    1
    16    17    18   am
    17    18    19    2
    18    18    21    1
    19    21    22   ar
    20    22    23   ar
    21    23    24   ar
    22    24    25   ar
    23    25    26   ar
    24     5     6   ar
    25    13     7   ar
    26     6     1   ar
    27    26    21   ar
    28    17    20    1
@<TRIPOS>MOLECULE
*****
 26 28 0 0 0
SMALL
GASTEIGER

@<TRIPOS>ATOM
      1 C          -9.2853  -17.5994   23.2810 C.ar    1  UNL1        0.0218
      2 C          -8.5284  -16.4774   23.9279 C.ar    1  UNL1        0.0989
      3 N          -7.0636  -16.3054   23.6547 N.ar    1  UNL1       -0.2426
      4 C          -6.3556  -17.2552   22.7346 C.ar    1  UNL1        0.0962
      5 C          -7.1124  -18.3772   22.0877 C.ar    1  UNL1        0.0166
      6 C          -8.5773  -18.5492   22.3609 C.ar    1  UNL1        0.0006
      7 C         -11.2109  -18.7742   24.5701 C.ar    1  UNL1        0.1409
      8 C         -12.6758  -18.9462   24.8432 C.ar    1  UNL1        0.0665
      9 C         -13.6798  -18.1154   24.1005 C.ar    1  UNL1        0.1432
     10 F         -15.1447  -18.2875   24.3737 F       1  UNL1       -0.2041
     11 C         -13.2191  -17.1127   23.0846 C.ar    1  UNL1        0.0298
     12 C         -11.7543  -16.9406   22.8114 C.ar    1  UNL1        0.0054
     13 C         -10.7502  -17.7714   23.5542 C.ar    1  UNL1        0.0356
     14 C          -9.7391  -20.9086   24.7370 C.3     1  UNL1        0.2525
     15 O         -10.2069  -19.6049   25.3128 O.3     1  UNL1       -0.4714
     16 C          -6.4045  -19.3270   21.1677 C.3     1  UNL1        0.1182
     17 N          -5.1572  -18.8928   20.4565 N.am    1  UNL1       -0.2956
     18 C          -3.8219  -19.0471   21.1223 C.2     1  UNL1        0.2654
     19 O          -3.7339  -19.6355   22.4992 O.2     1  UNL1       -0.2684
     20 H          -5.2150  -18.5066   19.5528 H       1  UNL1        0.1501
     21 C          -2.5747  -18.6129   20.4111 C.ar    1  UNL1        0.1535
     22 C          -2.6003  -18.3731   18.9306 C.ar    1  UNL1        0.1226
     23 N          -1.3531  -17.9389   18.2194 N.ar    1  UNL1       -0.2390
     24 C          -0.0801  -17.7445   18.9887 C.ar    1  UNL1        0.1195
     25 C          -0.0544  -17.9842   20.4692 C.ar    1  UNL1        0.1196
     26 N          -1.3018  -18.4184   21.1804 N.ar    1  UNL1       -0.2360
@<TRIPOS>BOND
     1    14    15    1
     2    15     7    1
     3     7     8   ar
     4     8     9   ar
     5     9    10    1
     6     9    11   ar
     7    11    12   ar
     8    12    13   ar
     9    13     1    1
    10     1     2   ar
    11     2     3   ar
    12     3     4   ar
    13     4     5   ar
    14     5    16    1
    15    16    17    1
    16    17    18   am
    17    18    19    2
    18    18    21    1
    19    21    22   ar
    20    22    23   ar
    21    23    24   ar
    22    24    25   ar
    23    25    26   ar
    24     5     6   ar
    25    13     7   ar
    26     6     1   ar
    27    26    21   ar
    28    17    20    1
@<TRIPOS>MOLECULE
*****
 26 28 0 0 0
SMALL
GASTEIGER

@<TRIPOS>ATOM
      1 C          -8.4813  -17.0023   24.3777 C.ar    1  UNL1        0.0218
      2 C          -9.0503  -16.5214   25.6796 C.ar    1  UNL1        0.0989
      3 N          -8.2523  -15.5975   26.5511 N.ar    1  UNL1       -0.2426
      4 C          -6.8853  -15.1546   26.1208 C.ar    1  UNL1        0.0962
      5 C          -6.3163  -15.6355   24.8189 C.ar    1  UNL1        0.0166
      6 C          -7.1144  -16.5595   23.9474 C.ar    1  UNL1        0.0006
      7 C          -9.8782  -17.4203   22.2273 C.ar    1  UNL1        0.1409
      8 C         -10.6762  -18.3442   21.3558 C.ar    1  UNL1        0.0665
      9 C         -10.8754  -19.7741   21.7631 C.ar    1  UNL1        0.1432
     10 F         -11.6734  -20.6980   20.8915 F       1  UNL1       -0.2041
     11 C         -10.2765  -20.2800   23.0419 C.ar    1  UNL1        0.0298
     12 C          -9.4785  -19.3561   23.9134 C.ar    1  UNL1        0.0054
     13 C          -9.2794  -17.9263   23.5061 C.ar    1  UNL1        0.0356
     14 C         -10.4431  -15.4282   20.6581 C.3     1  UNL1        0.2525
     15 O          -9.6790  -15.9905   21.8200 O.3     1  UNL1       -0.4714
     16 C          -4.9493  -15.1927   24.3886 C.3     1  UNL1        0.1182
     17 N          -4.3875  -15.6596   23.0785 N.am    1  UNL1       -0.2956
     18 C          -3.7171  -16.9982   22.9844 C.2     1  UNL1        0.2654
     19 O          -3.6085  -17.8698   24.2004 O.2     1  UNL1       -0.2684
     20 H          -4.4588  -15.0876   22.2805 H       1  UNL1        0.1501
     21 C          -3.1553  -17.4652   21.6744 C.ar    1  UNL1        0.1535
     22 C          -1.8870  -16.8640   21.1452 C.ar    1  UNL1        0.1226
     23 N          -1.3252  -17.3310   19.8352 N.ar    1  UNL1       -0.2390
     24 C          -2.0317  -18.3991   19.0542 C.ar    1  UNL1        0.1195
     25 C          -3.3000  -19.0003   19.5833 C.ar    1  UNL1        0.1196
     26 N          -3.8618  -18.5333   20.8934 N.ar    1  UNL1       -0.2360
@<TRIPOS>BOND
     1    14    15    1
     2    15     7    1
     3     7     8   ar
     4     8     9   ar
     5     9    10    1
     6     9    11   ar
     7    11    12   ar
     8    12    13   ar
     9    13     1    1
    10     1     2   ar
    11     2     3   ar
    12     3     4   ar
    13     4     5   ar
    14     5    16    1
    15    16    17    1
    16    17    18   am
    17    18    19    2
    18    18    21    1
    19    21    22   ar
    20    22    23   ar
    21    23    24   ar
    22    24    25   ar
    23    25    26   ar
    24     5     6   ar
    25    13     7   ar
    26     6     1   ar
    27    26    21   ar
    28    17    20    1
