@<TRIPOS>MOLECULE
*****
 22 24 0 0 0
SMALL
GASTEIGER

@<TRIPOS>ATOM
      1 C          -7.4465  -18.3471   22.0995 C.3     1  UNL1        0.1038
      2 C          -8.0319  -19.6138   21.5494 C.3     1  UNL1        0.2106
      3 O          -9.5064  -19.7082   21.2907 O.3     1  UNL1       -0.4755
      4 C         -10.3956  -18.5357   21.5821 C.ar    1  UNL1        0.1379
      5 C         -11.8700  -18.6301   21.3233 C.ar    1  UNL1        0.0367
      6 C         -12.7591  -17.4577   21.6147 C.ar    1  UNL1        0.0031
      7 C         -12.1737  -16.1909   22.1648 C.ar    1  UNL1       -0.0000
      8 C         -10.6992  -16.0965   22.4235 C.ar    1  UNL1        0.0022
      9 C          -9.8102  -17.2690   22.1321 C.ar    1  UNL1        0.0513
     10 C          -8.3356  -17.1746   22.3909 C.3     1  UNL1        0.1959
     11 C          -5.9720  -18.2528   22.3582 C.3     1  UNL1        0.0763
     12 C          -3.8106  -19.4659   21.5792 C.3     1  UNL1        0.0859
     13 N          -4.9964  -18.5998   21.2730 N.3     1  UNL1       -0.2961
     14 H          -5.5261  -19.0738   20.5414 H       1  UNL1        0.1233
     15 O          -7.7502  -15.9079   22.9409 O.3     1  UNL1       -0.4748
     16 C          -7.4630  -15.7898   24.4085 C.ar    1  UNL1        0.1348
     17 C          -8.5630  -15.9966   25.4070 C.ar    1  UNL1        0.0366
     18 C          -8.2758  -15.8785   26.8745 C.ar    1  UNL1        0.0031
     19 C          -6.8886  -15.5536   27.3434 C.ar    1  UNL1       -0.0001
     20 C          -5.7885  -15.3467   26.3449 C.ar    1  UNL1       -0.0013
     21 C          -6.0757  -15.4648   24.8774 C.ar    1  UNL1        0.0121
     22 C          -4.9757  -15.2579   23.8788 C.3     1  UNL1        0.0342
@<TRIPOS>BOND
     1    12    13    1
     2    13    11    1
     3     1    11    1
     4     1     2    1
     5     2     3    1
     6     3     4    1
     7     4     5   ar
     8     5     6   ar
     9     6     7   ar
    10     7     8   ar
    11     8     9   ar
    12     9    10    1
    13    10    15    1
    14    15    16    1
    15    16    17   ar
    16    17    18   ar
    17    18    19   ar
    18    19    20   ar
    19    20    21   ar
    20    21    22    1
    21    10     1    1
    22    21    16   ar
    23     9     4   ar
    24    13    14    1
@<TRIPOS>MOLECULE
*****
 22 24 0 0 0
SMALL
GASTEIGER

@<TRIPOS>ATOM
      1 C          -7.1919  -18.7678   21.2821 C.3     1  UNL1        0.1038
      2 C          -5.7785  -19.1390   21.6208 C.3     1  UNL1        0.2106
      3 O          -5.0197  -18.3468   22.6437 O.3     1  UNL1       -0.4755
      4 C          -5.6741  -17.1834   23.3280 C.ar    1  UNL1        0.1379
      5 C          -4.9152  -16.3912   24.3510 C.ar    1  UNL1        0.0367
      6 C          -5.5697  -15.2278   25.0352 C.ar    1  UNL1        0.0031
      7 C          -6.9830  -14.8567   24.6965 C.ar    1  UNL1       -0.0000
      8 C          -7.7419  -15.6489   23.6736 C.ar    1  UNL1        0.0022
      9 C          -7.0874  -16.8122   22.9893 C.ar    1  UNL1        0.0513
     10 C          -7.8463  -17.6045   21.9663 C.3     1  UNL1        0.1959
     11 C          -7.9508  -19.5601   20.2590 C.3     1  UNL1        0.0763
     12 C         -10.3586  -19.4399   19.2906 C.3     1  UNL1        0.0859
     13 N          -8.9694  -18.8831   19.3907 N.3     1  UNL1       -0.2961
     14 H          -9.0595  -17.9266   19.7334 H       1  UNL1        0.1233
     15 O          -9.2596  -17.2333   21.6276 O.3     1  UNL1       -0.4748
     16 C         -10.3844  -17.6731   22.5174 C.ar    1  UNL1        0.1348
     17 C         -10.1031  -18.5394   23.7092 C.ar    1  UNL1        0.0366
     18 C         -11.2278  -18.9791   24.5988 C.ar    1  UNL1        0.0031
     19 C         -12.6338  -18.5526   24.2968 C.ar    1  UNL1       -0.0001
     20 C         -12.9151  -17.6864   23.1050 C.ar    1  UNL1       -0.0013
     21 C         -11.7904  -17.2466   22.2153 C.ar    1  UNL1        0.0121
     22 C         -12.0716  -16.3803   21.0234 C.3     1  UNL1        0.0342
@<TRIPOS>BOND
     1    12    13    1
     2    13    11    1
     3     1    11    1
     4     1     2    1
     5     2     3    1
     6     3     4    1
     7     4     5   ar
     8     5     6   ar
     9     6     7   ar
    10     7     8   ar
    11     8     9   ar
    12     9    10    1
    13    10    15    1
    14    15    16    1
    15    16    17   ar
    16    17    18   ar
    17    18    19   ar
    18    19    20   ar
    19    20    21   ar
    20    21    22    1
    21    10     1    1
    22    21    16   ar
    23     9     4   ar
    24    13    14    1
@<TRIPOS>MOLECULE
*****
 22 24 0 0 0
SMALL
GASTEIGER

@<TRIPOS>ATOM
      1 C          -6.4730  -16.1519   23.7505 C.3     1  UNL1        0.1038
      2 C          -5.0564  -16.5998   23.9568 C.3     1  UNL1        0.2106
      3 O          -4.5288  -17.7876   23.2081 O.3     1  UNL1       -0.4755
      4 C          -5.4178  -18.5276   22.2530 C.ar    1  UNL1        0.1379
      5 C          -4.8901  -19.7154   21.5042 C.ar    1  UNL1        0.0367
      6 C          -5.7791  -20.4553   20.5492 C.ar    1  UNL1        0.0031
      7 C          -7.1957  -20.0074   20.3429 C.ar    1  UNL1       -0.0000
      8 C          -7.7234  -18.8196   21.0916 C.ar    1  UNL1        0.0022
      9 C          -6.8344  -18.0797   22.0467 C.ar    1  UNL1        0.0513
     10 C          -7.3620  -16.8918   22.7955 C.3     1  UNL1        0.1959
     11 C          -7.0007  -14.9640   24.4993 C.3     1  UNL1        0.0763
     12 C          -7.9530  -15.5886   26.8345 C.3     1  UNL1        0.0859
     13 N          -8.1698  -15.1204   25.4260 N.3     1  UNL1       -0.2961
     14 H          -8.6226  -14.2084   25.4853 H       1  UNL1        0.1233
     15 O          -8.7787  -16.4440   22.5891 O.3     1  UNL1       -0.4748
     16 C          -9.9074  -17.2214   23.1989 C.ar    1  UNL1        0.1348
     17 C          -9.6359  -18.1903   24.3113 C.ar    1  UNL1        0.0366
     18 C         -10.7646  -18.9676   24.9209 C.ar    1  UNL1        0.0031
     19 C         -12.1648  -18.7761   24.4182 C.ar    1  UNL1       -0.0001
     20 C         -12.4363  -17.8072   23.3058 C.ar    1  UNL1       -0.0013
     21 C         -11.3076  -17.0298   22.6961 C.ar    1  UNL1        0.0121
     22 C         -11.5791  -16.0609   21.5837 C.3     1  UNL1        0.0342
@<TRIPOS>BOND
     1    12    13    1
     2    13    11    1
     3     1    11    1
     4     1     2    1
     5     2     3    1
     6     3     4    1
     7     4     5   ar
     8     5     6   ar
     9     6     7   ar
    10     7     8   ar
    11     8     9   ar
    12     9    10    1
    13    10    15    1
    14    15    16    1
    15    16    17   ar
    16    17    18   ar
    17    18    19   ar
    18    19    20   ar
    19    20    21   ar
    20    21    22    1
    21    10     1    1
    22    21    16   ar
    23     9     4   ar
    24    13    14    1
@<TRIPOS>MOLECULE
*****
 22 24 0 0 0
SMALL
GASTEIGER

@<TRIPOS>ATOM
      1 C          -6.8733  -16.3586   23.8843 C.3     1  UNL1        0.1038
      2 C          -5.4079  -16.0489   23.8030 C.3     1  UNL1        0.2106
      3 O          -4.4953  -16.9412   23.0151 O.3     1  UNL1       -0.4755
      4 C          -5.0481  -18.1433   22.3084 C.ar    1  UNL1        0.1379
      5 C          -4.1355  -19.0356   21.5205 C.ar    1  UNL1        0.0367
      6 C          -4.6883  -20.2377   20.8138 C.ar    1  UNL1        0.0031
      7 C          -6.1537  -20.5474   20.8950 C.ar    1  UNL1       -0.0000
      8 C          -7.0663  -19.6551   21.6829 C.ar    1  UNL1        0.0022
      9 C          -6.5135  -18.4530   22.3896 C.ar    1  UNL1        0.0513
     10 C          -7.4261  -17.5607   23.1776 C.3     1  UNL1        0.1959
     11 C          -7.7860  -15.4662   24.6722 C.3     1  UNL1        0.0763
     12 C          -8.0061  -16.0424   27.1960 C.3     1  UNL1        0.0859
     13 N          -8.5837  -16.0276   25.8118 N.3     1  UNL1       -0.2961
     14 H          -9.4485  -15.4888   25.8593 H       1  UNL1        0.1233
     15 O          -8.8916  -17.8704   23.2588 O.3     1  UNL1       -0.4748
     16 C          -9.8065  -17.4671   22.1405 C.ar    1  UNL1        0.1348
     17 C          -9.8041  -16.0521   21.6428 C.ar    1  UNL1        0.0366
     18 C         -10.7190  -15.6489   20.5247 C.ar    1  UNL1        0.0031
     19 C         -11.6362  -16.6607   19.9042 C.ar    1  UNL1       -0.0001
     20 C         -11.6386  -18.0757   20.4019 C.ar    1  UNL1       -0.0013
     21 C         -10.7237  -18.4789   21.5201 C.ar    1  UNL1        0.0121
     22 C         -10.7260  -19.8939   22.0178 C.3     1  UNL1        0.0342
@<TRIPOS>BOND
     1    12    13    1
     2    13    11    1
     3     1    11    1
     4     1     2    1
     5     2     3    1
     6     3     4    1
     7     4     5   ar
     8     5     6   ar
     9     6     7   ar
    10     7     8   ar
    11     8     9   ar
    12     9    10    1
    13    10    15    1
    14    15    16    1
    15    16    17   ar
    16    17    18   ar
    17    18    19   ar
    18    19    20   ar
    19    20    21   ar
    20    21    22    1
    21    10     1    1
    22    21    16   ar
    23     9     4   ar
    24    13    14    1
@<TRIPOS>MOLECULE
*****
 22 24 0 0 0
SMALL
GASTEIGER

@<TRIPOS>ATOM
      1 C          -8.1115  -18.2119   21.7605 C.3     1  UNL1        0.1038
      2 C          -7.8444  -19.4791   21.0036 C.3     1  UNL1        0.2106
      3 O          -6.4542  -20.0395   20.9462 O.3     1  UNL1       -0.4755
      4 C          -5.3311  -19.3328   21.6457 C.ar    1  UNL1        0.1379
      5 C          -3.9410  -19.8932   21.5883 C.ar    1  UNL1        0.0367
      6 C          -2.8180  -19.1864   22.2877 C.ar    1  UNL1        0.0031
      7 C          -3.0851  -17.9192   23.0446 C.ar    1  UNL1       -0.0000
      8 C          -4.4753  -17.3588   23.1020 C.ar    1  UNL1        0.0022
      9 C          -5.5983  -18.0656   22.4026 C.ar    1  UNL1        0.0513
     10 C          -6.9885  -17.5052   22.4600 C.3     1  UNL1        0.1959
     11 C          -9.5018  -17.6515   21.8179 C.3     1  UNL1        0.0763
     12 C         -11.0759  -15.9657   20.6220 C.3     1  UNL1        0.0859
     13 N          -9.7749  -16.2690   21.3042 N.3     1  UNL1       -0.2961
     14 H          -9.7079  -15.6392   22.1037 H       1  UNL1        0.1233
     15 O          -7.2557  -16.2380   23.2169 O.3     1  UNL1       -0.4748
     16 C          -7.5732  -16.2922   24.6819 C.ar    1  UNL1        0.1348
     17 C          -8.7928  -17.0239   25.1585 C.ar    1  UNL1        0.0366
     18 C          -9.1102  -17.0781   26.6234 C.ar    1  UNL1        0.0031
     19 C          -8.2081  -16.4006   27.6119 C.ar    1  UNL1       -0.0001
     20 C          -6.9885  -15.6688   27.1354 C.ar    1  UNL1       -0.0013
     21 C          -6.6710  -15.6146   25.6704 C.ar    1  UNL1        0.0121
     22 C          -5.4514  -14.8829   25.1938 C.3     1  UNL1        0.0342
@<TRIPOS>BOND
     1    12    13    1
     2    13    11    1
     3     1    11    1
     4     1     2    1
     5     2     3    1
     6     3     4    1
     7     4     5   ar
     8     5     6   ar
     9     6     7   ar
    10     7     8   ar
    11     8     9   ar
    12     9    10    1
    13    10    15    1
    14    15    16    1
    15    16    17   ar
    16    17    18   ar
    17    18    19   ar
    18    19    20   ar
    19    20    21   ar
    20    21    22    1
    21    10     1    1
    22    21    16   ar
    23     9     4   ar
    24    13    14    1
@<TRIPOS>MOLECULE
*****
 22 24 0 0 0
SMALL
GASTEIGER

@<TRIPOS>ATOM
      1 C          -9.9477  -18.7634   23.1394 C.3     1  UNL1        0.1038
      2 C         -10.5744  -18.8110   24.5014 C.3     1  UNL1        0.2106
      3 O         -10.0414  -17.9436   25.6030 O.3     1  UNL1       -0.4755
      4 C          -8.8815  -17.0287   25.3426 C.ar    1  UNL1        0.1379
      5 C          -8.3485  -16.1613   26.4442 C.ar    1  UNL1        0.0367
      6 C          -7.1887  -15.2464   26.1838 C.ar    1  UNL1        0.0031
      7 C          -6.5620  -15.1989   24.8218 C.ar    1  UNL1       -0.0000
      8 C          -7.0950  -16.0662   23.7203 C.ar    1  UNL1        0.0022
      9 C          -8.2548  -16.9811   23.9807 C.ar    1  UNL1        0.0513
     10 C          -8.7879  -17.8486   22.8791 C.3     1  UNL1        0.1959
     11 C         -10.4808  -19.6309   22.0378 C.3     1  UNL1        0.0763
     12 C         -11.5415  -17.7881   20.5449 C.3     1  UNL1        0.0859
     13 N         -11.6120  -19.1446   21.1811 N.3     1  UNL1       -0.2961
     14 H         -11.7193  -19.8197   20.4241 H       1  UNL1        0.1233
     15 O          -8.1612  -17.8010   21.5171 O.3     1  UNL1       -0.4748
     16 C          -7.0565  -18.7533   21.1662 C.ar    1  UNL1        0.1348
     17 C          -5.7918  -18.7648   21.9725 C.ar    1  UNL1        0.0366
     18 C          -4.6872  -19.7170   21.6216 C.ar    1  UNL1        0.0031
     19 C          -4.8474  -20.6577   20.4643 C.ar    1  UNL1       -0.0001
     20 C          -6.1122  -20.6463   19.6580 C.ar    1  UNL1       -0.0013
     21 C          -7.2167  -19.6941   20.0089 C.ar    1  UNL1        0.0121
     22 C          -8.4816  -19.6826   19.2025 C.3     1  UNL1        0.0342
@<TRIPOS>BOND
     1    12    13    1
     2    13    11    1
     3     1    11    1
     4     1     2    1
     5     2     3    1
     6     3     4    1
     7     4     5   ar
     8     5     6   ar
     9     6     7   ar
    10     7     8   ar
    11     8     9   ar
    12     9    10    1
    13    10    15    1
    14    15    16    1
    15    16    17   ar
    16    17    18   ar
    17    18    19   ar
    18    19    20   ar
    19    20    21   ar
    20    21    22    1
    21    10     1    1
    22    21    16   ar
    23     9     4   ar
    24    13    14    1
@<TRIPOS>MOLECULE
*****
 22 24 0 0 0
SMALL
GASTEIGER

@<TRIPOS>ATOM
      1 C          -6.3307  -19.1733   22.1717 C.3     1  UNL1        0.1038
      2 C          -5.0461  -18.4034   22.2546 C.3     1  UNL1        0.2106
      3 O          -5.0035  -17.0915   22.9805 O.3     1  UNL1       -0.4755
      4 C          -6.2456  -16.5494   23.6236 C.ar    1  UNL1        0.1379
      5 C          -6.2030  -15.2375   24.3495 C.ar    1  UNL1        0.0367
      6 C          -7.4451  -14.6955   24.9925 C.ar    1  UNL1        0.0031
      7 C          -8.7297  -15.4655   24.9096 C.ar    1  UNL1       -0.0000
      8 C          -8.7723  -16.7774   24.1836 C.ar    1  UNL1        0.0022
      9 C          -7.5303  -17.3194   23.5406 C.ar    1  UNL1        0.0513
     10 C          -7.5728  -18.6314   22.8147 C.3     1  UNL1        0.1959
     11 C          -6.3733  -20.4853   21.4457 C.3     1  UNL1        0.0763
     12 C          -4.2425  -20.8252   19.9986 C.3     1  UNL1        0.0859
     13 N          -5.7248  -20.6191   20.0998 N.3     1  UNL1       -0.2961
     14 H          -6.1649  -21.4154   19.6387 H       1  UNL1        0.1233
     15 O          -8.8575  -19.4013   22.7317 O.3     1  UNL1       -0.4748
     16 C         -10.0536  -18.7943   22.0603 C.ar    1  UNL1        0.1348
     17 C          -9.9503  -18.2992   20.6482 C.ar    1  UNL1        0.0366
     18 C         -11.1465  -17.6922   19.9769 C.ar    1  UNL1        0.0031
     19 C         -12.4460  -17.5803   20.7177 C.ar    1  UNL1       -0.0001
     20 C         -12.5493  -18.0754   22.1298 C.ar    1  UNL1       -0.0013
     21 C         -11.3531  -18.6824   22.8011 C.ar    1  UNL1        0.0121
     22 C         -11.4565  -19.1775   24.2133 C.3     1  UNL1        0.0342
@<TRIPOS>BOND
     1    12    13    1
     2    13    11    1
     3     1    11    1
     4     1     2    1
     5     2     3    1
     6     3     4    1
     7     4     5   ar
     8     5     6   ar
     9     6     7   ar
    10     7     8   ar
    11     8     9   ar
    12     9    10    1
    13    10    15    1
    14    15    16    1
    15    16    17   ar
    16    17    18   ar
    17    18    19   ar
    18    19    20   ar
    19    20    21   ar
    20    21    22    1
    21    10     1    1
    22    21    16   ar
    23     9     4   ar
    24    13    14    1
@<TRIPOS>MOLECULE
*****
 22 24 0 0 0
SMALL
GASTEIGER

@<TRIPOS>ATOM
      1 C          -8.0387  -19.5881   19.9134 C.3     1  UNL1        0.1038
      2 C          -7.2802  -20.5389   19.0355 C.3     1  UNL1        0.2106
      3 O          -5.8226  -20.7899   19.2852 O.3     1  UNL1       -0.4755
      4 C          -5.1234  -20.0901   20.4129 C.ar    1  UNL1        0.1379
      5 C          -3.6659  -20.3411   20.6626 C.ar    1  UNL1        0.0367
      6 C          -2.9668  -19.6413   21.7902 C.ar    1  UNL1        0.0031
      7 C          -3.7252  -18.6905   22.6680 C.ar    1  UNL1       -0.0000
      8 C          -5.1828  -18.4395   22.4183 C.ar    1  UNL1        0.0022
      9 C          -5.8819  -19.1393   21.2908 C.ar    1  UNL1        0.0513
     10 C          -7.3396  -18.8883   21.0410 C.3     1  UNL1        0.1959
     11 C          -9.4964  -19.3371   19.6637 C.3     1  UNL1        0.0763
     12 C         -11.4263  -17.7091   20.2760 C.3     1  UNL1        0.0859
     13 N         -10.0423  -17.9424   19.7469 N.3     1  UNL1       -0.2961
     14 H          -9.4061  -17.4123   20.3425 H       1  UNL1        0.1233
     15 O          -8.0981  -17.9375   21.9189 O.3     1  UNL1       -0.4748
     16 C          -8.8403  -18.4522   23.1165 C.ar    1  UNL1        0.1348
     17 C          -9.0928  -19.9230   23.2673 C.ar    1  UNL1        0.0366
     18 C          -9.8350  -20.4376   24.4649 C.ar    1  UNL1        0.0031
     19 C         -10.3247  -19.4814   25.5117 C.ar    1  UNL1       -0.0001
     20 C         -10.0723  -18.0105   25.3609 C.ar    1  UNL1       -0.0013
     21 C          -9.3301  -17.4959   24.1633 C.ar    1  UNL1        0.0121
     22 C          -9.0776  -16.0250   24.0124 C.3     1  UNL1        0.0342
@<TRIPOS>BOND
     1    12    13    1
     2    13    11    1
     3     1    11    1
     4     1     2    1
     5     2     3    1
     6     3     4    1
     7     4     5   ar
     8     5     6   ar
     9     6     7   ar
    10     7     8   ar
    11     8     9   ar
    12     9    10    1
    13    10    15    1
    14    15    16    1
    15    16    17   ar
    16    17    18   ar
    17    18    19   ar
    18    19    20   ar
    19    20    21   ar
    20    21    22    1
    21    10     1    1
    22    21    16   ar
    23     9     4   ar
    24    13    14    1
@<TRIPOS>MOLECULE
*****
 22 24 0 0 0
SMALL
GASTEIGER

@<TRIPOS>ATOM
      1 C          -9.2296  -17.8351   23.2809 C.3     1  UNL1        0.1038
      2 C         -10.1093  -17.9213   24.4928 C.3     1  UNL1        0.2106
      3 O          -9.6753  -17.2877   25.7812 O.3     1  UNL1       -0.4755
      4 C          -8.3615  -16.5678   25.8578 C.ar    1  UNL1        0.1379
      5 C          -7.9274  -15.9342   27.1462 C.ar    1  UNL1        0.0367
      6 C          -6.6137  -15.2144   27.2227 C.ar    1  UNL1        0.0031
      7 C          -5.7340  -15.1282   26.0108 C.ar    1  UNL1       -0.0000
      8 C          -6.1680  -15.7618   24.7224 C.ar    1  UNL1        0.0022
      9 C          -7.4818  -16.4816   24.6459 C.ar    1  UNL1        0.0513
     10 C          -7.9159  -17.1153   23.3574 C.3     1  UNL1        0.1959
     11 C          -9.6638  -18.4688   21.9924 C.3     1  UNL1        0.0763
     12 C         -10.9366  -18.0857   19.7602 C.3     1  UNL1        0.0859
     13 N          -9.9638  -17.6115   20.7987 N.3     1  UNL1       -0.2961
     14 H         -10.3221  -16.7255   21.1551 H       1  UNL1        0.1233
     15 O          -7.0362  -17.0291   22.1455 O.3     1  UNL1       -0.4748
     16 C          -6.2884  -18.2409   21.6738 C.ar    1  UNL1        0.1348
     17 C          -6.9213  -19.1754   20.6858 C.ar    1  UNL1        0.0366
     18 C          -6.1734  -20.3871   20.2143 C.ar    1  UNL1        0.0031
     19 C          -4.7927  -20.6643   20.7307 C.ar    1  UNL1       -0.0001
     20 C          -4.1598  -19.7299   21.7186 C.ar    1  UNL1       -0.0013
     21 C          -4.9076  -18.5181   22.1902 C.ar    1  UNL1        0.0121
     22 C          -4.2747  -17.5836   23.1783 C.3     1  UNL1        0.0342
@<TRIPOS>BOND
     1    12    13    1
     2    13    11    1
     3     1    11    1
     4     1     2    1
     5     2     3    1
     6     3     4    1
     7     4     5   ar
     8     5     6   ar
     9     6     7   ar
    10     7     8   ar
    11     8     9   ar
    12     9    10    1
    13    10    15    1
    14    15    16    1
    15    16    17   ar
    16    17    18   ar
    17    18    19   ar
    18    19    20   ar
    19    20    21   ar
    20    21    22    1
    21    10     1    1
    22    21    16   ar
    23     9     4   ar
    24    13    14    1
