@<TRIPOS>MOLECULE
*****
 40 43 0 0 0
SMALL
GASTEIGER

@<TRIPOS>ATOM
      1 C           4.8751   -3.0906   22.7686 C.ar    1  UNL1        0.0611
      2 C           5.8065   -3.5391   23.8555 C.ar    1  UNL1        0.1037
      3 N           5.5966   -2.6470   25.0430 N.ar    1  UNL1       -0.2269
      4 C           4.5355   -1.6472   24.6900 C.ar    1  UNL1        0.1407
      5 N           3.9178   -0.5226   25.4669 N.ar    1  UNL1       -0.3374
      6 C           2.8541    0.3278   24.8381 C.ar    1  UNL1        0.0735
      7 C           2.4082    0.0536   23.4324 C.ar    1  UNL1        0.0186
      8 C           3.0259   -1.0710   22.6555 C.ar    1  UNL1        0.0047
      9 C           4.0896   -1.9214   23.2843 C.ar    1  UNL1        0.0386
     10 H           4.2105   -0.3426   26.3895 H       1  UNL1        0.1674
     11 C           1.3445    0.9040   22.8036 C.ar    1  UNL1        0.0206
     12 C           0.8503    0.5880   21.4231 C.ar    1  UNL1        0.0033
     13 C          -0.2135    1.4385   20.7943 C.ar    1  UNL1        0.0238
     14 C          -0.7829    2.6049   21.5461 C.ar    1  UNL1        0.1345
     15 N          -0.2886    2.9209   22.9267 N.ar    1  UNL1       -0.2393
     16 C           0.7750    2.0704   23.5554 C.ar    1  UNL1        0.0990
     17 C          -1.8466    3.4553   20.9174 C.2     1  UNL1        0.2636
     18 O          -1.6155    4.9249   20.7248 O.2     1  UNL1       -0.2685
     19 N          -3.1414    2.8363   20.4813 N.am    1  UNL1       -0.2996
     20 H          -3.2930    1.8718   20.6077 H       1  UNL1        0.1498
     21 C          -4.2051    3.6867   19.8526 C.3     1  UNL1        0.0898
     22 C          -4.2873    3.8029   18.3594 C.3     1  UNL1        0.0230
     23 C           4.7510   -3.7038   21.4053 C.2     1  UNL1        0.2015
     24 O           4.0855   -5.0379   21.2406 O.2     1  UNL1       -0.2864
     25 C           4.9308   -1.3905   18.1855 C.ar    1  UNL1        0.0920
     26 C           6.3750   -1.5406   17.8090 C.ar    1  UNL1        0.0204
     27 C           7.2779   -2.4117   18.6312 C.ar    1  UNL1        0.0312
     28 C           6.7366   -3.1328   19.8299 C.ar    1  UNL1        0.1454
     29 F           7.6394   -4.0039   20.6521 F       1  UNL1       -0.2040
     30 C           5.2924   -2.9827   20.2064 C.ar    1  UNL1        0.0951
     31 C           4.3896   -2.1116   19.3842 C.ar    1  UNL1        0.1598
     32 F           2.9453   -1.9615   19.7609 F       1  UNL1       -0.2026
     33 N           4.0280   -0.5194   17.3633 N.pl3   1  UNL1       -0.2166
     34 H           3.7678   -0.7981   16.4557 H       1  UNL1        0.1734
     35 S           3.5217    0.7765   17.9240 S.O2    1  UNL1        0.0540
     36 O           4.9141    1.3336   17.8938 O.2     1  UNL1       -0.1545
     37 O           2.1293    0.2194   17.9542 O.2     1  UNL1       -0.1545
     38 C           3.0153    2.0723   18.4847 C.3     1  UNL1        0.1724
     39 C           2.7617    3.6702   20.5176 C.3     1  UNL1        0.0019
     40 C           3.4591    2.5258   19.8439 C.3     1  UNL1        0.0273
@<TRIPOS>BOND
     1    39    40    1
     2    40    38    1
     3    38    35    1
     4    35    36    2
     5    35    37    2
     6    35    33    1
     7    33    25    1
     8    25    26   ar
     9    26    27   ar
    10    27    28   ar
    11    28    29    1
    12    28    30   ar
    13    30    23    1
    14    23    24    2
    15    23     1    1
    16     1     2   ar
    17     2     3   ar
    18     3     4   ar
    19     4     5   ar
    20     5     6   ar
    21     6     7   ar
    22     7    11    1
    23    11    12   ar
    24    12    13   ar
    25    13    14   ar
    26    14    17    1
    27    17    18    2
    28    17    19   am
    29    19    21    1
    30    21    22    1
    31    14    15   ar
    32    15    16   ar
    33     7     8   ar
    34     8     9   ar
    35    30    31   ar
    36    31    32    1
    37    31    25   ar
    38     9     1   ar
    39     9     4    1
    40    16    11   ar
    41    33    34    1
    42     5    10    1
    43    19    20    1
@<TRIPOS>MOLECULE
*****
 40 43 0 0 0
SMALL
GASTEIGER

@<TRIPOS>ATOM
      1 C           5.5743   -2.6453   19.2277 C.ar    1  UNL1        0.0611
      2 C           6.1949   -2.3895   17.8863 C.ar    1  UNL1        0.1037
      3 N           5.7455   -1.0372   17.4180 N.ar    1  UNL1       -0.2269
      4 C           4.8471   -0.4573   18.4699 C.ar    1  UNL1        0.1407
      5 N           4.1118    0.8474   18.5539 N.ar    1  UNL1       -0.3374
      6 C           3.2706    1.1581   19.7563 C.ar    1  UNL1        0.0735
      7 C           3.1648    0.1642   20.8748 C.ar    1  UNL1        0.0186
      8 C           3.9002   -1.1404   20.7908 C.ar    1  UNL1        0.0047
      9 C           4.7413   -1.4512   19.5884 C.ar    1  UNL1        0.0386
     10 H           4.1812    1.4997   17.8198 H       1  UNL1        0.1674
     11 C           2.3236    0.4751   22.0772 C.ar    1  UNL1        0.0206
     12 C           2.7509    0.0004   23.4344 C.ar    1  UNL1        0.0033
     13 C           1.9097    0.3113   24.6369 C.ar    1  UNL1        0.0238
     14 C           0.6412    1.0967   24.4820 C.ar    1  UNL1        0.1345
     15 N           0.2139    1.5714   23.1247 N.ar    1  UNL1       -0.2393
     16 C           1.0551    1.2605   21.9223 C.ar    1  UNL1        0.0990
     17 C          -0.2000    1.4076   25.6844 C.2     1  UNL1        0.2636
     18 O          -1.3056    2.4165   25.5857 O.2     1  UNL1       -0.2685
     19 N           0.0644    0.7095   26.9854 N.am    1  UNL1       -0.2996
     20 H           0.7900    0.0473   27.0501 H       1  UNL1        0.1498
     21 C          -0.7769    1.0203   28.1879 C.3     1  UNL1        0.0898
     22 C          -1.5218   -0.0784   28.8863 C.3     1  UNL1        0.0230
     23 C           5.7550   -3.8788   20.0620 C.2     1  UNL1        0.2015
     24 O           5.1042   -5.1655   19.6490 O.2     1  UNL1       -0.2864
     25 C           6.7533   -3.7716   23.9015 C.ar    1  UNL1        0.0920
     26 C           8.2492   -3.7187   23.8040 C.ar    1  UNL1        0.0204
     27 C           8.9137   -3.7192   22.4593 C.ar    1  UNL1        0.0312
     28 C           8.0823   -3.7726   21.2119 C.ar    1  UNL1        0.1454
     29 F           8.7468   -3.7731   19.8671 F       1  UNL1       -0.2040
     30 C           6.5864   -3.8254   21.3094 C.ar    1  UNL1        0.0951
     31 C           5.9220   -3.8249   22.6542 C.ar    1  UNL1        0.1598
     32 F           4.4260   -3.8778   22.7515 F       1  UNL1       -0.2026
     33 N           6.0889   -3.7711   25.2463 N.pl3   1  UNL1       -0.2166
     34 H           5.1427   -3.5114   25.3278 H       1  UNL1        0.1734
     35 S           6.8660   -4.1662   26.4669 S.O2    1  UNL1        0.0540
     36 O           7.0995   -2.7194   26.7866 O.2     1  UNL1       -0.1545
     37 O           6.6325   -5.6130   26.1473 O.2     1  UNL1       -0.1545
     38 C           7.6431   -4.5614   27.6875 C.3     1  UNL1        0.1724
     39 C           6.7618   -4.4505   30.1292 C.3     1  UNL1        0.0019
     40 C           6.9424   -5.2066   28.8464 C.3     1  UNL1        0.0273
@<TRIPOS>BOND
     1    39    40    1
     2    40    38    1
     3    38    35    1
     4    35    36    2
     5    35    37    2
     6    35    33    1
     7    33    25    1
     8    25    26   ar
     9    26    27   ar
    10    27    28   ar
    11    28    29    1
    12    28    30   ar
    13    30    23    1
    14    23    24    2
    15    23     1    1
    16     1     2   ar
    17     2     3   ar
    18     3     4   ar
    19     4     5   ar
    20     5     6   ar
    21     6     7   ar
    22     7    11    1
    23    11    12   ar
    24    12    13   ar
    25    13    14   ar
    26    14    17    1
    27    17    18    2
    28    17    19   am
    29    19    21    1
    30    21    22    1
    31    14    15   ar
    32    15    16   ar
    33     7     8   ar
    34     8     9   ar
    35    30    31   ar
    36    31    32    1
    37    31    25   ar
    38     9     1   ar
    39     9     4    1
    40    16    11   ar
    41    33    34    1
    42     5    10    1
    43    19    20    1
@<TRIPOS>MOLECULE
*****
 40 43 0 0 0
SMALL
GASTEIGER

@<TRIPOS>ATOM
      1 C           0.4278    2.3505   22.7121 C.ar    1  UNL1        0.0611
      2 C          -0.6994    2.8915   21.8834 C.ar    1  UNL1        0.1037
      3 N          -0.8074    2.0534   20.6442 N.ar    1  UNL1       -0.2269
      4 C           0.2531    0.9944   20.7069 C.ar    1  UNL1        0.1407
      5 N           0.6222   -0.1134   19.7654 N.ar    1  UNL1       -0.3374
      6 C           1.7547   -1.0376   20.1019 C.ar    1  UNL1        0.0735
      7 C           2.5182   -0.8539   21.3800 C.ar    1  UNL1        0.0186
      8 C           2.1490    0.2539   22.3215 C.ar    1  UNL1        0.0047
      9 C           1.0165    1.1780   21.9850 C.ar    1  UNL1        0.0386
     10 H           0.1212   -0.2340   18.9265 H       1  UNL1        0.1674
     11 C           3.6507   -1.7781   21.7165 C.ar    1  UNL1        0.0206
     12 C           4.0654   -1.9669   23.1456 C.ar    1  UNL1        0.0033
     13 C           5.1980   -2.8911   23.4822 C.ar    1  UNL1        0.0238
     14 C           5.9159   -3.6265   22.3895 C.ar    1  UNL1        0.1345
     15 N           5.5012   -3.4376   20.9603 N.ar    1  UNL1       -0.2393
     16 C           4.3686   -2.5135   20.6239 C.ar    1  UNL1        0.0990
     17 C           7.0484   -4.5506   22.7260 C.2     1  UNL1        0.2636
     18 O           7.9561   -5.0505   21.6414 O.2     1  UNL1       -0.2685
     19 N           7.2733   -4.9749   24.1470 N.am    1  UNL1       -0.2996
     20 H           6.6775   -4.6468   24.8588 H       1  UNL1        0.1498
     21 C           8.4058   -5.8991   24.4835 C.3     1  UNL1        0.0898
     22 C           8.1895   -7.3834   24.4785 C.3     1  UNL1        0.0230
     23 C           0.8860    2.8877   24.0355 C.2     1  UNL1        0.2015
     24 O           2.0338    3.8513   24.0972 O.2     1  UNL1       -0.2864
     25 C           0.0356    0.8734   27.3476 C.ar    1  UNL1        0.0920
     26 C          -1.1832    1.6084   27.8213 C.ar    1  UNL1        0.0204
     27 C          -1.7123    2.7697   27.0331 C.ar    1  UNL1        0.0312
     28 C          -1.0226    3.1962   25.7712 C.ar    1  UNL1        0.1454
     29 F          -1.5517    4.3576   24.9830 F       1  UNL1       -0.2040
     30 C           0.1962    2.4613   25.2975 C.ar    1  UNL1        0.0951
     31 C           0.7253    1.2999   26.0857 C.ar    1  UNL1        0.1598
     32 F           1.9441    0.5650   25.6120 F       1  UNL1       -0.2026
     33 N           0.5646   -0.2880   28.1358 N.pl3   1  UNL1       -0.2166
     34 H           0.1625   -1.1801   28.0281 H       1  UNL1        0.1734
     35 S           1.7065   -0.0901   29.0882 S.O2    1  UNL1        0.0540
     36 O           0.7902    0.6219   30.0388 O.2     1  UNL1       -0.1545
     37 O           2.6227   -0.8020   28.1376 O.2     1  UNL1       -0.1545
     38 C           2.8484    0.1078   30.0405 C.3     1  UNL1        0.1724
     39 C           3.6577   -0.4100   32.4545 C.3     1  UNL1        0.0019
     40 C           3.0771   -0.8738   31.1515 C.3     1  UNL1        0.0273
@<TRIPOS>BOND
     1    39    40    1
     2    40    38    1
     3    38    35    1
     4    35    36    2
     5    35    37    2
     6    35    33    1
     7    33    25    1
     8    25    26   ar
     9    26    27   ar
    10    27    28   ar
    11    28    29    1
    12    28    30   ar
    13    30    23    1
    14    23    24    2
    15    23     1    1
    16     1     2   ar
    17     2     3   ar
    18     3     4   ar
    19     4     5   ar
    20     5     6   ar
    21     6     7   ar
    22     7    11    1
    23    11    12   ar
    24    12    13   ar
    25    13    14   ar
    26    14    17    1
    27    17    18    2
    28    17    19   am
    29    19    21    1
    30    21    22    1
    31    14    15   ar
    32    15    16   ar
    33     7     8   ar
    34     8     9   ar
    35    30    31   ar
    36    31    32    1
    37    31    25   ar
    38     9     1   ar
    39     9     4    1
    40    16    11   ar
    41    33    34    1
    42     5    10    1
    43    19    20    1
@<TRIPOS>MOLECULE
*****
 40 43 0 0 0
SMALL
GASTEIGER

@<TRIPOS>ATOM
      1 C           5.3366   -2.8869   19.5438 C.ar    1  UNL1        0.0611
      2 C           6.5170   -3.1067   18.6448 C.ar    1  UNL1        0.1037
      3 N           6.5526   -1.9890   17.6450 N.ar    1  UNL1       -0.2269
      4 C           5.3941   -1.0786   17.9260 C.ar    1  UNL1        0.1407
      5 N           4.9265    0.1841   17.2650 N.ar    1  UNL1       -0.3374
      6 C           3.7073    0.8918   17.7775 C.ar    1  UNL1        0.0735
      7 C           2.9558    0.3369   18.9511 C.ar    1  UNL1        0.0186
      8 C           3.4234   -0.9258   19.6121 C.ar    1  UNL1        0.0047
      9 C           4.6426   -1.6335   19.0996 C.ar    1  UNL1        0.0386
     10 H           5.4197    0.5483   16.4948 H       1  UNL1        0.1674
     11 C           1.7365    1.0446   19.4636 C.ar    1  UNL1        0.0206
     12 C           1.1615    2.1986   18.6971 C.ar    1  UNL1        0.0033
     13 C          -0.0578    2.9064   19.2096 C.ar    1  UNL1        0.0238
     14 C          -0.7019    2.4601   20.4887 C.ar    1  UNL1        0.1345
     15 N          -0.1267    1.3061   21.2552 N.ar    1  UNL1       -0.2393
     16 C           1.0925    0.5984   20.7427 C.ar    1  UNL1        0.0990
     17 C          -1.9210    3.1679   21.0012 C.2     1  UNL1        0.2636
     18 O          -1.7739    4.3753   21.8789 O.2     1  UNL1       -0.2685
     19 N          -3.2873    2.6681   20.6361 N.am    1  UNL1       -0.2996
     20 H          -3.3839    1.8756   20.0600 H       1  UNL1        0.1498
     21 C          -4.5066    3.3758   21.1486 C.3     1  UNL1        0.0898
     22 C          -4.9929    3.1173   22.5438 C.3     1  UNL1        0.0230
     23 C           4.9228   -3.7662   20.6864 C.2     1  UNL1        0.2015
     24 O           4.0742   -4.9766   20.4323 O.2     1  UNL1       -0.2864
     25 C           4.9387   -2.2214   24.3421 C.ar    1  UNL1        0.0920
     26 C           6.2271   -2.7726   24.8771 C.ar    1  UNL1        0.0204
     27 C           7.0807   -3.6550   24.0152 C.ar    1  UNL1        0.0312
     28 C           6.6460   -3.9862   22.6184 C.ar    1  UNL1        0.1454
     29 F           7.4996   -4.8686   21.7565 F       1  UNL1       -0.2040
     30 C           5.3576   -3.4350   22.0834 C.ar    1  UNL1        0.0951
     31 C           4.5040   -2.5527   22.9452 C.ar    1  UNL1        0.1598
     32 F           3.2156   -2.0015   22.4101 F       1  UNL1       -0.2026
     33 N           4.0851   -1.3391   25.2039 N.pl3   1  UNL1       -0.2166
     34 H           3.6228   -1.7150   25.9877 H       1  UNL1        0.1734
     35 S           3.9359    0.1160   24.8717 S.O2    1  UNL1        0.0540
     36 O           2.4807   -0.1001   24.5788 O.2     1  UNL1       -0.1545
     37 O           5.3910    0.3321   25.1646 O.2     1  UNL1       -0.1545
     38 C           3.7867    1.5711   24.5395 C.3     1  UNL1        0.1724
     39 C           4.4534    1.7697   22.0362 C.3     1  UNL1        0.0019
     40 C           3.4588    1.9905   23.1371 C.3     1  UNL1        0.0273
@<TRIPOS>BOND
     1    39    40    1
     2    40    38    1
     3    38    35    1
     4    35    36    2
     5    35    37    2
     6    35    33    1
     7    33    25    1
     8    25    26   ar
     9    26    27   ar
    10    27    28   ar
    11    28    29    1
    12    28    30   ar
    13    30    23    1
    14    23    24    2
    15    23     1    1
    16     1     2   ar
    17     2     3   ar
    18     3     4   ar
    19     4     5   ar
    20     5     6   ar
    21     6     7   ar
    22     7    11    1
    23    11    12   ar
    24    12    13   ar
    25    13    14   ar
    26    14    17    1
    27    17    18    2
    28    17    19   am
    29    19    21    1
    30    21    22    1
    31    14    15   ar
    32    15    16   ar
    33     7     8   ar
    34     8     9   ar
    35    30    31   ar
    36    31    32    1
    37    31    25   ar
    38     9     1   ar
    39     9     4    1
    40    16    11   ar
    41    33    34    1
    42     5    10    1
    43    19    20    1
@<TRIPOS>MOLECULE
*****
 40 43 0 0 0
SMALL
GASTEIGER

@<TRIPOS>ATOM
      1 C           7.6573   -3.9990   27.7077 C.ar    1  UNL1        0.0611
      2 C           8.1148   -5.3422   27.2216 C.ar    1  UNL1        0.1037
      3 N           8.0267   -6.3049   28.3686 N.ar    1  UNL1       -0.2269
      4 C           7.5147   -5.5566   29.5636 C.ar    1  UNL1        0.1407
      5 N           7.2270   -5.9887   30.9708 N.ar    1  UNL1       -0.3374
      6 C           6.7109   -4.9958   31.9696 C.ar    1  UNL1        0.0735
      7 C           6.4826   -3.5706   31.5611 C.ar    1  UNL1        0.0186
      8 C           6.7703   -3.1384   30.1539 C.ar    1  UNL1        0.0047
      9 C           7.2864   -4.1314   29.1551 C.ar    1  UNL1        0.0386
     10 H           7.3768   -6.9241   31.2389 H       1  UNL1        0.1674
     11 C           5.9665   -2.5776   32.5600 C.ar    1  UNL1        0.0206
     12 C           6.8631   -1.4861   33.0645 C.ar    1  UNL1        0.0033
     13 C           6.3470   -0.4932   34.0634 C.ar    1  UNL1        0.0238
     14 C           4.9342   -0.5917   34.5577 C.ar    1  UNL1        0.1345
     15 N           4.0376   -1.6833   34.0531 N.ar    1  UNL1       -0.2393
     16 C           4.5537   -2.6762   33.0543 C.ar    1  UNL1        0.0990
     17 C           4.4181    0.4012   35.5565 C.2     1  UNL1        0.2636
     18 O           3.8570    1.7117   35.0901 O.2     1  UNL1       -0.2685
     19 N           4.4631    0.0835   37.0218 N.am    1  UNL1       -0.2996
     20 H           4.8314   -0.7767   37.3279 H       1  UNL1        0.1498
     21 C           3.9470    1.0764   38.0207 C.3     1  UNL1        0.0898
     22 C           2.5206    1.0063   38.4797 C.3     1  UNL1        0.0230
     23 C           7.5836   -2.7436   26.8900 C.2     1  UNL1        0.2015
     24 O           8.5347   -1.6157   27.1600 O.2     1  UNL1       -0.2864
     25 C           5.7676   -3.1398   23.3835 C.ar    1  UNL1        0.0920
     26 C           4.5087   -2.3614   23.6267 C.ar    1  UNL1        0.0204
     27 C           4.2747   -1.7104   24.9576 C.ar    1  UNL1        0.0312
     28 C           5.2996   -1.8377   26.0454 C.ar    1  UNL1        0.1454
     29 F           5.0657   -1.1867   27.3763 F       1  UNL1       -0.2040
     30 C           6.5586   -2.6162   25.8022 C.ar    1  UNL1        0.0951
     31 C           6.7925   -3.2672   24.4712 C.ar    1  UNL1        0.1598
     32 F           8.0515   -4.0457   24.2281 F       1  UNL1       -0.2026
     33 N           6.0016   -3.7909   22.0525 N.pl3   1  UNL1       -0.2166
     34 H           6.6327   -4.5426   21.9764 H       1  UNL1        0.1734
     35 S           5.2740   -3.2965   20.8376 S.O2    1  UNL1        0.0540
     36 O           4.3329   -4.4611   20.9273 O.2     1  UNL1       -0.1545
     37 O           6.2150   -2.1319   20.7479 O.2     1  UNL1       -0.1545
     38 C           4.5464   -2.8021   19.6226 C.3     1  UNL1        0.1724
     39 C           2.7426   -1.1213   20.4420 C.3     1  UNL1        0.0019
     40 C           3.1085   -2.3877   19.7264 C.3     1  UNL1        0.0273
@<TRIPOS>BOND
     1    39    40    1
     2    40    38    1
     3    38    35    1
     4    35    36    2
     5    35    37    2
     6    35    33    1
     7    33    25    1
     8    25    26   ar
     9    26    27   ar
    10    27    28   ar
    11    28    29    1
    12    28    30   ar
    13    30    23    1
    14    23    24    2
    15    23     1    1
    16     1     2   ar
    17     2     3   ar
    18     3     4   ar
    19     4     5   ar
    20     5     6   ar
    21     6     7   ar
    22     7    11    1
    23    11    12   ar
    24    12    13   ar
    25    13    14   ar
    26    14    17    1
    27    17    18    2
    28    17    19   am
    29    19    21    1
    30    21    22    1
    31    14    15   ar
    32    15    16   ar
    33     7     8   ar
    34     8     9   ar
    35    30    31   ar
    36    31    32    1
    37    31    25   ar
    38     9     1   ar
    39     9     4    1
    40    16    11   ar
    41    33    34    1
    42     5    10    1
    43    19    20    1
@<TRIPOS>MOLECULE
*****
 40 43 0 0 0
SMALL
GASTEIGER

@<TRIPOS>ATOM
      1 C           5.0473   -3.3240   22.5092 C.ar    1  UNL1        0.0611
      2 C           6.1070   -3.9274   23.3827 C.ar    1  UNL1        0.1037
      3 N           6.0983   -3.1976   24.6932 N.ar    1  UNL1       -0.2269
      4 C           5.0333   -2.1432   24.6296 C.ar    1  UNL1        0.1407
      5 N           4.5711   -1.1220   25.6263 N.ar    1  UNL1       -0.3374
      6 C           3.4594   -0.1790   25.2733 C.ar    1  UNL1        0.0735
      7 C           2.8098   -0.2572   23.9235 C.ar    1  UNL1        0.0186
      8 C           3.2720   -1.2783   22.9267 C.ar    1  UNL1        0.0047
      9 C           4.3837   -2.2213   23.2798 C.ar    1  UNL1        0.0386
     10 H           4.9974   -1.0707   26.5123 H       1  UNL1        0.1674
     11 C           1.6980    0.6859   23.5705 C.ar    1  UNL1        0.0206
     12 C           1.0222    1.4845   24.6454 C.ar    1  UNL1        0.0033
     13 C          -0.0896    2.4276   24.2924 C.ar    1  UNL1        0.0238
     14 C          -0.5256    2.5720   22.8644 C.ar    1  UNL1        0.1345
     15 N           0.1503    1.7734   21.7895 N.ar    1  UNL1       -0.2393
     16 C           1.2620    0.8303   22.1425 C.ar    1  UNL1        0.0990
     17 C          -1.6373    3.5151   22.5114 C.2     1  UNL1        0.2636
     18 O          -1.7824    4.8131   23.2489 O.2     1  UNL1       -0.2685
     19 N          -2.6040    3.1600   21.4207 N.am    1  UNL1       -0.2996
     20 H          -2.5087    2.3081   20.9367 H       1  UNL1        0.1498
     21 C          -3.7158    4.1031   21.0676 C.3     1  UNL1        0.0898
     22 C          -4.9356    3.5928   20.3594 C.3     1  UNL1        0.0230
     23 C           4.7103   -3.7487   21.1106 C.2     1  UNL1        0.2015
     24 O           4.0225   -5.0598   20.8701 O.2     1  UNL1       -0.2864
     25 C           4.3616   -1.1055   18.1709 C.ar    1  UNL1        0.0920
     26 C           5.7631   -1.0896   17.6363 C.ar    1  UNL1        0.0204
     27 C           6.8136   -1.9600   18.2598 C.ar    1  UNL1        0.0312
     28 C           6.4627   -2.8464   19.4179 C.ar    1  UNL1        0.1454
     29 F           7.5132   -3.7168   20.0414 F       1  UNL1       -0.2040
     30 C           5.0613   -2.8623   19.9525 C.ar    1  UNL1        0.0951
     31 C           4.0108   -1.9919   19.3289 C.ar    1  UNL1        0.1598
     32 F           2.6094   -2.0079   19.8636 F       1  UNL1       -0.2026
     33 N           3.3111   -0.2351   17.5473 N.pl3   1  UNL1       -0.2166
     34 H           2.9293   -0.4746   16.6721 H       1  UNL1        0.1734
     35 S           2.8425    1.0003   18.2573 S.O2    1  UNL1        0.0540
     36 O           4.2392    1.5464   18.2292 O.2     1  UNL1       -0.1545
     37 O           1.4457    0.4543   18.2854 O.2     1  UNL1       -0.1545
     38 C           2.3737    2.2357   18.9673 C.3     1  UNL1        0.1724
     39 C           1.0319    4.1850   17.8950 C.3     1  UNL1        0.0019
     40 C           1.0608    2.8604   18.5981 C.3     1  UNL1        0.0273
@<TRIPOS>BOND
     1    39    40    1
     2    40    38    1
     3    38    35    1
     4    35    36    2
     5    35    37    2
     6    35    33    1
     7    33    25    1
     8    25    26   ar
     9    26    27   ar
    10    27    28   ar
    11    28    29    1
    12    28    30   ar
    13    30    23    1
    14    23    24    2
    15    23     1    1
    16     1     2   ar
    17     2     3   ar
    18     3     4   ar
    19     4     5   ar
    20     5     6   ar
    21     6     7   ar
    22     7    11    1
    23    11    12   ar
    24    12    13   ar
    25    13    14   ar
    26    14    17    1
    27    17    18    2
    28    17    19   am
    29    19    21    1
    30    21    22    1
    31    14    15   ar
    32    15    16   ar
    33     7     8   ar
    34     8     9   ar
    35    30    31   ar
    36    31    32    1
    37    31    25   ar
    38     9     1   ar
    39     9     4    1
    40    16    11   ar
    41    33    34    1
    42     5    10    1
    43    19    20    1
@<TRIPOS>MOLECULE
*****
 40 43 0 0 0
SMALL
GASTEIGER

@<TRIPOS>ATOM
      1 C           6.6814   -3.2567   30.0987 C.ar    1  UNL1        0.0611
      2 C           6.7835   -4.1626   31.2899 C.ar    1  UNL1        0.1037
      3 N           6.9385   -5.5687   30.7909 N.ar    1  UNL1       -0.2269
      4 C           6.9322   -5.5318   29.2914 C.ar    1  UNL1        0.1407
      5 N           7.0506   -6.6147   28.2603 N.ar    1  UNL1       -0.3374
      6 C           7.0102   -6.2687   26.8013 C.ar    1  UNL1        0.0735
      7 C           6.8514   -4.8398   26.3735 C.ar    1  UNL1        0.0186
      8 C           6.7329   -3.7569   27.4046 C.ar    1  UNL1        0.0047
      9 C           6.7733   -4.1029   28.8635 C.ar    1  UNL1        0.0386
     10 H           7.1549   -7.5525   28.5411 H       1  UNL1        0.1674
     11 C           6.8109   -4.4938   24.9144 C.ar    1  UNL1        0.0206
     12 C           5.9962   -3.3261   24.4428 C.ar    1  UNL1        0.0033
     13 C           5.9557   -2.9801   22.9838 C.ar    1  UNL1        0.0238
     14 C           6.7301   -3.8020   21.9964 C.ar    1  UNL1        0.1345
     15 N           7.5449   -4.9698   22.4681 N.ar    1  UNL1       -0.2393
     16 C           7.5853   -5.3157   23.9270 C.ar    1  UNL1        0.0990
     17 C           6.6897   -3.4561   20.5374 C.2     1  UNL1        0.2636
     18 O           7.9459   -3.0425   19.8296 O.2     1  UNL1       -0.2685
     19 N           5.3932   -3.5237   19.7862 N.am    1  UNL1       -0.2996
     20 H           4.5687   -3.7952   20.2508 H       1  UNL1        0.1498
     21 C           5.3527   -3.1778   18.3272 C.3     1  UNL1        0.0898
     22 C           4.7948   -1.8577   17.8845 C.3     1  UNL1        0.0230
     23 C           6.5164   -1.7663   30.1360 C.2     1  UNL1        0.2015
     24 O           7.7023   -0.8746   29.9159 O.2     1  UNL1       -0.2864
     25 C           2.7799   -0.5569   29.5648 C.ar    1  UNL1        0.0920
     26 C           2.4634    0.0301   30.9084 C.ar    1  UNL1        0.0204
     27 C           3.4979    0.0183   31.9945 C.ar    1  UNL1        0.0312
     28 C           4.8489   -0.5805   31.7371 C.ar    1  UNL1        0.1454
     29 F           5.8834   -0.5923   32.8233 F       1  UNL1       -0.2040
     30 C           5.1654   -1.1675   30.3935 C.ar    1  UNL1        0.0951
     31 C           4.1309   -1.1557   29.3074 C.ar    1  UNL1        0.1598
     32 F           4.4474   -1.7427   27.9638 F       1  UNL1       -0.2026
     33 N           1.7454   -0.5451   28.4787 N.pl3   1  UNL1       -0.2166
     34 H           1.7682   -1.2278   27.7697 H       1  UNL1        0.1734
     35 S           0.6761    0.5068   28.4728 S.O2    1  UNL1        0.0540
     36 O           1.6284    1.4712   27.8302 O.2     1  UNL1       -0.1545
     37 O          -0.2762   -0.4576   29.1154 O.2     1  UNL1       -0.1545
     38 C          -0.3932    1.5587   28.4669 C.3     1  UNL1        0.1724
     39 C          -1.2712    2.5685   26.2399 C.3     1  UNL1        0.0019
     40 C          -0.3687    2.6474   27.4354 C.3     1  UNL1        0.0273
@<TRIPOS>BOND
     1    39    40    1
     2    40    38    1
     3    38    35    1
     4    35    36    2
     5    35    37    2
     6    35    33    1
     7    33    25    1
     8    25    26   ar
     9    26    27   ar
    10    27    28   ar
    11    28    29    1
    12    28    30   ar
    13    30    23    1
    14    23    24    2
    15    23     1    1
    16     1     2   ar
    17     2     3   ar
    18     3     4   ar
    19     4     5   ar
    20     5     6   ar
    21     6     7   ar
    22     7    11    1
    23    11    12   ar
    24    12    13   ar
    25    13    14   ar
    26    14    17    1
    27    17    18    2
    28    17    19   am
    29    19    21    1
    30    21    22    1
    31    14    15   ar
    32    15    16   ar
    33     7     8   ar
    34     8     9   ar
    35    30    31   ar
    36    31    32    1
    37    31    25   ar
    38     9     1   ar
    39     9     4    1
    40    16    11   ar
    41    33    34    1
    42     5    10    1
    43    19    20    1
@<TRIPOS>MOLECULE
*****
 40 43 0 0 0
SMALL
GASTEIGER

@<TRIPOS>ATOM
      1 C          -0.1525    2.5934   22.5939 C.ar    1  UNL1        0.0611
      2 C          -0.8925    3.5629   23.4670 C.ar    1  UNL1        0.1037
      3 N          -0.3965    3.3929   24.8724 N.ar    1  UNL1       -0.2269
      4 C           0.6501    2.3184   24.8678 C.ar    1  UNL1        0.1407
      5 N           1.4852    1.7260   25.9640 N.ar    1  UNL1       -0.3374
      6 C           2.4712    0.6396   25.6520 C.ar    1  UNL1        0.0735
      7 C           2.6221    0.1455   24.2437 C.ar    1  UNL1        0.0186
      8 C           1.7869    0.7378   23.1476 C.ar    1  UNL1        0.0047
      9 C           0.8009    1.8242   23.4596 C.ar    1  UNL1        0.0386
     10 H           1.3862    2.0503   26.8883 H       1  UNL1        0.1674
     11 C           3.6081   -0.9410   23.9317 C.ar    1  UNL1        0.0206
     12 C           3.5757   -1.6223   22.5958 C.ar    1  UNL1        0.0033
     13 C           4.5617   -2.7088   22.2838 C.ar    1  UNL1        0.0238
     14 C           5.5802   -3.1140   23.3077 C.ar    1  UNL1        0.1345
     15 N           5.6127   -2.4326   24.6437 N.ar    1  UNL1       -0.2393
     16 C           4.6266   -1.3462   24.9557 C.ar    1  UNL1        0.0990
     17 C           6.5663   -4.2004   22.9958 C.2     1  UNL1        0.2636
     18 O           6.7311   -4.6810   21.5844 O.2     1  UNL1       -0.2685
     19 N           7.3874   -4.8062   24.0951 N.am    1  UNL1       -0.2996
     20 H           7.2792   -4.4908   25.0214 H       1  UNL1        0.1498
     21 C           8.3735   -5.8927   23.7832 C.3     1  UNL1        0.0898
     22 C           8.1263   -7.2912   24.2660 C.3     1  UNL1        0.0230
     23 C          -0.3339    2.4230   21.1147 C.2     1  UNL1        0.2015
     24 O          -1.7119    2.2829   20.5393 O.2     1  UNL1       -0.2864
     25 C           2.4069    1.1061   18.5643 C.ar    1  UNL1        0.0920
     26 C           3.2564    2.3318   18.4032 C.ar    1  UNL1        0.0204
     27 C           2.9091    3.5879   19.1459 C.ar    1  UNL1        0.0312
     28 C           1.7124    3.6183   20.0497 C.ar    1  UNL1        0.1454
     29 F           1.3652    4.8744   20.7925 F       1  UNL1       -0.2040
     30 C           0.8629    2.3926   20.2108 C.ar    1  UNL1        0.0951
     31 C           1.2102    1.1365   19.4681 C.ar    1  UNL1        0.1598
     32 F           0.3606   -0.0892   19.6292 F       1  UNL1       -0.2026
     33 N           2.7541   -0.1500   17.8216 N.pl3   1  UNL1       -0.2166
     34 H           2.0570   -0.6376   17.3261 H       1  UNL1        0.1734
     35 S           4.1635   -0.6632   17.8338 S.O2    1  UNL1        0.0540
     36 O           4.2242   -0.4612   19.3189 O.2     1  UNL1       -0.1545
     37 O           4.1028   -0.8653   16.3487 O.2     1  UNL1       -0.1545
     38 C           5.5729   -1.1764   17.8459 C.3     1  UNL1        0.1724
     39 C           5.0574   -3.6292   18.5306 C.3     1  UNL1        0.0019
     40 C           5.9172   -2.4045   18.6355 C.3     1  UNL1        0.0273
@<TRIPOS>BOND
     1    39    40    1
     2    40    38    1
     3    38    35    1
     4    35    36    2
     5    35    37    2
     6    35    33    1
     7    33    25    1
     8    25    26   ar
     9    26    27   ar
    10    27    28   ar
    11    28    29    1
    12    28    30   ar
    13    30    23    1
    14    23    24    2
    15    23     1    1
    16     1     2   ar
    17     2     3   ar
    18     3     4   ar
    19     4     5   ar
    20     5     6   ar
    21     6     7   ar
    22     7    11    1
    23    11    12   ar
    24    12    13   ar
    25    13    14   ar
    26    14    17    1
    27    17    18    2
    28    17    19   am
    29    19    21    1
    30    21    22    1
    31    14    15   ar
    32    15    16   ar
    33     7     8   ar
    34     8     9   ar
    35    30    31   ar
    36    31    32    1
    37    31    25   ar
    38     9     1   ar
    39     9     4    1
    40    16    11   ar
    41    33    34    1
    42     5    10    1
    43    19    20    1
@<TRIPOS>MOLECULE
*****
 40 43 0 0 0
SMALL
GASTEIGER

@<TRIPOS>ATOM
      1 C           7.4081   -3.6503   27.7839 C.ar    1  UNL1        0.0611
      2 C           7.8021   -4.9899   27.2361 C.ar    1  UNL1        0.1037
      3 N           7.6669   -5.9991   28.3375 N.ar    1  UNL1       -0.2269
      4 C           7.1893   -5.2832   29.5661 C.ar    1  UNL1        0.1407
      5 N           6.8793   -5.7657   30.9521 N.ar    1  UNL1       -0.3374
      6 C           6.4095   -4.7964   31.9960 C.ar    1  UNL1        0.0735
      7 C           6.2495   -3.3448   31.6539 C.ar    1  UNL1        0.0186
      8 C           6.5595   -2.8623   30.2678 C.ar    1  UNL1        0.0047
      9 C           7.0293   -3.8316   29.2239 C.ar    1  UNL1        0.0386
     10 H           6.9843   -6.7185   31.1767 H       1  UNL1        0.1674
     11 C           5.7796   -2.3755   32.6979 C.ar    1  UNL1        0.0206
     12 C           6.6776   -1.2599   33.1439 C.ar    1  UNL1        0.0033
     13 C           6.2077   -0.2906   34.1879 C.ar    1  UNL1        0.0238
     14 C           4.8398   -0.4371   34.7858 C.ar    1  UNL1        0.1345
     15 N           3.9419   -1.5528   34.3397 N.ar    1  UNL1       -0.2393
     16 C           4.4118   -2.5219   33.2957 C.ar    1  UNL1        0.0990
     17 C           4.3699    0.5321   35.8297 C.2     1  UNL1        0.2636
     18 O           3.8674    1.8860   35.4242 O.2     1  UNL1       -0.2685
     19 N           4.4026    0.1474   37.2791 N.am    1  UNL1       -0.2996
     20 H           4.7324   -0.7412   37.5452 H       1  UNL1        0.1498
     21 C           3.9326    1.1166   38.3231 C.3     1  UNL1        0.0898
     22 C           2.4682    1.2470   38.6205 C.3     1  UNL1        0.0230
     23 C           7.3951   -2.3565   27.0250 C.2     1  UNL1        0.2015
     24 O           8.6773   -1.6175   26.7806 O.2     1  UNL1       -0.2864
     25 C           4.0608   -0.2168   26.7930 C.ar    1  UNL1        0.0920
     26 C           3.5095   -0.6923   25.4815 C.ar    1  UNL1        0.0204
     27 C           4.2534   -1.7225   24.6845 C.ar    1  UNL1        0.0312
     28 C           5.5486   -2.2773   25.1990 C.ar    1  UNL1        0.1454
     29 F           6.2925   -3.3076   24.4020 F       1  UNL1       -0.2040
     30 C           6.0999   -1.8018   26.5104 C.ar    1  UNL1        0.0951
     31 C           5.3559   -0.7715   27.3074 C.ar    1  UNL1        0.1598
     32 F           5.9073   -0.2960   28.6189 F       1  UNL1       -0.2026
     33 N           3.3168    0.8135   27.5899 N.pl3   1  UNL1       -0.2166
     34 H           3.8120    1.5137   28.0734 H       1  UNL1        0.1734
     35 S           1.8185    0.7768   27.6502 S.O2    1  UNL1        0.0540
     36 O           1.7551    2.0389   26.8420 O.2     1  UNL1       -0.1545
     37 O           1.8819   -0.4852   28.4585 O.2     1  UNL1       -0.1545
     38 C           0.3202    0.7401   27.7106 C.3     1  UNL1        0.1724
     39 C          -1.6650    0.0705   29.2471 C.3     1  UNL1        0.0019
     40 C          -0.3711   -0.2751   28.5717 C.3     1  UNL1        0.0273
@<TRIPOS>BOND
     1    39    40    1
     2    40    38    1
     3    38    35    1
     4    35    36    2
     5    35    37    2
     6    35    33    1
     7    33    25    1
     8    25    26   ar
     9    26    27   ar
    10    27    28   ar
    11    28    29    1
    12    28    30   ar
    13    30    23    1
    14    23    24    2
    15    23     1    1
    16     1     2   ar
    17     2     3   ar
    18     3     4   ar
    19     4     5   ar
    20     5     6   ar
    21     6     7   ar
    22     7    11    1
    23    11    12   ar
    24    12    13   ar
    25    13    14   ar
    26    14    17    1
    27    17    18    2
    28    17    19   am
    29    19    21    1
    30    21    22    1
    31    14    15   ar
    32    15    16   ar
    33     7     8   ar
    34     8     9   ar
    35    30    31   ar
    36    31    32    1
    37    31    25   ar
    38     9     1   ar
    39     9     4    1
    40    16    11   ar
    41    33    34    1
    42     5    10    1
    43    19    20    1
