@<TRIPOS>MOLECULE
*****
 31 35 0 0 0
SMALL
GASTEIGER

@<TRIPOS>ATOM
      1 O           0.8595    5.3910   18.7796 O.2     1  UNL1       -0.2749
      2 C           0.2363    4.0337   18.9181 C.2     1  UNL1        0.2252
      3 N           1.0977    2.8061   18.8858 N.am    1  UNL1       -0.2794
      4 C           2.5822    2.9359   18.7149 C.3     1  UNL1        0.0951
      5 C           3.4436    1.7083   18.6826 C.3     1  UNL1        0.0418
      6 C           2.8204    0.3509   18.8211 C.3     1  UNL1        0.0848
      7 C           1.3359    0.2212   18.9919 C.3     1  UNL1        0.0418
      8 C           0.4745    1.4487   19.0242 C.3     1  UNL1        0.0951
      9 N           3.6818   -0.8767   18.7887 N.am    1  UNL1       -0.2422
     10 C           4.3103   -1.4808   17.5680 C.2     1  UNL1        0.3310
     11 O           4.1879   -0.9634   16.1654 O.2     1  UNL1       -0.2501
     12 N           5.0829   -2.6932   17.9963 N.am    1  UNL1       -0.1647
     13 C           4.9318   -2.8384   19.4816 C.2     1  UNL1        0.0706
     14 C           5.4708   -3.8477   20.4514 C.3     1  UNL1        0.0705
     15 C           5.1439   -3.7345   21.9109 C.2     1  UNL1       -0.0199
     16 C           4.2779   -2.6118   22.4006 C.2     1  UNL1       -0.0029
     17 C           3.7389   -1.6025   21.4309 C.2     1  UNL1        0.0156
     18 C           4.0658   -1.7157   19.9713 C.2     1  UNL1        0.0668
     19 C          -1.2483    3.9039   19.0890 C.3     1  UNL1        0.0795
     20 C          -1.8223    3.5737   20.4349 C.3     1  UNL1        0.0264
     21 C          -3.3069    3.4440   20.6057 C.3     1  UNL1        0.0729
     22 N          -4.2174    3.6444   19.4307 N.3     1  UNL1       -0.2689
     23 C          -3.6434    3.9745   18.0847 C.3     1  UNL1        0.0729
     24 C          -2.1588    4.1043   17.9138 C.3     1  UNL1        0.0264
     25 C          -5.7020    3.5146   19.6015 C.3     1  UNL1        0.0992
     26 C          -6.4369    4.4522   20.5129 C.ar    1  UNL1       -0.0031
     27 C          -6.6106    4.1069   21.9623 C.ar    1  UNL1        0.0178
     28 C          -7.3455    5.0444   22.8738 C.ar    1  UNL1        0.0986
     29 N          -7.9068    6.3273   22.3360 N.ar    1  UNL1       -0.2423
     30 C          -7.7331    6.6726   20.8866 C.ar    1  UNL1        0.0986
     31 C          -6.9982    5.7350   19.9751 C.ar    1  UNL1        0.0178
@<TRIPOS>BOND
     1     1     2    2
     2     2    19    1
     3    19    20    1
     4    20    21    1
     5    21    22    1
     6    22    25    1
     7    25    26    1
     8    26    27   ar
     9    27    28   ar
    10    28    29   ar
    11    29    30   ar
    12    30    31   ar
    13    22    23    1
    14    23    24    1
    15     2     3   am
    16     3     4    1
    17     4     5    1
    18     5     6    1
    19     6     9    1
    20     9    10   am
    21    10    11    2
    22    10    12    1
    23    12    13    2
    24    13    14    1
    25    14    15    1
    26    15    16    2
    27    16    17    1
    28    17    18    2
    29     6     7    1
    30     7     8    1
    31    24    19    1
    32     8     3    1
    33    31    26   ar
    34    18     9    1
    35    18    13    1
@<TRIPOS>MOLECULE
*****
 31 35 0 0 0
SMALL
GASTEIGER

@<TRIPOS>ATOM
      1 O           0.8180    5.3914   18.7593 O.2     1  UNL1       -0.2749
      2 C           0.2001    4.0299   18.8799 C.2     1  UNL1        0.2252
      3 N           1.0687    2.8073   18.8541 N.am    1  UNL1       -0.2794
      4 C           2.5550    2.9461   18.7078 C.3     1  UNL1        0.0951
      5 C           3.4236    1.7234   18.6820 C.3     1  UNL1        0.0418
      6 C           2.8057    0.3618   18.8026 C.3     1  UNL1        0.0848
      7 C           1.3194    0.2230   18.9489 C.3     1  UNL1        0.0418
      8 C           0.4509    1.4457   18.9747 C.3     1  UNL1        0.0951
      9 N           3.6743   -0.8609   18.7768 N.am    1  UNL1       -0.2422
     10 C           4.3187   -1.4592   17.5616 C.2     1  UNL1        0.3310
     11 O           4.2076   -0.9399   16.1587 O.2     1  UNL1       -0.2501
     12 N           5.0936   -2.6680   17.9955 N.am    1  UNL1       -0.1647
     13 C           4.9282   -2.8167   19.4790 C.2     1  UNL1        0.0706
     14 C           5.4630   -3.8248   20.4524 C.3     1  UNL1        0.0705
     15 C           5.1206   -3.7161   21.9087 C.2     1  UNL1       -0.0199
     16 C           4.2434   -2.5992   22.3916 C.2     1  UNL1       -0.0029
     17 C           3.7086   -1.5911   21.4182 C.2     1  UNL1        0.0156
     18 C           4.0510   -1.6998   19.9618 C.2     1  UNL1        0.0668
     19 C          -1.2863    3.8911   19.0262 C.3     1  UNL1        0.0795
     20 C          -2.1812    4.1251   17.8454 C.3     1  UNL1        0.0264
     21 C          -3.6676    3.9862   17.9918 C.3     1  UNL1        0.0729
     22 N          -4.2590    3.6134   19.3189 N.3     1  UNL1       -0.2689
     23 C          -3.3640    3.3794   20.4997 C.3     1  UNL1        0.0729
     24 C          -1.8776    3.5182   20.3534 C.3     1  UNL1        0.0264
     25 C          -5.7454    3.4745   19.4652 C.3     1  UNL1        0.0992
     26 C          -6.5212    4.4960   20.2428 C.ar    1  UNL1       -0.0031
     27 C          -7.2051    5.6228   19.5269 C.ar    1  UNL1        0.0178
     28 C          -7.9809    6.6443   20.3045 C.ar    1  UNL1        0.0986
     29 N          -8.0728    6.5390   21.7979 N.ar    1  UNL1       -0.2423
     30 C          -7.3889    5.4122   22.5139 C.ar    1  UNL1        0.0986
     31 C          -6.6130    4.3907   21.7363 C.ar    1  UNL1        0.0178
@<TRIPOS>BOND
     1     1     2    2
     2     2    19    1
     3    19    20    1
     4    20    21    1
     5    21    22    1
     6    22    25    1
     7    25    26    1
     8    26    27   ar
     9    27    28   ar
    10    28    29   ar
    11    29    30   ar
    12    30    31   ar
    13    22    23    1
    14    23    24    1
    15     2     3   am
    16     3     4    1
    17     4     5    1
    18     5     6    1
    19     6     9    1
    20     9    10   am
    21    10    11    2
    22    10    12    1
    23    12    13    2
    24    13    14    1
    25    14    15    1
    26    15    16    2
    27    16    17    1
    28    17    18    2
    29     6     7    1
    30     7     8    1
    31    24    19    1
    32     8     3    1
    33    31    26   ar
    34    18     9    1
    35    18    13    1
@<TRIPOS>MOLECULE
*****
 31 35 0 0 0
SMALL
GASTEIGER

@<TRIPOS>ATOM
      1 O          -0.0282    4.9512   18.7225 O.2     1  UNL1       -0.2749
      2 C          -0.3035    3.6920   19.4897 C.2     1  UNL1        0.2252
      3 N           0.6332    2.5258   19.3779 N.am    1  UNL1       -0.2794
      4 C           1.8451    2.6188   18.4990 C.3     1  UNL1        0.0951
      5 C           2.7818    1.4525   18.3872 C.3     1  UNL1        0.0418
      6 C           2.5065    0.1932   19.1544 C.3     1  UNL1        0.0848
      7 C           1.2946    0.1003   20.0333 C.3     1  UNL1        0.0418
      8 C           0.3579    1.2666   20.1451 C.3     1  UNL1        0.0951
      9 N           3.4432   -0.9730   19.0426 N.am    1  UNL1       -0.2422
     10 C           4.0356   -1.5096   17.7733 C.2     1  UNL1        0.3310
     11 O           3.7952   -0.9742   16.3929 O.2     1  UNL1       -0.2501
     12 N           4.9104   -2.6756   18.1268 N.am    1  UNL1       -0.1647
     13 C           4.8588   -2.8597   19.6146 C.2     1  UNL1        0.0706
     14 C           5.5204   -3.8495   20.5270 C.3     1  UNL1        0.0705
     15 C           5.2751   -3.7870   22.0055 C.2     1  UNL1       -0.0199
     16 C           4.3683   -2.7347   22.5715 C.2     1  UNL1       -0.0029
     17 C           3.7068   -1.7449   21.6591 C.2     1  UNL1        0.0156
     18 C           3.9520   -1.8074   20.1806 C.2     1  UNL1        0.0668
     19 C          -1.5155    3.5990   20.3686 C.3     1  UNL1        0.0795
     20 C          -1.3743    3.7257   21.8566 C.3     1  UNL1        0.0264
     21 C          -2.5862    3.6327   22.7355 C.3     1  UNL1        0.0729
     22 N          -3.9393    3.4131   22.1265 N.3     1  UNL1       -0.2689
     23 C          -4.0805    3.2864   20.6384 C.3     1  UNL1        0.0729
     24 C          -2.8686    3.3794   19.7595 C.3     1  UNL1        0.0264
     25 C          -5.1513    3.3201   23.0054 C.3     1  UNL1        0.0992
     26 C          -5.2914    4.2313   24.1886 C.ar    1  UNL1       -0.0031
     27 C          -4.7734    3.8038   25.5299 C.ar    1  UNL1        0.0178
     28 C          -4.9135    4.7149   26.7132 C.ar    1  UNL1        0.0986
     29 N          -5.5716    6.0535   26.5552 N.ar    1  UNL1       -0.2423
     30 C          -6.0896    6.4810   25.2140 C.ar    1  UNL1        0.0986
     31 C          -5.9495    5.5699   24.0307 C.ar    1  UNL1        0.0178
@<TRIPOS>BOND
     1     1     2    2
     2     2    19    1
     3    19    20    1
     4    20    21    1
     5    21    22    1
     6    22    25    1
     7    25    26    1
     8    26    27   ar
     9    27    28   ar
    10    28    29   ar
    11    29    30   ar
    12    30    31   ar
    13    22    23    1
    14    23    24    1
    15     2     3   am
    16     3     4    1
    17     4     5    1
    18     5     6    1
    19     6     9    1
    20     9    10   am
    21    10    11    2
    22    10    12    1
    23    12    13    2
    24    13    14    1
    25    14    15    1
    26    15    16    2
    27    16    17    1
    28    17    18    2
    29     6     7    1
    30     7     8    1
    31    24    19    1
    32     8     3    1
    33    31    26   ar
    34    18     9    1
    35    18    13    1
@<TRIPOS>MOLECULE
*****
 31 35 0 0 0
SMALL
GASTEIGER

@<TRIPOS>ATOM
      1 O           1.8635    4.6821   17.5024 O.2     1  UNL1       -0.2749
      2 C           1.6437    3.5714   18.4862 C.2     1  UNL1        0.2252
      3 N           0.4179    3.5670   19.3507 N.am    1  UNL1       -0.2794
      4 C          -0.5880    4.6734   19.2314 C.3     1  UNL1        0.0951
      5 C          -1.8138    4.6690   20.0959 C.3     1  UNL1        0.0418
      6 C          -2.0337    3.5583   21.0798 C.3     1  UNL1        0.0848
      7 C          -1.0279    2.4520   21.1990 C.3     1  UNL1        0.0418
      8 C           0.1979    2.4563   20.3345 C.3     1  UNL1        0.0951
      9 N          -3.2595    3.5539   21.9443 N.am    1  UNL1       -0.2422
     10 C          -4.6737    3.4015   21.4681 C.2     1  UNL1        0.3310
     11 O          -5.1105    3.2267   20.0438 O.2     1  UNL1       -0.2501
     12 N          -5.5745    3.4546   22.6664 N.am    1  UNL1       -0.1647
     13 C          -4.7170    3.6398   23.8831 C.2     1  UNL1        0.0706
     14 C          -5.0542    3.7605   25.3397 C.3     1  UNL1        0.0705
     15 C          -3.9606    3.9426   26.3500 C.2     1  UNL1       -0.0199
     16 C          -2.5298    4.0040   25.9038 C.2     1  UNL1       -0.0029
     17 C          -2.1927    3.8833   24.4472 C.2     1  UNL1        0.0156
     18 C          -3.2863    3.7012   23.4369 C.2     1  UNL1        0.0668
     19 C           2.6495    2.4651   18.6055 C.3     1  UNL1        0.0795
     20 C           4.0329    2.7598   19.1048 C.3     1  UNL1        0.0264
     21 C           5.0387    1.6534   19.2241 C.3     1  UNL1        0.0729
     22 N           4.6612    0.2524   18.8441 N.3     1  UNL1       -0.2689
     23 C           3.2778   -0.0424   18.3447 C.3     1  UNL1        0.0729
     24 C           2.2719    1.0640   18.2254 C.3     1  UNL1        0.0264
     25 C           5.6671   -0.8540   18.9634 C.3     1  UNL1        0.0992
     26 C           5.2333   -2.2164   19.4167 C.ar    1  UNL1       -0.0031
     27 C           5.0849   -3.3267   18.4190 C.ar    1  UNL1        0.0178
     28 C           4.6511   -4.6892   18.8722 C.ar    1  UNL1        0.0986
     29 N           4.3657   -4.9414   20.3231 N.ar    1  UNL1       -0.2423
     30 C           4.5140   -3.8311   21.3207 C.ar    1  UNL1        0.0986
     31 C           4.9478   -2.4686   20.8675 C.ar    1  UNL1        0.0178
@<TRIPOS>BOND
     1     1     2    2
     2     2    19    1
     3    19    20    1
     4    20    21    1
     5    21    22    1
     6    22    25    1
     7    25    26    1
     8    26    27   ar
     9    27    28   ar
    10    28    29   ar
    11    29    30   ar
    12    30    31   ar
    13    22    23    1
    14    23    24    1
    15     2     3   am
    16     3     4    1
    17     4     5    1
    18     5     6    1
    19     6     9    1
    20     9    10   am
    21    10    11    2
    22    10    12    1
    23    12    13    2
    24    13    14    1
    25    14    15    1
    26    15    16    2
    27    16    17    1
    28    17    18    2
    29     6     7    1
    30     7     8    1
    31    24    19    1
    32     8     3    1
    33    31    26   ar
    34    18     9    1
    35    18    13    1
@<TRIPOS>MOLECULE
*****
 31 35 0 0 0
SMALL
GASTEIGER

@<TRIPOS>ATOM
      1 O           8.4845   -6.3928   22.7871 O.2     1  UNL1       -0.2749
      2 C           7.8883   -5.1725   23.4239 C.2     1  UNL1        0.2252
      3 N           7.2592   -4.1122   22.5695 N.am    1  UNL1       -0.2794
      4 C           7.2263   -4.2722   21.0784 C.3     1  UNL1        0.0951
      5 C           6.5972   -3.2119   20.2241 C.3     1  UNL1        0.0418
      6 C           6.0009   -1.9915   20.8608 C.3     1  UNL1        0.0848
      7 C           6.0339   -1.8316   22.3518 C.3     1  UNL1        0.0418
      8 C           6.6630   -2.8919   23.2062 C.3     1  UNL1        0.0951
      9 N           5.3718   -0.9312   20.0065 N.am    1  UNL1       -0.2422
     10 C           6.1016    0.0412   19.1279 C.2     1  UNL1        0.3310
     11 O           7.5887    0.1240   18.9494 O.2     1  UNL1       -0.2501
     12 N           5.0833    0.9162   18.4591 N.am    1  UNL1       -0.1647
     13 C           3.7241    0.4847   18.9244 C.2     1  UNL1        0.0706
     14 C           2.3472    0.9838   18.6008 C.3     1  UNL1        0.0705
     15 C           1.1485    0.3413   19.2335 C.2     1  UNL1       -0.0199
     16 C           1.3269   -0.8005   20.1898 C.2     1  UNL1       -0.0029
     17 C           2.7038   -1.2997   20.5134 C.2     1  UNL1        0.0156
     18 C           3.9025   -0.6571   19.8807 C.2     1  UNL1        0.0668
     19 C           7.9212   -5.0126   24.9150 C.3     1  UNL1        0.0795
     20 C           9.0058   -4.2002   25.5583 C.3     1  UNL1        0.0264
     21 C           9.0387   -4.0403   27.0494 C.3     1  UNL1        0.0729
     22 N           7.9871   -4.6926   27.8971 N.3     1  UNL1       -0.2689
     23 C           6.9025   -5.5050   27.2537 C.3     1  UNL1        0.0729
     24 C           6.8696   -5.6650   25.7626 C.3     1  UNL1        0.0264
     25 C           8.0200   -4.5326   29.3882 C.3     1  UNL1        0.0992
     26 C           7.0908   -3.5652   30.0594 C.ar    1  UNL1       -0.0031
     27 C           6.7181   -3.7596   31.4994 C.ar    1  UNL1        0.0178
     28 C           5.7889   -2.7922   32.1707 C.ar    1  UNL1        0.0986
     29 N           5.2324   -1.6305   31.4021 N.ar    1  UNL1       -0.2423
     30 C           5.6051   -1.4361   29.9622 C.ar    1  UNL1        0.0986
     31 C           6.5343   -2.4035   29.2909 C.ar    1  UNL1        0.0178
@<TRIPOS>BOND
     1     1     2    2
     2     2    19    1
     3    19    20    1
     4    20    21    1
     5    21    22    1
     6    22    25    1
     7    25    26    1
     8    26    27   ar
     9    27    28   ar
    10    28    29   ar
    11    29    30   ar
    12    30    31   ar
    13    22    23    1
    14    23    24    1
    15     2     3   am
    16     3     4    1
    17     4     5    1
    18     5     6    1
    19     6     9    1
    20     9    10   am
    21    10    11    2
    22    10    12    1
    23    12    13    2
    24    13    14    1
    25    14    15    1
    26    15    16    2
    27    16    17    1
    28    17    18    2
    29     6     7    1
    30     7     8    1
    31    24    19    1
    32     8     3    1
    33    31    26   ar
    34    18     9    1
    35    18    13    1
@<TRIPOS>MOLECULE
*****
 31 35 0 0 0
SMALL
GASTEIGER

@<TRIPOS>ATOM
      1 O          -4.7232    5.2897   17.2509 O.2     1  UNL1       -0.2749
      2 C          -4.1049    4.8688   18.5510 C.2     1  UNL1        0.2252
      3 N          -2.7110    4.3151   18.5741 N.am    1  UNL1       -0.2794
      4 C          -1.9355    4.1824   17.2970 C.3     1  UNL1        0.0951
      5 C          -0.5416    3.6288   17.3200 C.3     1  UNL1        0.0418
      6 C           0.0768    3.2078   18.6202 C.3     1  UNL1        0.0848
      7 C          -0.6987    3.3406   19.8972 C.3     1  UNL1        0.0418
      8 C          -2.0926    3.8942   19.8742 C.3     1  UNL1        0.0951
      9 N           1.4708    2.6542   18.6433 N.am    1  UNL1       -0.2422
     10 C           2.7102    3.3673   18.1902 C.2     1  UNL1        0.3310
     11 O           2.7735    4.7591   17.6346 O.2     1  UNL1       -0.2501
     12 N           3.8754    2.4440   18.3904 N.am    1  UNL1       -0.1647
     13 C           3.3560    1.1604   18.9671 C.2     1  UNL1        0.0706
     14 C           4.0443   -0.1099   19.3702 C.3     1  UNL1        0.0705
     15 C           3.2465   -1.2503   19.9295 C.2     1  UNL1       -0.0199
     16 C           1.7603   -1.1204   20.0858 C.2     1  UNL1       -0.0029
     17 C           1.0720    0.1499   19.6828 C.2     1  UNL1        0.0156
     18 C           1.8698    1.2903   19.1234 C.2     1  UNL1        0.0668
     19 C          -4.8804    5.0015   19.8281 C.3     1  UNL1        0.0795
     20 C          -5.6723    3.8389   20.3489 C.3     1  UNL1        0.0264
     21 C          -6.4478    3.9716   21.6260 C.3     1  UNL1        0.0729
     22 N          -6.4314    5.2668   22.3823 N.3     1  UNL1       -0.2689
     23 C          -5.6394    6.4295   21.8615 C.3     1  UNL1        0.0729
     24 C          -4.8639    6.2968   20.5844 C.3     1  UNL1        0.0264
     25 C          -7.2069    5.3995   23.6594 C.3     1  UNL1        0.0992
     26 C          -6.4969    5.3289   24.9788 C.ar    1  UNL1       -0.0031
     27 C          -6.9426    6.1975   26.1177 C.ar    1  UNL1        0.0178
     28 C          -6.2327    6.1269   27.4371 C.ar    1  UNL1        0.0986
     29 N          -5.0771    5.1877   27.6178 N.ar    1  UNL1       -0.2423
     30 C          -4.6315    4.3191   26.4789 C.ar    1  UNL1        0.0986
     31 C          -5.3414    4.3897   25.1594 C.ar    1  UNL1        0.0178
@<TRIPOS>BOND
     1     1     2    2
     2     2    19    1
     3    19    20    1
     4    20    21    1
     5    21    22    1
     6    22    25    1
     7    25    26    1
     8    26    27   ar
     9    27    28   ar
    10    28    29   ar
    11    29    30   ar
    12    30    31   ar
    13    22    23    1
    14    23    24    1
    15     2     3   am
    16     3     4    1
    17     4     5    1
    18     5     6    1
    19     6     9    1
    20     9    10   am
    21    10    11    2
    22    10    12    1
    23    12    13    2
    24    13    14    1
    25    14    15    1
    26    15    16    2
    27    16    17    1
    28    17    18    2
    29     6     7    1
    30     7     8    1
    31    24    19    1
    32     8     3    1
    33    31    26   ar
    34    18     9    1
    35    18    13    1
@<TRIPOS>MOLECULE
*****
 31 35 0 0 0
SMALL
GASTEIGER

@<TRIPOS>ATOM
      1 O           3.4714    0.6233   27.7451 O.2     1  UNL1       -0.2749
      2 C           2.5994    0.8140   26.5396 C.2     1  UNL1        0.2252
      3 N           2.9578    0.1514   25.2425 N.am    1  UNL1       -0.2794
      4 C           4.1881   -0.7018   25.1509 C.3     1  UNL1        0.0951
      5 C           4.5465   -1.3644   23.8538 C.3     1  UNL1        0.0418
      6 C           3.6745   -1.1738   22.6481 C.3     1  UNL1        0.0848
      7 C           2.4443   -0.3206   22.7398 C.3     1  UNL1        0.0418
      8 C           2.0859    0.3420   24.0369 C.3     1  UNL1        0.0951
      9 N           4.0329   -1.8364   21.3510 N.am    1  UNL1       -0.2422
     10 C           4.4569   -3.2648   21.1782 C.2     1  UNL1        0.3310
     11 O           4.5970   -4.2814   22.2722 O.2     1  UNL1       -0.2501
     12 N           4.7162   -3.4981   19.7194 N.am    1  UNL1       -0.1647
     13 C           4.4525   -2.2138   18.9905 C.2     1  UNL1        0.0706
     14 C           4.5424   -1.8469   17.5389 C.3     1  UNL1        0.0705
     15 C           4.2099   -0.4530   17.0957 C.2     1  UNL1       -0.0199
     16 C           3.7876    0.5739   18.1041 C.2     1  UNL1       -0.0029
     17 C           3.6977    0.2070   19.5557 C.2     1  UNL1        0.0156
     18 C           4.0302   -1.1869   19.9989 C.2     1  UNL1        0.0668
     19 C           1.3692    1.6672   26.6312 C.3     1  UNL1        0.0795
     20 C           1.4236    3.1084   26.2191 C.3     1  UNL1        0.0264
     21 C           0.1933    3.9616   26.3106 C.3     1  UNL1        0.0729
     22 N          -1.0914    3.3736   26.8143 N.3     1  UNL1       -0.2689
     23 C          -1.1459    1.9322   27.2264 C.3     1  UNL1        0.0729
     24 C           0.0844    1.0790   27.1348 C.3     1  UNL1        0.0264
     25 C          -2.3217    4.2268   26.9058 C.3     1  UNL1        0.0992
     26 C          -3.3919    4.1144   25.8608 C.ar    1  UNL1       -0.0031
     27 C          -3.0564    3.5859   24.4977 C.ar    1  UNL1        0.0178
     28 C          -4.1265    3.4735   23.4526 C.ar    1  UNL1        0.0986
     29 N          -5.5321    3.8896   23.7707 N.ar    1  UNL1       -0.2423
     30 C          -5.8676    4.4181   25.1338 C.ar    1  UNL1        0.0986
     31 C          -4.7975    4.5305   26.1789 C.ar    1  UNL1        0.0178
@<TRIPOS>BOND
     1     1     2    2
     2     2    19    1
     3    19    20    1
     4    20    21    1
     5    21    22    1
     6    22    25    1
     7    25    26    1
     8    26    27   ar
     9    27    28   ar
    10    28    29   ar
    11    29    30   ar
    12    30    31   ar
    13    22    23    1
    14    23    24    1
    15     2     3   am
    16     3     4    1
    17     4     5    1
    18     5     6    1
    19     6     9    1
    20     9    10   am
    21    10    11    2
    22    10    12    1
    23    12    13    2
    24    13    14    1
    25    14    15    1
    26    15    16    2
    27    16    17    1
    28    17    18    2
    29     6     7    1
    30     7     8    1
    31    24    19    1
    32     8     3    1
    33    31    26   ar
    34    18     9    1
    35    18    13    1
@<TRIPOS>MOLECULE
*****
 31 35 0 0 0
SMALL
GASTEIGER

@<TRIPOS>ATOM
      1 O           9.5360   -5.5889   25.2325 O.2     1  UNL1       -0.2749
      2 C           8.2833   -4.8060   25.4927 C.2     1  UNL1        0.2252
      3 N           7.4270   -4.3582   24.3454 N.am    1  UNL1       -0.2794
      4 C           7.8234   -4.6934   22.9381 C.3     1  UNL1        0.0951
      5 C           6.9670   -4.2457   21.7908 C.3     1  UNL1        0.0418
      6 C           5.7142   -3.4627   22.0509 C.3     1  UNL1        0.0848
      7 C           5.3179   -3.1275   23.4581 C.3     1  UNL1        0.0418
      8 C           6.1743   -3.5753   24.6054 C.3     1  UNL1        0.0951
      9 N           4.8579   -3.0149   20.9036 N.am    1  UNL1       -0.2422
     10 C           4.0231   -3.9016   20.0279 C.2     1  UNL1        0.3310
     11 O           3.8980   -5.3917   20.1457 O.2     1  UNL1       -0.2501
     12 N           3.3353   -3.0365   19.0137 N.am    1  UNL1       -0.1647
     13 C           3.7451   -1.6152   19.2626 C.2     1  UNL1        0.0706
     14 C           3.3828   -0.3314   18.5766 C.3     1  UNL1        0.0705
     15 C           3.9617    0.9657   19.0586 C.2     1  UNL1       -0.0199
     16 C           4.9027    0.9791   20.2267 C.2     1  UNL1       -0.0029
     17 C           5.2649   -0.3047   20.9127 C.2     1  UNL1        0.0156
     18 C           4.6861   -1.6018   20.4307 C.2     1  UNL1        0.0668
     19 C           7.8869   -4.4708   26.9000 C.3     1  UNL1        0.0795
     20 C           8.4216   -3.2317   27.5548 C.3     1  UNL1        0.0264
     21 C           8.0252   -2.8965   28.9621 C.3     1  UNL1        0.0729
     22 N           7.0941   -3.8004   29.7145 N.3     1  UNL1       -0.2689
     23 C           6.5594   -5.0395   29.0596 C.3     1  UNL1        0.0729
     24 C           6.9558   -5.3747   27.6524 C.3     1  UNL1        0.0264
     25 C           6.6978   -3.4652   31.1218 C.3     1  UNL1        0.0992
     26 C           5.6513   -2.4215   31.3779 C.ar    1  UNL1       -0.0031
     27 C           5.0276   -2.3025   32.7370 C.ar    1  UNL1        0.0178
     28 C           3.9812   -1.2589   32.9932 C.ar    1  UNL1        0.0986
     29 N           3.5583   -0.3342   31.8903 N.ar    1  UNL1       -0.2423
     30 C           4.1819   -0.4532   30.5313 C.ar    1  UNL1        0.0986
     31 C           5.2284   -1.4969   30.2751 C.ar    1  UNL1        0.0178
@<TRIPOS>BOND
     1     1     2    2
     2     2    19    1
     3    19    20    1
     4    20    21    1
     5    21    22    1
     6    22    25    1
     7    25    26    1
     8    26    27   ar
     9    27    28   ar
    10    28    29   ar
    11    29    30   ar
    12    30    31   ar
    13    22    23    1
    14    23    24    1
    15     2     3   am
    16     3     4    1
    17     4     5    1
    18     5     6    1
    19     6     9    1
    20     9    10   am
    21    10    11    2
    22    10    12    1
    23    12    13    2
    24    13    14    1
    25    14    15    1
    26    15    16    2
    27    16    17    1
    28    17    18    2
    29     6     7    1
    30     7     8    1
    31    24    19    1
    32     8     3    1
    33    31    26   ar
    34    18     9    1
    35    18    13    1
@<TRIPOS>MOLECULE
*****
 31 35 0 0 0
SMALL
GASTEIGER

@<TRIPOS>ATOM
      1 O           3.1671    3.0058   26.2169 O.2     1  UNL1       -0.2749
      2 C           2.0693    2.6102   25.2745 C.2     1  UNL1        0.2252
      3 N           2.3960    1.8717   24.0104 N.am    1  UNL1       -0.2794
      4 C           3.8204    1.5289   23.6888 C.3     1  UNL1        0.0951
      5 C           4.1471    0.7904   22.4247 C.3     1  UNL1        0.0418
      6 C           3.0492    0.3947   21.4821 C.3     1  UNL1        0.0848
      7 C           1.6249    0.7376   21.8038 C.3     1  UNL1        0.0418
      8 C           1.2982    1.4761   23.0679 C.3     1  UNL1        0.0951
      9 N           3.3759   -0.3437   20.2180 N.am    1  UNL1       -0.2422
     10 C           3.2469    0.1947   18.8239 C.2     1  UNL1        0.3310
     11 O           2.7686    1.5661   18.4492 O.2     1  UNL1       -0.2501
     12 N           3.6802   -0.8791   17.8704 N.am    1  UNL1       -0.1647
     13 C           4.0769   -2.0812   18.6752 C.2     1  UNL1        0.0706
     14 C           4.5851   -3.4343   18.2743 C.3     1  UNL1        0.0705
     15 C           4.9052   -4.4565   19.3243 C.2     1  UNL1       -0.0199
     16 C           4.7172   -4.1256   20.7752 C.2     1  UNL1       -0.0029
     17 C           4.2090   -2.7725   21.1761 C.2     1  UNL1        0.0156
     18 C           3.8888   -1.7503   20.1261 C.2     1  UNL1        0.0668
     19 C           0.6449    2.9530   25.5961 C.3     1  UNL1        0.0795
     20 C           0.0535    4.2402   25.1027 C.3     1  UNL1        0.0264
     21 C          -1.3709    4.5830   25.4243 C.3     1  UNL1        0.0729
     22 N          -2.2040    3.6387   26.2393 N.3     1  UNL1       -0.2689
     23 C          -1.6126    2.3514   26.7327 C.3     1  UNL1        0.0729
     24 C          -0.1882    2.0086   26.4111 C.3     1  UNL1        0.0264
     25 C          -3.6284    3.9815   26.5609 C.3     1  UNL1        0.0992
     26 C          -4.6429    4.0807   25.4604 C.ar    1  UNL1       -0.0031
     27 C          -5.8472    4.9591   25.6275 C.ar    1  UNL1        0.0178
     28 C          -6.8617    5.0583   24.5271 C.ar    1  UNL1        0.0986
     29 N          -6.6719    4.2790   23.2596 N.ar    1  UNL1       -0.2423
     30 C          -5.4675    3.4005   23.0925 C.ar    1  UNL1        0.0986
     31 C          -4.4530    3.3013   24.1929 C.ar    1  UNL1        0.0178
@<TRIPOS>BOND
     1     1     2    2
     2     2    19    1
     3    19    20    1
     4    20    21    1
     5    21    22    1
     6    22    25    1
     7    25    26    1
     8    26    27   ar
     9    27    28   ar
    10    28    29   ar
    11    29    30   ar
    12    30    31   ar
    13    22    23    1
    14    23    24    1
    15     2     3   am
    16     3     4    1
    17     4     5    1
    18     5     6    1
    19     6     9    1
    20     9    10   am
    21    10    11    2
    22    10    12    1
    23    12    13    2
    24    13    14    1
    25    14    15    1
    26    15    16    2
    27    16    17    1
    28    17    18    2
    29     6     7    1
    30     7     8    1
    31    24    19    1
    32     8     3    1
    33    31    26   ar
    34    18     9    1
    35    18    13    1
