@<TRIPOS>MOLECULE
*****
 36 40 0 0 0
SMALL
GASTEIGER

@<TRIPOS>ATOM
      1 C           7.8289    1.4774   16.8854 C.3     1  UNL1        0.0896
      2 N           6.9613    1.3536   18.1028 N.3     1  UNL1       -0.2710
      3 C           7.4890    0.6794   19.3344 C.3     1  UNL1        0.0818
      4 C           6.9031    1.0039   20.6766 C.3     1  UNL1        0.1026
      5 C           6.0153    0.0114   21.3672 C.2     1  UNL1        0.2271
      6 O           6.3765   -1.4444   21.3685 O.2     1  UNL1       -0.2748
      7 N           4.7662    0.4749   22.0564 N.am    1  UNL1       -0.2760
      8 C           4.4050    1.9308   22.0551 C.3     1  UNL1        0.1148
      9 C           3.1560    2.3942   22.7443 C.3     1  UNL1        0.1123
     10 N           2.2681    1.4018   23.4349 N.pl3   1  UNL1       -0.3040
     11 C           2.6293   -0.0540   23.4362 C.3     1  UNL1        0.1123
     12 C           3.8784   -0.5175   22.7470 C.3     1  UNL1        0.1148
     13 C           1.0191    1.8652   24.1242 C.ar    1  UNL1        0.0503
     14 C           0.1652    2.9263   23.4955 C.ar    1  UNL1        0.0170
     15 C          -1.0839    3.3898   24.1848 C.ar    1  UNL1        0.0332
     16 C          -1.4791    2.7922   25.5027 C.ar    1  UNL1        0.1675
     17 F          -2.7281    3.2556   26.1919 F       1  UNL1       -0.2018
     18 C          -0.6252    1.7312   26.1313 C.ar    1  UNL1        0.1686
     19 F          -1.0204    1.1336   27.4491 F       1  UNL1       -0.2018
     20 C           0.6239    1.2677   25.4420 C.ar    1  UNL1        0.0465
     21 C           5.5660    1.9040   18.0886 C.3     1  UNL1        0.0728
     22 C           4.4503    1.1042   17.4841 C.3     1  UNL1        0.0263
     23 C           3.5937    0.2342   18.3554 C.3     1  UNL1        0.0519
     24 C           3.9745   -1.1974   18.5916 C.ar    1  UNL1        0.0162
     25 C           5.2120   -1.7588   17.9566 C.ar    1  UNL1       -0.0009
     26 C           5.5928   -3.1903   18.1928 C.ar    1  UNL1       -0.0001
     27 C           4.7361   -4.0603   19.0641 C.ar    1  UNL1        0.0031
     28 C           3.4986   -3.4988   19.6992 C.ar    1  UNL1        0.0372
     29 C           3.1178   -2.0674   19.4629 C.ar    1  UNL1        0.1415
     30 O           1.8803   -1.5058   20.0980 O.3     1  UNL1       -0.4541
     31 C           1.4995   -0.0744   19.8618 C.ar    1  UNL1        0.1415
     32 C           0.2619    0.4871   20.4968 C.ar    1  UNL1        0.0372
     33 C          -0.1189    1.9186   20.2606 C.ar    1  UNL1        0.0031
     34 C           0.7378    2.7886   19.3893 C.ar    1  UNL1       -0.0001
     35 C           1.9753    2.2272   18.7543 C.ar    1  UNL1       -0.0009
     36 C           2.3562    0.7956   18.9905 C.ar    1  UNL1        0.0162
@<TRIPOS>BOND
     1     1     2    1
     2     2     3    1
     3     3     4    1
     4     4     5    1
     5     5     6    2
     6     5     7   am
     7     7     8    1
     8     8     9    1
     9     9    10    1
    10    10    13    1
    11    13    14   ar
    12    14    15   ar
    13    15    16   ar
    14    16    17    1
    15    16    18   ar
    16    18    19    1
    17    18    20   ar
    18    10    11    1
    19    11    12    1
    20     2    21    1
    21    21    22    1
    22    22    23    1
    23    23    24    1
    24    24    25   ar
    25    25    26   ar
    26    26    27   ar
    27    27    28   ar
    28    28    29   ar
    29    29    30    1
    30    30    31    1
    31    31    32   ar
    32    32    33   ar
    33    33    34   ar
    34    34    35   ar
    35    35    36   ar
    36    12     7    1
    37    36    23    1
    38    20    13   ar
    39    29    24   ar
    40    36    31   ar
@<TRIPOS>MOLECULE
*****
 36 40 0 0 0
SMALL
GASTEIGER

@<TRIPOS>ATOM
      1 C          -8.9172  -17.8559   26.9473 C.3     1  UNL1        0.0896
      2 N          -9.6577  -17.7989   25.6440 N.3     1  UNL1       -0.2710
      3 C          -9.6488  -16.5386   24.8307 C.3     1  UNL1        0.0818
      4 C          -8.9908  -15.3030   25.3696 C.3     1  UNL1        0.1026
      5 C          -7.5785  -15.3634   25.8714 C.2     1  UNL1        0.2271
      6 O          -7.2550  -14.8951   27.2592 O.2     1  UNL1       -0.2748
      7 N          -6.4897  -15.8922   24.9855 N.am    1  UNL1       -0.2760
      8 C          -6.8132  -16.3605   23.5976 C.3     1  UNL1        0.1148
      9 C          -5.7244  -16.8893   22.7116 C.3     1  UNL1        0.1123
     10 N          -4.3121  -16.9498   23.2135 N.pl3   1  UNL1       -0.3040
     11 C          -3.9887  -16.4814   24.6013 C.3     1  UNL1        0.1123
     12 C          -5.0774  -15.9527   25.4873 C.3     1  UNL1        0.1148
     13 C          -3.2233  -17.4786   22.3276 C.ar    1  UNL1        0.0503
     14 C          -3.1025  -18.9543   22.0870 C.ar    1  UNL1        0.0170
     15 C          -2.0138  -19.4830   21.2010 C.ar    1  UNL1        0.0332
     16 C          -1.0458  -18.5361   20.5556 C.ar    1  UNL1        0.1675
     17 F           0.0430  -19.0649   19.6696 F       1  UNL1       -0.2018
     18 C          -1.1666  -17.0605   20.7962 C.ar    1  UNL1        0.1686
     19 F          -0.1987  -16.1137   20.1508 F       1  UNL1       -0.2018
     20 C          -2.2554  -16.5317   21.6822 C.ar    1  UNL1        0.0465
     21 C         -10.4072  -19.0024   25.1540 C.3     1  UNL1        0.0728
     22 C          -9.8149  -19.8702   24.0836 C.3     1  UNL1        0.0263
     23 C          -9.6522  -19.3376   22.6908 C.3     1  UNL1        0.0519
     24 C          -8.3977  -19.6243   21.9199 C.ar    1  UNL1        0.0162
     25 C          -7.3060  -20.4437   22.5418 C.ar    1  UNL1       -0.0009
     26 C          -6.0516  -20.7304   21.7710 C.ar    1  UNL1       -0.0001
     27 C          -5.8889  -20.1977   20.3782 C.ar    1  UNL1        0.0031
     28 C          -6.9806  -19.3784   19.7563 C.ar    1  UNL1        0.0372
     29 C          -8.2350  -19.0917   20.5272 C.ar    1  UNL1        0.1415
     30 O          -9.3268  -18.2723   19.9052 O.3     1  UNL1       -0.4541
     31 C         -10.5812  -17.9856   20.6761 C.ar    1  UNL1        0.1415
     32 C         -11.6730  -17.1662   20.0542 C.ar    1  UNL1        0.0372
     33 C         -12.9274  -16.8795   20.8251 C.ar    1  UNL1        0.0031
     34 C         -13.0900  -17.4122   22.2178 C.ar    1  UNL1       -0.0001
     35 C         -11.9983  -18.2315   22.8398 C.ar    1  UNL1       -0.0009
     36 C         -10.7439  -18.5182   22.0689 C.ar    1  UNL1        0.0162
@<TRIPOS>BOND
     1     1     2    1
     2     2     3    1
     3     3     4    1
     4     4     5    1
     5     5     6    2
     6     5     7   am
     7     7     8    1
     8     8     9    1
     9     9    10    1
    10    10    13    1
    11    13    14   ar
    12    14    15   ar
    13    15    16   ar
    14    16    17    1
    15    16    18   ar
    16    18    19    1
    17    18    20   ar
    18    10    11    1
    19    11    12    1
    20     2    21    1
    21    21    22    1
    22    22    23    1
    23    23    24    1
    24    24    25   ar
    25    25    26   ar
    26    26    27   ar
    27    27    28   ar
    28    28    29   ar
    29    29    30    1
    30    30    31    1
    31    31    32   ar
    32    32    33   ar
    33    33    34   ar
    34    34    35   ar
    35    35    36   ar
    36    12     7    1
    37    36    23    1
    38    20    13   ar
    39    29    24   ar
    40    36    31   ar
@<TRIPOS>MOLECULE
*****
 36 40 0 0 0
SMALL
GASTEIGER

@<TRIPOS>ATOM
      1 C          -8.8453  -17.7937   26.9217 C.3     1  UNL1        0.0896
      2 N          -9.6155  -17.7440   25.6354 N.3     1  UNL1       -0.2710
      3 C          -9.6282  -16.4871   24.8170 C.3     1  UNL1        0.0818
      4 C          -8.9819  -15.2411   25.3459 C.3     1  UNL1        0.1026
      5 C          -7.5678  -15.2833   25.8444 C.2     1  UNL1        0.2271
      6 O          -7.2423  -14.7820   27.2201 O.2     1  UNL1       -0.2748
      7 N          -6.4792  -15.8270   24.9672 N.am    1  UNL1       -0.2760
      8 C          -6.8048  -16.3284   23.5915 C.3     1  UNL1        0.1148
      9 C          -5.7163  -16.8721   22.7142 C.3     1  UNL1        0.1123
     10 N          -4.3021  -16.9143   23.2128 N.pl3   1  UNL1       -0.3040
     11 C          -3.9766  -16.4129   24.5885 C.3     1  UNL1        0.1123
     12 C          -5.0652  -15.8693   25.4657 C.3     1  UNL1        0.1148
     13 C          -3.2136  -17.4580   22.3356 C.ar    1  UNL1        0.0503
     14 C          -3.0779  -18.9389   22.1393 C.ar    1  UNL1        0.0170
     15 C          -1.9894  -19.4826   21.2621 C.ar    1  UNL1        0.0332
     16 C          -1.0365  -18.5453   20.5812 C.ar    1  UNL1        0.1675
     17 F           0.0521  -19.0890   19.7040 F       1  UNL1       -0.2018
     18 C          -1.1722  -17.0644   20.7775 C.ar    1  UNL1        0.1686
     19 F          -0.2193  -16.1272   20.0966 F       1  UNL1       -0.2018
     20 C          -2.2607  -16.5208   21.6547 C.ar    1  UNL1        0.0465
     21 C         -10.3730  -18.9513   25.1677 C.3     1  UNL1        0.0728
     22 C          -9.7912  -19.8368   24.1059 C.3     1  UNL1        0.0263
     23 C          -9.6273  -19.3217   22.7067 C.3     1  UNL1        0.0519
     24 C         -10.7138  -18.5008   22.0776 C.ar    1  UNL1        0.0162
     25 C         -11.9641  -18.1950   22.8477 C.ar    1  UNL1       -0.0009
     26 C         -13.0505  -17.3742   22.2185 C.ar    1  UNL1       -0.0001
     27 C         -12.8866  -16.8591   20.8193 C.ar    1  UNL1        0.0031
     28 C         -11.6363  -17.1649   20.0492 C.ar    1  UNL1        0.0372
     29 C         -10.5499  -17.9858   20.6783 C.ar    1  UNL1        0.1415
     30 O          -9.2994  -18.2916   19.9082 O.3     1  UNL1       -0.4541
     31 C          -8.2130  -19.1125   20.5374 C.ar    1  UNL1        0.1415
     32 C          -6.9626  -19.4183   19.7673 C.ar    1  UNL1        0.0372
     33 C          -5.8762  -20.2392   20.3964 C.ar    1  UNL1        0.0031
     34 C          -6.0401  -20.7542   21.7957 C.ar    1  UNL1       -0.0001
     35 C          -7.2905  -20.4484   22.5658 C.ar    1  UNL1       -0.0009
     36 C          -8.3770  -19.6275   21.9366 C.ar    1  UNL1        0.0162
@<TRIPOS>BOND
     1     1     2    1
     2     2     3    1
     3     3     4    1
     4     4     5    1
     5     5     6    2
     6     5     7   am
     7     7     8    1
     8     8     9    1
     9     9    10    1
    10    10    13    1
    11    13    14   ar
    12    14    15   ar
    13    15    16   ar
    14    16    17    1
    15    16    18   ar
    16    18    19    1
    17    18    20   ar
    18    10    11    1
    19    11    12    1
    20     2    21    1
    21    21    22    1
    22    22    23    1
    23    23    24    1
    24    24    25   ar
    25    25    26   ar
    26    26    27   ar
    27    27    28   ar
    28    28    29   ar
    29    29    30    1
    30    30    31    1
    31    31    32   ar
    32    32    33   ar
    33    33    34   ar
    34    34    35   ar
    35    35    36   ar
    36    12     7    1
    37    36    23    1
    38    20    13   ar
    39    29    24   ar
    40    36    31   ar
@<TRIPOS>MOLECULE
*****
 36 40 0 0 0
SMALL
GASTEIGER

@<TRIPOS>ATOM
      1 C           5.3933    2.4564   20.0696 C.3     1  UNL1        0.0896
      2 N           5.2589    1.4113   19.0020 N.3     1  UNL1       -0.2710
      3 C           6.4059    0.4917   18.7041 C.3     1  UNL1        0.0818
      4 C           7.1287   -0.1935   19.8257 C.3     1  UNL1        0.1026
      5 C           7.6587   -1.5842   19.6376 C.2     1  UNL1        0.2271
      6 O           8.1745   -2.0152   18.2966 O.2     1  UNL1       -0.2748
      7 N           7.6728   -2.5438   20.7904 N.am    1  UNL1       -0.2760
      8 C           7.1569   -2.1127   22.1314 C.3     1  UNL1        0.1148
      9 C           7.1710   -3.0723   23.2842 C.3     1  UNL1        0.1123
     10 N           7.7009   -4.4629   23.0960 N.pl3   1  UNL1       -0.3040
     11 C           8.2168   -4.8939   21.7551 C.3     1  UNL1        0.1123
     12 C           8.2027   -3.9344   20.6023 C.3     1  UNL1        0.1148
     13 C           7.7150   -5.4225   24.2489 C.ar    1  UNL1        0.0503
     14 C           8.4746   -6.7116   24.1424 C.ar    1  UNL1        0.0170
     15 C           8.4887   -7.6712   25.2952 C.ar    1  UNL1        0.0332
     16 C           7.7432   -7.3417   26.5545 C.ar    1  UNL1        0.1675
     17 F           7.7572   -8.3012   27.7074 F       1  UNL1       -0.2018
     18 C           6.9836   -6.0526   26.6609 C.ar    1  UNL1        0.1686
     19 F           6.2382   -5.7231   27.9201 F       1  UNL1       -0.2018
     20 C           6.9696   -5.0930   25.5081 C.ar    1  UNL1        0.0465
     21 C           3.9776    1.2857   18.2324 C.3     1  UNL1        0.0728
     22 C           2.8716    0.4168   18.7538 C.3     1  UNL1        0.0263
     23 C           3.0890   -0.4186   19.9805 C.3     1  UNL1        0.0519
     24 C           2.7261    0.1237   21.3312 C.ar    1  UNL1        0.0162
     25 C           2.1458    1.5013   21.4552 C.ar    1  UNL1       -0.0009
     26 C           1.7829    2.0435   22.8058 C.ar    1  UNL1       -0.0001
     27 C           2.0004    1.2081   24.0325 C.ar    1  UNL1        0.0031
     28 C           2.5807   -0.1695   23.9086 C.ar    1  UNL1        0.0372
     29 C           2.9435   -0.7117   22.5580 C.ar    1  UNL1        0.1415
     30 O           3.5239   -2.0894   22.4340 O.3     1  UNL1       -0.4541
     31 C           3.8868   -2.6316   21.0834 C.ar    1  UNL1        0.1415
     32 C           4.4671   -4.0093   20.9594 C.ar    1  UNL1        0.0372
     33 C           4.8300   -4.5515   19.6087 C.ar    1  UNL1        0.0031
     34 C           4.6126   -3.7161   18.3820 C.ar    1  UNL1       -0.0001
     35 C           4.0323   -2.3385   18.5059 C.ar    1  UNL1       -0.0009
     36 C           3.6694   -1.7962   19.8566 C.ar    1  UNL1        0.0162
@<TRIPOS>BOND
     1     1     2    1
     2     2     3    1
     3     3     4    1
     4     4     5    1
     5     5     6    2
     6     5     7   am
     7     7     8    1
     8     8     9    1
     9     9    10    1
    10    10    13    1
    11    13    14   ar
    12    14    15   ar
    13    15    16   ar
    14    16    17    1
    15    16    18   ar
    16    18    19    1
    17    18    20   ar
    18    10    11    1
    19    11    12    1
    20     2    21    1
    21    21    22    1
    22    22    23    1
    23    23    24    1
    24    24    25   ar
    25    25    26   ar
    26    26    27   ar
    27    27    28   ar
    28    28    29   ar
    29    29    30    1
    30    30    31    1
    31    31    32   ar
    32    32    33   ar
    33    33    34   ar
    34    34    35   ar
    35    35    36   ar
    36    12     7    1
    37    36    23    1
    38    20    13   ar
    39    29    24   ar
    40    36    31   ar
@<TRIPOS>MOLECULE
*****
 36 40 0 0 0
SMALL
GASTEIGER

@<TRIPOS>ATOM
      1 C           5.4275    2.5592   20.1360 C.3     1  UNL1        0.0896
      2 N           5.3304    1.4917   19.0865 N.3     1  UNL1       -0.2710
      3 C           6.4934    0.5781   18.8362 C.3     1  UNL1        0.0818
      4 C           7.1575   -0.1225   19.9843 C.3     1  UNL1        0.1026
      5 C           7.7614   -1.4811   19.7857 C.2     1  UNL1        0.2271
      6 O           8.3842   -1.8400   18.4692 O.2     1  UNL1       -0.2748
      7 N           7.7426   -2.4809   20.9038 N.am    1  UNL1       -0.2760
      8 C           7.1198   -2.1220   22.2204 C.3     1  UNL1        0.1148
      9 C           7.1009   -3.1218   23.3385 C.3     1  UNL1        0.1123
     10 N           7.7049   -4.4804   23.1400 N.pl3   1  UNL1       -0.3040
     11 C           8.3276   -4.8393   21.8234 C.3     1  UNL1        0.1123
     12 C           8.3464   -3.8395   20.7053 C.3     1  UNL1        0.1148
     13 C           7.6860   -5.4802   24.2581 C.ar    1  UNL1        0.0503
     14 C           8.2690   -6.8469   24.0520 C.ar    1  UNL1        0.0170
     15 C           8.2502   -7.8467   25.1701 C.ar    1  UNL1        0.0332
     16 C           7.6483   -7.4797   26.4942 C.ar    1  UNL1        0.1675
     17 F           7.6294   -8.4795   27.6123 F       1  UNL1       -0.2018
     18 C           7.0653   -6.1131   26.7002 C.ar    1  UNL1        0.1686
     19 F           6.4635   -5.7463   28.0243 F       1  UNL1       -0.2018
     20 C           7.0842   -5.1134   25.5821 C.ar    1  UNL1        0.0465
     21 C           4.0703    1.3380   18.2875 C.3     1  UNL1        0.0728
     22 C           2.9757    0.4379   18.7790 C.3     1  UNL1        0.0263
     23 C           3.2047   -0.4370   19.9757 C.3     1  UNL1        0.0519
     24 C           3.7692   -1.8156   19.7998 C.ar    1  UNL1        0.0162
     25 C           4.1046   -2.3192   18.4273 C.ar    1  UNL1       -0.0009
     26 C           4.6691   -3.6977   18.2514 C.ar    1  UNL1       -0.0001
     27 C           4.8981   -4.5727   19.4481 C.ar    1  UNL1        0.0031
     28 C           4.5626   -4.0691   20.8206 C.ar    1  UNL1        0.0372
     29 C           3.9982   -2.6905   20.9964 C.ar    1  UNL1        0.1415
     30 O           3.6627   -2.1869   22.3690 O.3     1  UNL1       -0.4541
     31 C           3.0982   -0.8084   22.5448 C.ar    1  UNL1        0.1415
     32 C           2.7627   -0.3047   23.9174 C.ar    1  UNL1        0.0372
     33 C           2.1982    1.0738   24.0932 C.ar    1  UNL1        0.0031
     34 C           1.9692    1.9488   22.8965 C.ar    1  UNL1       -0.0001
     35 C           2.3047    1.4452   21.5240 C.ar    1  UNL1       -0.0009
     36 C           2.8692    0.0666   21.3482 C.ar    1  UNL1        0.0162
@<TRIPOS>BOND
     1     1     2    1
     2     2     3    1
     3     3     4    1
     4     4     5    1
     5     5     6    2
     6     5     7   am
     7     7     8    1
     8     8     9    1
     9     9    10    1
    10    10    13    1
    11    13    14   ar
    12    14    15   ar
    13    15    16   ar
    14    16    17    1
    15    16    18   ar
    16    18    19    1
    17    18    20   ar
    18    10    11    1
    19    11    12    1
    20     2    21    1
    21    21    22    1
    22    22    23    1
    23    23    24    1
    24    24    25   ar
    25    25    26   ar
    26    26    27   ar
    27    27    28   ar
    28    28    29   ar
    29    29    30    1
    30    30    31    1
    31    31    32   ar
    32    32    33   ar
    33    33    34   ar
    34    34    35   ar
    35    35    36   ar
    36    12     7    1
    37    36    23    1
    38    20    13   ar
    39    29    24   ar
    40    36    31   ar
@<TRIPOS>MOLECULE
*****
 36 40 0 0 0
SMALL
GASTEIGER

@<TRIPOS>ATOM
      1 C           5.3519    4.2664   18.8033 C.3     1  UNL1        0.0896
      2 N           5.8636    3.0697   19.5491 N.3     1  UNL1       -0.2710
      3 C           5.6936    2.9841   21.0369 C.3     1  UNL1        0.0818
      4 C           6.1763    1.7729   21.7785 C.3     1  UNL1        0.1026
      5 C           5.1884    0.8351   22.4068 C.2     1  UNL1        0.2271
      6 O           3.7442    1.2269   22.5115 O.2     1  UNL1       -0.2748
      7 N           5.6446   -0.4944   22.9304 N.am    1  UNL1       -0.2760
      8 C           7.0888   -0.8862   22.8257 C.3     1  UNL1        0.1148
      9 C           7.5451   -2.2157   23.3492 C.3     1  UNL1        0.1123
     10 N           6.5572   -3.1535   23.9775 N.pl3   1  UNL1       -0.3040
     11 C           5.1131   -2.7617   24.0822 C.3     1  UNL1        0.1123
     12 C           4.6568   -1.4322   23.5587 C.3     1  UNL1        0.1148
     13 C           7.0135   -4.4830   24.5011 C.ar    1  UNL1        0.0503
     14 C           6.7428   -4.8604   25.9274 C.ar    1  UNL1        0.0170
     15 C           7.1991   -6.1900   26.4510 C.ar    1  UNL1        0.0332
     16 C           7.9261   -7.1421   25.5482 C.ar    1  UNL1        0.1675
     17 F           8.3824   -8.4717   26.0718 F       1  UNL1       -0.2018
     18 C           8.1968   -6.7647   24.1220 C.ar    1  UNL1        0.1686
     19 F           8.9238   -7.7168   23.2193 F       1  UNL1       -0.2018
     20 C           7.7405   -5.4352   23.5984 C.ar    1  UNL1        0.0465
     21 C           6.5454    1.9587   18.8070 C.3     1  UNL1        0.0728
     22 C           5.7302    0.9439   18.0614 C.3     1  UNL1        0.0263
     23 C           4.9533   -0.0945   18.8152 C.3     1  UNL1        0.0519
     24 C           5.6355   -1.3427   19.2912 C.ar    1  UNL1        0.0162
     25 C           7.0945   -1.5525   19.0135 C.ar    1  UNL1       -0.0009
     26 C           7.7766   -2.8008   19.4895 C.ar    1  UNL1       -0.0001
     27 C           6.9997   -3.8392   20.2432 C.ar    1  UNL1        0.0031
     28 C           5.5407   -3.6293   20.5209 C.ar    1  UNL1        0.0372
     29 C           4.8586   -2.3811   20.0449 C.ar    1  UNL1        0.1415
     30 O           3.3995   -2.1712   20.3226 O.3     1  UNL1       -0.4541
     31 C           2.7174   -0.9230   19.8466 C.ar    1  UNL1        0.1415
     32 C           1.2583   -0.7132   20.1243 C.ar    1  UNL1        0.0372
     33 C           0.5762    0.5351   19.6483 C.ar    1  UNL1        0.0031
     34 C           1.3531    1.5735   18.8946 C.ar    1  UNL1       -0.0001
     35 C           2.8121    1.3636   18.6168 C.ar    1  UNL1       -0.0009
     36 C           3.4943    0.1154   19.0929 C.ar    1  UNL1        0.0162
@<TRIPOS>BOND
     1     1     2    1
     2     2     3    1
     3     3     4    1
     4     4     5    1
     5     5     6    2
     6     5     7   am
     7     7     8    1
     8     8     9    1
     9     9    10    1
    10    10    13    1
    11    13    14   ar
    12    14    15   ar
    13    15    16   ar
    14    16    17    1
    15    16    18   ar
    16    18    19    1
    17    18    20   ar
    18    10    11    1
    19    11    12    1
    20     2    21    1
    21    21    22    1
    22    22    23    1
    23    23    24    1
    24    24    25   ar
    25    25    26   ar
    26    26    27   ar
    27    27    28   ar
    28    28    29   ar
    29    29    30    1
    30    30    31    1
    31    31    32   ar
    32    32    33   ar
    33    33    34   ar
    34    34    35   ar
    35    35    36   ar
    36    12     7    1
    37    36    23    1
    38    20    13   ar
    39    29    24   ar
    40    36    31   ar
@<TRIPOS>MOLECULE
*****
 36 40 0 0 0
SMALL
GASTEIGER

@<TRIPOS>ATOM
      1 C           3.9718    2.4453   19.3587 C.3     1  UNL1        0.0896
      2 N           2.6494    2.0385   18.7790 N.3     1  UNL1       -0.2710
      3 C           1.5375    3.0395   18.6721 C.3     1  UNL1        0.0818
      4 C           0.1810    2.6064   18.2006 C.3     1  UNL1        0.1026
      5 C          -0.9012    3.6241   17.9930 C.2     1  UNL1        0.2271
      6 O          -1.0164    4.3390   16.6793 O.2     1  UNL1       -0.2748
      7 N          -1.8681    3.9270   19.0990 N.am    1  UNL1       -0.2760
      8 C          -1.7529    3.2121   20.4127 C.3     1  UNL1        0.1148
      9 C          -2.7198    3.5150   21.5187 C.3     1  UNL1        0.1123
     10 N          -3.8020    4.5328   21.3110 N.pl3   1  UNL1       -0.3040
     11 C          -3.9172    5.2476   19.9974 C.3     1  UNL1        0.1123
     12 C          -2.9502    4.9447   18.8914 C.3     1  UNL1        0.1148
     13 C          -4.7689    4.8356   22.4170 C.ar    1  UNL1        0.0503
     14 C          -4.3699    5.7582   23.5305 C.ar    1  UNL1        0.0170
     15 C          -5.3368    6.0611   24.6365 C.ar    1  UNL1        0.0332
     16 C          -6.7028    5.4414   24.6291 C.ar    1  UNL1        0.1675
     17 F          -7.6698    5.7442   25.7351 F       1  UNL1       -0.2018
     18 C          -7.1018    4.5188   23.5157 C.ar    1  UNL1        0.1686
     19 F          -8.4678    3.8991   23.5084 F       1  UNL1       -0.2018
     20 C          -6.1349    4.2160   22.4097 C.ar    1  UNL1        0.0465
     21 C           2.4390    0.6305   18.3062 C.3     1  UNL1        0.0728
     22 C           1.7904   -0.3752   19.2104 C.3     1  UNL1        0.0263
     23 C           2.5355   -0.9055   20.3993 C.3     1  UNL1        0.0519
     24 C           3.5270   -2.0180   20.2279 C.ar    1  UNL1        0.0162
     25 C           3.7733   -2.6002   18.8676 C.ar    1  UNL1       -0.0009
     26 C           4.7647   -3.7127   18.6963 C.ar    1  UNL1       -0.0001
     27 C           5.5099   -4.2430   19.8852 C.ar    1  UNL1        0.0031
     28 C           5.2636   -3.6608   21.2455 C.ar    1  UNL1        0.0372
     29 C           4.2722   -2.5483   21.4168 C.ar    1  UNL1        0.1415
     30 O           4.0258   -1.9661   22.7772 O.3     1  UNL1       -0.4541
     31 C           3.0344   -0.8536   22.9485 C.ar    1  UNL1        0.1415
     32 C           2.7880   -0.2714   24.3088 C.ar    1  UNL1        0.0372
     33 C           1.7966    0.8411   24.4802 C.ar    1  UNL1        0.0031
     34 C           1.0514    1.3714   23.2912 C.ar    1  UNL1       -0.0001
     35 C           1.2977    0.7892   21.9310 C.ar    1  UNL1       -0.0009
     36 C           2.2892   -0.3233   21.7596 C.ar    1  UNL1        0.0162
@<TRIPOS>BOND
     1     1     2    1
     2     2     3    1
     3     3     4    1
     4     4     5    1
     5     5     6    2
     6     5     7   am
     7     7     8    1
     8     8     9    1
     9     9    10    1
    10    10    13    1
    11    13    14   ar
    12    14    15   ar
    13    15    16   ar
    14    16    17    1
    15    16    18   ar
    16    18    19    1
    17    18    20   ar
    18    10    11    1
    19    11    12    1
    20     2    21    1
    21    21    22    1
    22    22    23    1
    23    23    24    1
    24    24    25   ar
    25    25    26   ar
    26    26    27   ar
    27    27    28   ar
    28    28    29   ar
    29    29    30    1
    30    30    31    1
    31    31    32   ar
    32    32    33   ar
    33    33    34   ar
    34    34    35   ar
    35    35    36   ar
    36    12     7    1
    37    36    23    1
    38    20    13   ar
    39    29    24   ar
    40    36    31   ar
@<TRIPOS>MOLECULE
*****
 36 40 0 0 0
SMALL
GASTEIGER

@<TRIPOS>ATOM
      1 C           4.0118    2.3656   19.2850 C.3     1  UNL1        0.0896
      2 N           2.6945    1.9855   18.6763 N.3     1  UNL1       -0.2710
      3 C           1.5980    3.0030   18.5658 C.3     1  UNL1        0.0818
      4 C           0.1713    2.5574   18.4392 C.3     1  UNL1        0.1026
      5 C          -0.9132    3.5689   18.2141 C.2     1  UNL1        0.2271
      6 O          -1.0249    4.2669   16.8911 O.2     1  UNL1       -0.2748
      7 N          -1.8861    3.8824   19.3120 N.am    1  UNL1       -0.2760
      8 C          -1.7744    3.1843   20.6350 C.3     1  UNL1        0.1148
      9 C          -2.7472    3.4978   21.7328 C.3     1  UNL1        0.1123
     10 N          -3.8318    4.5093   21.5077 N.pl3   1  UNL1       -0.3040
     11 C          -3.9434    5.2073   20.1847 C.3     1  UNL1        0.1123
     12 C          -2.9706    4.8939   19.0869 C.3     1  UNL1        0.1148
     13 C          -4.8046    4.8228   22.6056 C.ar    1  UNL1        0.0503
     14 C          -4.3882    5.7003   23.7487 C.ar    1  UNL1        0.0170
     15 C          -5.3611    6.0138   24.8465 C.ar    1  UNL1        0.0332
     16 C          -6.7503    5.4497   24.8013 C.ar    1  UNL1        0.1675
     17 F          -7.7232    5.7632   25.8992 F       1  UNL1       -0.2018
     18 C          -7.1666    4.5723   23.6582 C.ar    1  UNL1        0.1686
     19 F          -8.5558    4.0082   23.6130 F       1  UNL1       -0.2018
     20 C          -6.1938    4.2588   22.5604 C.ar    1  UNL1        0.0465
     21 C           2.4739    0.5880   18.1782 C.3     1  UNL1        0.0728
     22 C           1.8289   -0.4325   19.0685 C.3     1  UNL1        0.0263
     23 C           2.5472   -0.9228   20.2906 C.3     1  UNL1        0.0519
     24 C           2.2357   -0.3290   21.6325 C.ar    1  UNL1        0.0162
     25 C           1.2059    0.7550   21.7522 C.ar    1  UNL1       -0.0009
     26 C           0.8945    1.3487   23.0939 C.ar    1  UNL1       -0.0001
     27 C           1.6128    0.8584   24.3161 C.ar    1  UNL1        0.0031
     28 C           2.6426   -0.2256   24.1964 C.ar    1  UNL1        0.0372
     29 C           2.9541   -0.8193   22.8546 C.ar    1  UNL1        0.1415
     30 O           3.9839   -1.9034   22.7349 O.3     1  UNL1       -0.4541
     31 C           4.2953   -2.4972   21.3931 C.ar    1  UNL1        0.1415
     32 C           5.3251   -3.5813   21.2733 C.ar    1  UNL1        0.0372
     33 C           5.6366   -4.1750   19.9315 C.ar    1  UNL1        0.0031
     34 C           4.9182   -3.6846   18.7094 C.ar    1  UNL1       -0.0001
     35 C           3.8885   -2.6006   18.8291 C.ar    1  UNL1       -0.0009
     36 C           3.5770   -2.0068   20.1709 C.ar    1  UNL1        0.0162
@<TRIPOS>BOND
     1     1     2    1
     2     2     3    1
     3     3     4    1
     4     4     5    1
     5     5     6    2
     6     5     7   am
     7     7     8    1
     8     8     9    1
     9     9    10    1
    10    10    13    1
    11    13    14   ar
    12    14    15   ar
    13    15    16   ar
    14    16    17    1
    15    16    18   ar
    16    18    19    1
    17    18    20   ar
    18    10    11    1
    19    11    12    1
    20     2    21    1
    21    21    22    1
    22    22    23    1
    23    23    24    1
    24    24    25   ar
    25    25    26   ar
    26    26    27   ar
    27    27    28   ar
    28    28    29   ar
    29    29    30    1
    30    30    31    1
    31    31    32   ar
    32    32    33   ar
    33    33    34   ar
    34    34    35   ar
    35    35    36   ar
    36    12     7    1
    37    36    23    1
    38    20    13   ar
    39    29    24   ar
    40    36    31   ar
@<TRIPOS>MOLECULE
*****
 36 40 0 0 0
SMALL
GASTEIGER

@<TRIPOS>ATOM
      1 C           5.1491    2.5713   18.1940 C.3     1  UNL1        0.0896
      2 N           5.8366    1.2390   18.2426 N.3     1  UNL1       -0.2710
      3 C           6.7961    0.9302   19.3534 C.3     1  UNL1        0.0818
      4 C           6.6145    1.5660   20.6998 C.3     1  UNL1        0.1026
      5 C           6.0984    0.7527   21.8498 C.2     1  UNL1        0.2271
      6 O           6.8864   -0.4207   22.3518 O.2     1  UNL1       -0.2748
      7 N           4.7944    1.1129   22.4976 N.am    1  UNL1       -0.2760
      8 C           4.0064    2.2864   21.9955 C.3     1  UNL1        0.1148
      9 C           2.7023    2.6467   22.6433 C.3     1  UNL1        0.1123
     10 N           2.1863    1.8334   23.7933 N.pl3   1  UNL1       -0.3040
     11 C           2.9742    0.6600   24.2954 C.3     1  UNL1        0.1123
     12 C           4.2783    0.2997   23.6475 C.3     1  UNL1        0.1148
     13 C           0.8822    2.1936   24.4412 C.ar    1  UNL1        0.0503
     14 C          -0.0999    3.0652   23.7160 C.ar    1  UNL1        0.0170
     15 C          -1.4040    3.4255   24.3639 C.ar    1  UNL1        0.0332
     16 C          -1.7259    2.9141   25.7369 C.ar    1  UNL1        0.1675
     17 F          -3.0299    3.2743   26.3847 F       1  UNL1       -0.2018
     18 C          -0.7437    2.0426   26.4619 C.ar    1  UNL1        0.1686
     19 F          -1.0656    1.5312   27.8348 F       1  UNL1       -0.2018
     20 C           0.5603    1.6823   25.8141 C.ar    1  UNL1        0.0465
     21 C           5.5646    0.2155   17.1803 C.3     1  UNL1        0.0728
     22 C           4.4474   -0.7698   17.3566 C.3     1  UNL1        0.0263
     23 C           3.8559   -0.9976   18.7161 C.3     1  UNL1        0.0519
     24 C           2.6116   -0.2664   19.1248 C.ar    1  UNL1        0.0162
     25 C           1.9588    0.6927   18.1740 C.ar    1  UNL1       -0.0009
     26 C           0.7146    1.4239   18.5827 C.ar    1  UNL1       -0.0001
     27 C           0.1231    1.1960   19.9422 C.ar    1  UNL1        0.0031
     28 C           0.7758    0.2369   20.8930 C.ar    1  UNL1        0.0372
     29 C           2.0201   -0.4943   20.4842 C.ar    1  UNL1        0.1415
     30 O           2.6729   -1.4534   21.4350 O.3     1  UNL1       -0.4541
     31 C           3.9172   -2.1846   21.0263 C.ar    1  UNL1        0.1415
     32 C           4.5700   -3.1438   21.9771 C.ar    1  UNL1        0.0372
     33 C           5.8143   -3.8750   21.5683 C.ar    1  UNL1        0.0031
     34 C           6.4058   -3.6471   20.2089 C.ar    1  UNL1       -0.0001
     35 C           5.7530   -2.6880   19.2581 C.ar    1  UNL1       -0.0009
     36 C           4.5087   -1.9567   19.6668 C.ar    1  UNL1        0.0162
@<TRIPOS>BOND
     1     1     2    1
     2     2     3    1
     3     3     4    1
     4     4     5    1
     5     5     6    2
     6     5     7   am
     7     7     8    1
     8     8     9    1
     9     9    10    1
    10    10    13    1
    11    13    14   ar
    12    14    15   ar
    13    15    16   ar
    14    16    17    1
    15    16    18   ar
    16    18    19    1
    17    18    20   ar
    18    10    11    1
    19    11    12    1
    20     2    21    1
    21    21    22    1
    22    22    23    1
    23    23    24    1
    24    24    25   ar
    25    25    26   ar
    26    26    27   ar
    27    27    28   ar
    28    28    29   ar
    29    29    30    1
    30    30    31    1
    31    31    32   ar
    32    32    33   ar
    33    33    34   ar
    34    34    35   ar
    35    35    36   ar
    36    12     7    1
    37    36    23    1
    38    20    13   ar
    39    29    24   ar
    40    36    31   ar
