@<TRIPOS>MOLECULE
*****
 26 28 0 0 0
SMALL
GASTEIGER

@<TRIPOS>ATOM
      1 C          -7.7354  -19.1685   20.2900 C.2     1  UNL1        0.2252
      2 O          -7.7155  -17.7921   20.8858 O.2     1  UNL1       -0.2750
      3 N          -9.0063  -19.7175   19.7123 N.am    1  UNL1       -0.3003
      4 H          -9.0194  -20.6209   19.3213 H       1  UNL1        0.1497
      5 C          -6.4845  -19.9962   20.2720 C.3     1  UNL1        0.1154
      6 C          -6.5366  -20.4315   22.2310 C.3     1  UNL1        0.0335
      7 C          -5.4662  -19.8402   21.3623 C.3     1  UNL1        0.1377
      8 C          -4.6088  -19.2815   20.2656 C.3     1  UNL1        0.0613
      9 C          -3.2842  -18.9037   20.8597 C.3     1  UNL1        0.1290
     10 C          -2.0162  -18.5766   21.5913 C.3     1  UNL1        0.0305
     11 C          -0.8565  -17.9786   20.8515 C.3     1  UNL1        0.0025
     12 C          -0.9647  -17.7077   19.3801 C.3     1  UNL1        0.0002
     13 C          -2.2326  -18.0349   18.6486 C.3     1  UNL1        0.0025
     14 C          -3.3924  -18.6328   19.3884 C.3     1  UNL1        0.0305
     15 O          -3.3231  -19.2289   22.3236 O.3     1  UNL1       -0.2256
     16 O          -4.6717  -19.8077   22.6342 O.3     1  UNL1       -0.2251
     17 C         -10.2571  -18.8898   19.7303 C.3     1  UNL1        0.1175
     18 C         -10.9820  -18.6543   21.0222 C.ar    1  UNL1        0.0103
     19 C         -10.7201  -19.5429   22.2020 C.ar    1  UNL1       -0.0014
     20 C         -11.4450  -19.3074   23.4939 C.ar    1  UNL1       -0.0002
     21 C         -12.4318  -18.1833   23.6061 C.ar    1  UNL1        0.0012
     22 C         -12.6938  -17.2948   22.4264 C.ar    1  UNL1        0.0138
     23 C         -11.9689  -17.5303   21.1344 C.ar    1  UNL1        0.0391
     24 N         -12.2308  -16.6417   19.9547 N.pl3   1  UNL1       -0.3572
     25 H         -12.8786  -15.9040   20.0283 H       1  UNL1        0.1423
     26 H         -11.7551  -16.7963   19.1068 H       1  UNL1        0.1423
@<TRIPOS>BOND
     1     6     7    1
     2     7     5    1
     3     5     1    1
     4     1     2    2
     5     1     3   am
     6     3    17    1
     7    17    18    1
     8    18    19   ar
     9    19    20   ar
    10    20    21   ar
    11    21    22   ar
    12    22    23   ar
    13    23    24    1
    14     7     8    1
    15     8     9    1
    16     9    10    1
    17    10    11    1
    18    11    12    1
    19    12    13    1
    20    13    14    1
    21     9    15    1
    22    15    16    1
    23    16     7    1
    24    23    18   ar
    25    14     9    1
    26     3     4    1
    27    24    25    1
    28    24    26    1
@<TRIPOS>MOLECULE
*****
 26 28 0 0 0
SMALL
GASTEIGER

@<TRIPOS>ATOM
      1 C          -4.3196  -18.0037   23.3346 C.2     1  UNL1        0.2252
      2 O          -3.6096  -18.1327   24.6496 O.2     1  UNL1       -0.2750
      3 N          -5.0450  -16.7354   22.9952 N.am    1  UNL1       -0.3003
      4 H          -5.5110  -16.6507   22.1321 H       1  UNL1        0.1497
      5 C          -4.3042  -19.1431   22.3590 C.3     1  UNL1        0.1154
      6 C          -3.7086  -18.7956   20.4737 C.3     1  UNL1        0.0335
      7 C          -5.0637  -19.0368   21.0700 C.3     1  UNL1        0.1377
      8 C          -6.2601  -19.3002   21.9356 C.3     1  UNL1        0.0613
      9 C          -7.4758  -19.3064   21.0570 C.3     1  UNL1        0.1290
     10 C          -8.5946  -19.2837   20.0581 C.3     1  UNL1        0.0305
     11 C         -10.0072  -19.5098   20.5090 C.3     1  UNL1        0.0025
     12 C         -10.3010  -19.7585   21.9588 C.3     1  UNL1        0.0002
     13 C          -9.1822  -19.7811   22.9576 C.3     1  UNL1        0.0025
     14 C          -7.7696  -19.5551   22.5067 C.3     1  UNL1        0.0305
     15 O          -7.0308  -19.0467   19.6482 O.3     1  UNL1       -0.2256
     16 O          -5.5401  -18.8801   19.6562 O.3     1  UNL1       -0.2251
     17 C          -5.0604  -15.5961   23.9708 C.3     1  UNL1        0.1175
     18 C          -6.1355  -15.5164   25.0138 C.ar    1  UNL1        0.0103
     19 C          -5.8041  -15.7752   26.4537 C.ar    1  UNL1       -0.0014
     20 C          -6.8792  -15.6954   27.4967 C.ar    1  UNL1       -0.0002
     21 C          -8.2855  -15.3569   27.0998 C.ar    1  UNL1        0.0012
     22 C          -8.6169  -15.0981   25.6600 C.ar    1  UNL1        0.0138
     23 C          -7.5418  -15.1779   24.6169 C.ar    1  UNL1        0.0391
     24 N          -7.8731  -14.9191   23.1771 N.pl3   1  UNL1       -0.3572
     25 H          -8.7962  -14.6969   22.9167 H       1  UNL1        0.1423
     26 H          -7.1675  -14.9715   22.4926 H       1  UNL1        0.1423
@<TRIPOS>BOND
     1     6     7    1
     2     7     5    1
     3     5     1    1
     4     1     2    2
     5     1     3   am
     6     3    17    1
     7    17    18    1
     8    18    19   ar
     9    19    20   ar
    10    20    21   ar
    11    21    22   ar
    12    22    23   ar
    13    23    24    1
    14     7     8    1
    15     8     9    1
    16     9    10    1
    17    10    11    1
    18    11    12    1
    19    12    13    1
    20    13    14    1
    21     9    15    1
    22    15    16    1
    23    16     7    1
    24    23    18   ar
    25    14     9    1
    26     3     4    1
    27    24    25    1
    28    24    26    1
@<TRIPOS>MOLECULE
*****
 26 28 0 0 0
SMALL
GASTEIGER

@<TRIPOS>ATOM
      1 C          -7.5715  -18.5594   21.4130 C.2     1  UNL1        0.2252
      2 O          -7.4435  -19.7521   22.3134 O.2     1  UNL1       -0.2750
      3 N          -6.6052  -18.3661   20.2821 N.am    1  UNL1       -0.3003
      4 H          -6.6893  -17.5832   19.6911 H       1  UNL1        0.1497
      5 C          -8.6659  -17.5596   21.6435 C.3     1  UNL1        0.1154
      6 C         -10.4467  -17.9286   22.4935 C.3     1  UNL1        0.0335
      7 C          -9.1844  -17.3219   23.0307 C.3     1  UNL1        0.1377
      8 C          -7.8138  -16.7648   23.2780 C.3     1  UNL1        0.0613
      9 C          -7.7491  -16.3096   24.7058 C.3     1  UNL1        0.1290
     10 C          -7.8332  -15.9026   26.1471 C.3     1  UNL1        0.0305
     11 C          -6.6462  -15.2809   26.8213 C.3     1  UNL1        0.0025
     12 C          -5.3752  -15.0661   26.0542 C.3     1  UNL1        0.0002
     13 C          -5.2911  -15.4731   24.6130 C.3     1  UNL1        0.0025
     14 C          -6.4780  -16.0948   23.9388 C.3     1  UNL1        0.0305
     15 O          -9.0797  -16.5852   25.3410 O.3     1  UNL1       -0.2256
     16 O          -9.9669  -17.2109   24.3058 O.3     1  UNL1       -0.2251
     17 C          -5.5109  -19.3658   20.0516 C.3     1  UNL1        0.1175
     18 C          -4.0797  -18.9756   20.2738 C.ar    1  UNL1        0.0103
     19 C          -3.2332  -18.5377   19.1156 C.ar    1  UNL1       -0.0014
     20 C          -1.8020  -18.1475   19.3378 C.ar    1  UNL1       -0.0002
     21 C          -1.2173  -18.1953   20.7183 C.ar    1  UNL1        0.0012
     22 C          -2.0637  -18.6333   21.8765 C.ar    1  UNL1        0.0138
     23 C          -3.4950  -19.0235   21.6543 C.ar    1  UNL1        0.0391
     24 N          -4.3414  -19.4614   22.8126 N.pl3   1  UNL1       -0.3572
     25 H          -3.9576  -19.4928   23.7186 H       1  UNL1        0.1423
     26 H          -5.2808  -19.7175   22.6667 H       1  UNL1        0.1423
@<TRIPOS>BOND
     1     6     7    1
     2     7     5    1
     3     5     1    1
     4     1     2    2
     5     1     3   am
     6     3    17    1
     7    17    18    1
     8    18    19   ar
     9    19    20   ar
    10    20    21   ar
    11    21    22   ar
    12    22    23   ar
    13    23    24    1
    14     7     8    1
    15     8     9    1
    16     9    10    1
    17    10    11    1
    18    11    12    1
    19    12    13    1
    20    13    14    1
    21     9    15    1
    22    15    16    1
    23    16     7    1
    24    23    18   ar
    25    14     9    1
    26     3     4    1
    27    24    25    1
    28    24    26    1
@<TRIPOS>MOLECULE
*****
 26 28 0 0 0
SMALL
GASTEIGER

@<TRIPOS>ATOM
      1 C          -9.6916  -18.5406   23.5278 C.2     1  UNL1        0.2252
      2 O          -9.7375  -18.8936   24.9849 O.2     1  UNL1       -0.2750
      3 N          -9.6085  -17.1034   23.1064 N.am    1  UNL1       -0.3003
      4 H          -9.5783  -16.8717   22.1501 H       1  UNL1        0.1497
      5 C          -9.7287  -19.6249   22.4918 C.3     1  UNL1        0.1154
      6 C         -10.6205  -19.3152   20.7203 C.3     1  UNL1        0.0335
      7 C          -9.1760  -19.3713   21.1207 C.3     1  UNL1        0.1377
      8 C          -7.8471  -19.4804   21.8077 C.3     1  UNL1        0.0613
      9 C          -6.7749  -19.2825   20.7775 C.3     1  UNL1        0.1290
     10 C          -5.8184  -19.0670   19.6423 C.3     1  UNL1        0.0305
     11 C          -4.3396  -19.0955   19.8920 C.3     1  UNL1        0.0025
     12 C          -3.8174  -19.3396   21.2769 C.3     1  UNL1        0.0002
     13 C          -4.7740  -19.5551   22.4120 C.3     1  UNL1        0.0025
     14 C          -6.2527  -19.5266   22.1623 C.3     1  UNL1        0.0305
     15 O          -7.4413  -19.0511   19.4536 O.3     1  UNL1       -0.2256
     16 O          -8.9253  -19.1060   19.6658 O.3     1  UNL1       -0.2251
     17 C          -9.5714  -16.0191   24.1423 C.3     1  UNL1        0.1175
     18 C          -8.3224  -15.7861   24.9397 C.ar    1  UNL1        0.0103
     19 C          -8.3107  -16.0644   26.4136 C.ar    1  UNL1       -0.0014
     20 C          -7.0617  -15.8314   27.2109 C.ar    1  UNL1       -0.0002
     21 C          -5.8245  -15.3202   26.5344 C.ar    1  UNL1        0.0012
     22 C          -5.8361  -15.0419   25.0605 C.ar    1  UNL1        0.0138
     23 C          -7.0851  -15.2749   24.2631 C.ar    1  UNL1        0.0391
     24 N          -7.0968  -14.9966   22.7893 N.pl3   1  UNL1       -0.3572
     25 H          -6.2847  -14.6610   22.3452 H       1  UNL1        0.1423
     26 H          -7.9166  -15.1495   22.2659 H       1  UNL1        0.1423
@<TRIPOS>BOND
     1     6     7    1
     2     7     5    1
     3     5     1    1
     4     1     2    2
     5     1     3   am
     6     3    17    1
     7    17    18    1
     8    18    19   ar
     9    19    20   ar
    10    20    21   ar
    11    21    22   ar
    12    22    23   ar
    13    23    24    1
    14     7     8    1
    15     8     9    1
    16     9    10    1
    17    10    11    1
    18    11    12    1
    19    12    13    1
    20    13    14    1
    21     9    15    1
    22    15    16    1
    23    16     7    1
    24    23    18   ar
    25    14     9    1
    26     3     4    1
    27    24    25    1
    28    24    26    1
@<TRIPOS>MOLECULE
*****
 26 28 0 0 0
SMALL
GASTEIGER

@<TRIPOS>ATOM
      1 C          -6.5431  -19.2048   22.0328 C.2     1  UNL1        0.2252
      2 O          -6.4919  -17.7267   22.2821 O.2     1  UNL1       -0.2750
      3 N          -5.2834  -20.0179   22.0824 N.am    1  UNL1       -0.3003
      4 H          -5.3170  -20.9881   21.9187 H       1  UNL1        0.1497
      5 C          -7.8539  -19.8701   21.7338 C.3     1  UNL1        0.1154
      6 C          -7.7787  -19.4558   19.7711 C.3     1  UNL1        0.0335
      7 C          -8.8345  -19.2130   20.8084 C.3     1  UNL1        0.1377
      8 C          -9.6854  -19.1075   22.0392 C.3     1  UNL1        0.0613
      9 C         -10.9713  -18.4359   21.6577 C.3     1  UNL1        0.1290
     10 C         -12.2002  -17.7568   21.1300 C.3     1  UNL1        0.0305
     11 C         -13.3418  -17.4489   22.0530 C.3     1  UNL1        0.0025
     12 C         -13.2544  -17.8201   23.5038 C.3     1  UNL1        0.0002
     13 C         -12.0255  -18.4992   24.0315 C.3     1  UNL1        0.0025
     14 C         -10.8839  -18.8071   23.1084 C.3     1  UNL1        0.0305
     15 O         -10.9151  -18.1263   20.1911 O.3     1  UNL1       -0.2256
     16 O          -9.5945  -18.6066   19.6661 O.3     1  UNL1       -0.2251
     17 C          -3.9727  -19.3526   22.3813 C.3     1  UNL1        0.1175
     18 C          -3.1501  -18.7807   21.2650 C.ar    1  UNL1        0.0103
     19 C          -3.3834  -19.2325   19.8538 C.ar    1  UNL1       -0.0014
     20 C          -2.5608  -18.6606   18.7375 C.ar    1  UNL1       -0.0002
     21 C          -1.5049  -17.6369   19.0323 C.ar    1  UNL1        0.0012
     22 C          -1.2716  -17.1850   20.4434 C.ar    1  UNL1        0.0138
     23 C          -2.0942  -17.7569   21.5598 C.ar    1  UNL1        0.0391
     24 N          -1.8609  -17.3051   22.9709 N.pl3   1  UNL1       -0.3572
     25 H          -1.1679  -16.6332   23.1644 H       1  UNL1        0.1423
     26 H          -2.4008  -17.6805   23.7036 H       1  UNL1        0.1423
@<TRIPOS>BOND
     1     6     7    1
     2     7     5    1
     3     5     1    1
     4     1     2    2
     5     1     3   am
     6     3    17    1
     7    17    18    1
     8    18    19   ar
     9    19    20   ar
    10    20    21   ar
    11    21    22   ar
    12    22    23   ar
    13    23    24    1
    14     7     8    1
    15     8     9    1
    16     9    10    1
    17    10    11    1
    18    11    12    1
    19    12    13    1
    20    13    14    1
    21     9    15    1
    22    15    16    1
    23    16     7    1
    24    23    18   ar
    25    14     9    1
    26     3     4    1
    27    24    25    1
    28    24    26    1
@<TRIPOS>MOLECULE
*****
 26 28 0 0 0
SMALL
GASTEIGER

@<TRIPOS>ATOM
      1 C          -7.0621  -18.6815   22.0269 C.2     1  UNL1        0.2252
      2 O          -7.3525  -17.8837   20.7904 O.2     1  UNL1       -0.2750
      3 N          -7.6798  -18.2877   23.3360 N.am    1  UNL1       -0.3003
      4 H          -7.4892  -18.8113   24.1476 H       1  UNL1        0.1497
      5 C          -6.1541  -19.8734   21.9545 C.3     1  UNL1        0.1154
      6 C          -6.2122  -21.1253   20.3864 C.3     1  UNL1        0.0335
      7 C          -5.2416  -20.0505   20.7774 C.3     1  UNL1        0.1377
      8 C          -4.4618  -18.9387   21.4144 C.3     1  UNL1        0.0613
      9 C          -3.2701  -18.6534   20.5492 C.3     1  UNL1        0.1290
     10 C          -2.1303  -18.4821   19.5894 C.3     1  UNL1        0.0305
     11 C          -1.0798  -17.4437   19.8502 C.3     1  UNL1        0.0025
     12 C          -1.1692  -16.5765   21.0708 C.3     1  UNL1        0.0002
     13 C          -2.3090  -16.7477   22.0307 C.3     1  UNL1        0.0025
     14 C          -3.3595  -17.7862   21.7699 C.3     1  UNL1        0.0305
     15 O          -3.3134  -19.5888   19.3774 O.3     1  UNL1       -0.2256
     16 O          -4.5319  -20.4524   19.5184 O.3     1  UNL1       -0.2251
     17 C          -8.5877  -17.0959   23.4083 C.3     1  UNL1        0.1175
     18 C         -10.0458  -17.2433   23.0885 C.ar    1  UNL1        0.0103
     19 C         -10.9166  -18.1157   23.9432 C.ar    1  UNL1       -0.0014
     20 C         -12.3747  -18.2631   23.6233 C.ar    1  UNL1       -0.0002
     21 C         -12.9619  -17.5382   22.4487 C.ar    1  UNL1        0.0012
     22 C         -12.0910  -16.6659   21.5940 C.ar    1  UNL1        0.0138
     23 C         -10.6329  -16.5184   21.9139 C.ar    1  UNL1        0.0391
     24 N          -9.7621  -15.6461   21.0592 N.pl3   1  UNL1       -0.3572
     25 H         -10.1475  -15.1703   20.2882 H       1  UNL1        0.1423
     26 H          -8.8051  -15.5493   21.2691 H       1  UNL1        0.1423
@<TRIPOS>BOND
     1     6     7    1
     2     7     5    1
     3     5     1    1
     4     1     2    2
     5     1     3   am
     6     3    17    1
     7    17    18    1
     8    18    19   ar
     9    19    20   ar
    10    20    21   ar
    11    21    22   ar
    12    22    23   ar
    13    23    24    1
    14     7     8    1
    15     8     9    1
    16     9    10    1
    17    10    11    1
    18    11    12    1
    19    12    13    1
    20    13    14    1
    21     9    15    1
    22    15    16    1
    23    16     7    1
    24    23    18   ar
    25    14     9    1
    26     3     4    1
    27    24    25    1
    28    24    26    1
@<TRIPOS>MOLECULE
*****
 26 28 0 0 0
SMALL
GASTEIGER

@<TRIPOS>ATOM
      1 C          -6.1850  -15.6347   24.1005 C.2     1  UNL1        0.2252
      2 O          -5.4846  -14.7197   25.0607 O.2     1  UNL1       -0.2750
      3 N          -5.3997  -16.6480   23.3216 N.am    1  UNL1       -0.3003
      4 H          -5.8594  -17.2486   22.6913 H       1  UNL1        0.1497
      5 C          -7.6708  -15.5365   23.9190 C.3     1  UNL1        0.1154
      6 C          -8.1963  -15.8762   25.8264 C.3     1  UNL1        0.0335
      7 C          -8.5720  -16.5592   24.5448 C.3     1  UNL1        0.1377
      8 C          -8.7593  -17.0284   23.1325 C.3     1  UNL1        0.0613
      9 C          -9.6978  -18.1985   23.1533 C.3     1  UNL1        0.1290
     10 C         -10.6423  -19.3502   23.3300 C.3     1  UNL1        0.0305
     11 C         -11.1066  -20.1295   22.1354 C.3     1  UNL1        0.0025
     12 C         -10.6263  -19.7570   20.7640 C.3     1  UNL1        0.0002
     13 C          -9.6817  -18.6052   20.5873 C.3     1  UNL1        0.0025
     14 C          -9.2175  -17.8260   21.7820 C.3     1  UNL1        0.0305
     15 O         -10.0904  -18.4524   24.5786 O.3     1  UNL1       -0.2256
     16 O          -9.3946  -17.4393   25.4386 O.3     1  UNL1       -0.2251
     17 C          -3.9139  -16.7462   23.5031 C.3     1  UNL1        0.1175
     18 C          -3.0581  -17.2931   22.3993 C.ar    1  UNL1        0.0103
     19 C          -2.0895  -16.3964   21.6867 C.ar    1  UNL1       -0.0014
     20 C          -1.2337  -16.9433   20.5829 C.ar    1  UNL1       -0.0002
     21 C          -1.3464  -18.3870   20.1917 C.ar    1  UNL1        0.0012
     22 C          -2.3148  -19.2837   20.9042 C.ar    1  UNL1        0.0138
     23 C          -3.1708  -18.7368   22.0081 C.ar    1  UNL1        0.0391
     24 N          -4.1393  -19.6335   22.7206 N.pl3   1  UNL1       -0.3572
     25 H          -4.2132  -20.5811   22.4638 H       1  UNL1        0.1423
     26 H          -4.7010  -19.2746   23.4451 H       1  UNL1        0.1423
@<TRIPOS>BOND
     1     6     7    1
     2     7     5    1
     3     5     1    1
     4     1     2    2
     5     1     3   am
     6     3    17    1
     7    17    18    1
     8    18    19   ar
     9    19    20   ar
    10    20    21   ar
    11    21    22   ar
    12    22    23   ar
    13    23    24    1
    14     7     8    1
    15     8     9    1
    16     9    10    1
    17    10    11    1
    18    11    12    1
    19    12    13    1
    20    13    14    1
    21     9    15    1
    22    15    16    1
    23    16     7    1
    24    23    18   ar
    25    14     9    1
    26     3     4    1
    27    24    25    1
    28    24    26    1
@<TRIPOS>MOLECULE
*****
 26 28 0 0 0
SMALL
GASTEIGER

@<TRIPOS>ATOM
      1 C          -8.2549  -18.3229   22.5388 C.2     1  UNL1        0.2252
      2 O          -9.1748  -18.5300   23.7053 O.2     1  UNL1       -0.2750
      3 N          -7.7598  -16.9458   22.2093 N.am    1  UNL1       -0.3003
      4 H          -7.1561  -16.8098   21.4436 H       1  UNL1        0.1497
      5 C          -7.8301  -19.4929   21.7016 C.3     1  UNL1        0.1154
      6 C          -7.9590  -19.6484   19.7044 C.3     1  UNL1        0.0335
      7 C          -6.8153  -19.3068   20.6128 C.3     1  UNL1        0.1377
      8 C          -5.8838  -19.0041   21.7488 C.3     1  UNL1        0.0613
      9 C          -4.5322  -18.7023   21.1723 C.3     1  UNL1        0.1290
     10 C          -3.2447  -18.4252   20.4544 C.3     1  UNL1        0.0305
     11 C          -2.0132  -18.0697   21.2334 C.3     1  UNL1        0.0025
     12 C          -2.0692  -17.9912   22.7303 C.3     1  UNL1        0.0002
     13 C          -3.3567  -18.2683   23.4482 C.3     1  UNL1        0.0025
     14 C          -4.5883  -18.6239   22.6692 C.3     1  UNL1        0.0305
     15 O          -4.6285  -18.8185   19.6799 O.3     1  UNL1       -0.2256
     16 O          -6.0396  -19.1921   19.3341 O.3     1  UNL1       -0.2251
     17 C          -8.1847  -15.7759   23.0464 C.3     1  UNL1        0.1175
     18 C          -7.6465  -15.6140   24.4371 C.ar    1  UNL1        0.0103
     19 C          -8.5537  -15.7936   25.6181 C.ar    1  UNL1       -0.0014
     20 C          -8.0154  -15.6317   27.0088 C.ar    1  UNL1       -0.0002
     21 C          -6.5700  -15.2901   27.2185 C.ar    1  UNL1        0.0012
     22 C          -5.6628  -15.1104   26.0376 C.ar    1  UNL1        0.0138
     23 C          -6.2010  -15.2724   24.6468 C.ar    1  UNL1        0.0391
     24 N          -5.2939  -15.0927   23.4659 N.pl3   1  UNL1       -0.3572
     25 H          -4.3452  -14.8685   23.6036 H       1  UNL1        0.1423
     26 H          -5.6471  -15.1990   22.5532 H       1  UNL1        0.1423
@<TRIPOS>BOND
     1     6     7    1
     2     7     5    1
     3     5     1    1
     4     1     2    2
     5     1     3   am
     6     3    17    1
     7    17    18    1
     8    18    19   ar
     9    19    20   ar
    10    20    21   ar
    11    21    22   ar
    12    22    23   ar
    13    23    24    1
    14     7     8    1
    15     8     9    1
    16     9    10    1
    17    10    11    1
    18    11    12    1
    19    12    13    1
    20    13    14    1
    21     9    15    1
    22    15    16    1
    23    16     7    1
    24    23    18   ar
    25    14     9    1
    26     3     4    1
    27    24    25    1
    28    24    26    1
@<TRIPOS>MOLECULE
*****
 26 28 0 0 0
SMALL
GASTEIGER

@<TRIPOS>ATOM
      1 C         -10.5035  -17.7006   23.9921 C.2     1  UNL1        0.2252
      2 O         -10.0933  -18.3947   25.2569 O.2     1  UNL1       -0.2750
      3 N         -10.0889  -16.2798   23.7479 N.am    1  UNL1       -0.3003
      4 H         -10.3581  -15.8242   22.9177 H       1  UNL1        0.1497
      5 C         -11.3283  -18.4272   22.9713 C.3     1  UNL1        0.1154
      6 C         -12.2874  -17.8406   21.3082 C.3     1  UNL1        0.0335
      7 C         -10.9187  -18.4134   21.5285 C.3     1  UNL1        0.1377
      8 C          -9.6356  -18.9891   22.0503 C.3     1  UNL1        0.0613
      9 C          -8.7190  -19.2114   20.8839 C.3     1  UNL1        0.1290
     10 C          -7.9174  -19.3768   19.6269 C.3     1  UNL1        0.0305
     11 C          -6.5282  -19.9387   19.6919 C.3     1  UNL1        0.0025
     12 C          -5.9406  -20.3353   21.0138 C.3     1  UNL1        0.0002
     13 C          -6.7422  -20.1699   22.2707 C.3     1  UNL1        0.0025
     14 C          -8.1314  -19.6080   22.2058 C.3     1  UNL1        0.0305
     15 O          -9.4356  -18.7731   19.6411 O.3     1  UNL1       -0.2256
     16 O         -10.7951  -18.2799   20.0395 O.3     1  UNL1       -0.2251
     17 C          -9.2641  -15.5533   24.7686 C.3     1  UNL1        0.1175
     18 C          -7.7746  -15.7287   24.7920 C.ar    1  UNL1        0.0103
     19 C          -7.0603  -16.2387   23.5756 C.ar    1  UNL1       -0.0014
     20 C          -5.5708  -16.4141   23.5990 C.ar    1  UNL1       -0.0002
     21 C          -4.7956  -16.0796   24.8388 C.ar    1  UNL1        0.0012
     22 C          -5.5099  -15.5697   26.0552 C.ar    1  UNL1        0.0138
     23 C          -6.9994  -15.3942   26.0318 C.ar    1  UNL1        0.0391
     24 N          -7.7137  -14.8842   27.2482 N.pl3   1  UNL1       -0.3572
     25 H          -7.2049  -14.6647   28.0619 H       1  UNL1        0.1423
     26 H          -8.6913  -14.7691   27.2328 H       1  UNL1        0.1423
@<TRIPOS>BOND
     1     6     7    1
     2     7     5    1
     3     5     1    1
     4     1     2    2
     5     1     3   am
     6     3    17    1
     7    17    18    1
     8    18    19   ar
     9    19    20   ar
    10    20    21   ar
    11    21    22   ar
    12    22    23   ar
    13    23    24    1
    14     7     8    1
    15     8     9    1
    16     9    10    1
    17    10    11    1
    18    11    12    1
    19    12    13    1
    20    13    14    1
    21     9    15    1
    22    15    16    1
    23    16     7    1
    24    23    18   ar
    25    14     9    1
    26     3     4    1
    27    24    25    1
    28    24    26    1
