@<TRIPOS>MOLECULE
*****
 26 29 0 0 0
SMALL
GASTEIGER

@<TRIPOS>ATOM
      1 N          -8.6716  -15.9029   24.0292 N.3     1  UNL1       -0.3204
      2 C          -8.0361  -17.0640   23.3235 C.3     1  UNL1        0.0783
      3 C          -6.5656  -17.0483   23.0278 C.3     1  UNL1        0.1229
      4 N          -5.9300  -18.2094   22.3221 N.ar    1  UNL1       -0.3134
      5 C          -6.7650  -19.3861   21.9121 C.ar    1  UNL1        0.1207
      6 N          -5.8665  -20.3786   21.2355 N.ar    1  UNL1       -0.2294
      7 C          -4.4763  -19.8153   21.2275 C.ar    1  UNL1        0.1176
      8 C          -3.1798  -20.3499   20.6954 C.ar    1  UNL1        0.1218
      9 N          -1.9225  -19.5439   20.8349 N.ar    1  UNL1       -0.2148
     10 C          -1.9618  -18.2032   21.5065 C.ar    1  UNL1        0.2239
     11 F          -0.7044  -17.3972   21.6459 F       1  UNL1       -0.1832
     12 C          -3.2583  -17.6686   22.0385 C.ar    1  UNL1        0.0684
     13 C          -4.5156  -18.4746   21.8990 C.ar    1  UNL1        0.0840
     14 C          -8.2355  -19.4017   22.2077 C.3     1  UNL1        0.0698
     15 C          -8.8710  -18.2407   22.9134 C.3     1  UNL1        0.0482
     16 H          -7.9623  -15.1984   24.2316 H       1  UNL1        0.1189
     17 H          -9.0909  -16.2236   24.9020 H       1  UNL1        0.1189
     18 C         -10.3415  -18.2564   23.2090 C.ar    1  UNL1        0.0091
     19 C         -11.3239  -17.8529   22.1497 C.ar    1  UNL1        0.0300
     20 C         -12.7944  -17.8686   22.4453 C.ar    1  UNL1        0.1672
     21 F         -13.7767  -17.4651   21.3860 F       1  UNL1       -0.2018
     22 C         -13.2825  -18.2878   23.8003 C.ar    1  UNL1        0.1696
     23 F         -14.7530  -18.3034   24.0959 F       1  UNL1       -0.2017
     24 C         -12.3002  -18.6913   24.8596 C.ar    1  UNL1        0.0612
     25 C         -10.8296  -18.6756   24.5640 C.ar    1  UNL1        0.1386
     26 F          -9.8473  -19.0791   25.6233 F       1  UNL1       -0.2044
@<TRIPOS>BOND
     1     2     1    1
     2     2     3    1
     3     3     4    1
     4     4     5   ar
     5     5     6   ar
     6     6     7   ar
     7     7     8   ar
     8     8     9   ar
     9     9    10   ar
    10    10    11    1
    11    10    12   ar
    12    12    13   ar
    13     5    14    1
    14    14    15    1
    15    15    18    1
    16    18    19   ar
    17    19    20   ar
    18    20    21    1
    19    20    22   ar
    20    22    23    1
    21    22    24   ar
    22    24    25   ar
    23    25    26    1
    24    15     2    1
    25    25    18   ar
    26    13     4   ar
    27    13     7   ar
    28     1    16    1
    29     1    17    1
@<TRIPOS>MOLECULE
*****
 26 29 0 0 0
SMALL
GASTEIGER

@<TRIPOS>ATOM
      1 N          -8.7370  -16.3769   24.2016 N.3     1  UNL1       -0.3204
      2 C          -8.2613  -17.4323   23.2476 C.3     1  UNL1        0.0783
      3 C          -6.7993  -17.5578   22.9361 C.3     1  UNL1        0.1229
      4 N          -6.3237  -18.6131   21.9822 N.ar    1  UNL1       -0.3134
      5 C          -7.3099  -19.5430   21.3398 C.ar    1  UNL1        0.1207
      6 N          -6.5507  -20.4786   20.4464 N.ar    1  UNL1       -0.2294
      7 C          -5.0953  -20.1271   20.5367 C.ar    1  UNL1        0.1176
      8 C          -3.8797  -20.7079   19.8772 C.ar    1  UNL1        0.1218
      9 N          -2.5237  -20.1356   20.1669 N.ar    1  UNL1       -0.2148
     10 C          -2.3834  -18.9826   21.1161 C.ar    1  UNL1        0.2239
     11 F          -1.0274  -18.4104   21.4057 F       1  UNL1       -0.1832
     12 C          -3.5990  -18.4019   21.7755 C.ar    1  UNL1        0.0684
     13 C          -4.9550  -18.9741   21.4858 C.ar    1  UNL1        0.0840
     14 C          -8.7718  -19.4175   21.6513 C.3     1  UNL1        0.0698
     15 C          -9.2475  -18.3622   22.6053 C.3     1  UNL1        0.0482
     16 H          -7.9386  -15.8400   24.5403 H       1  UNL1        0.1189
     17 H          -9.2085  -16.8193   24.9905 H       1  UNL1        0.1189
     18 C         -10.7095  -18.2367   22.9168 C.ar    1  UNL1        0.0091
     19 C         -11.2323  -18.6773   24.2519 C.ar    1  UNL1        0.0300
     20 C         -12.6942  -18.5518   24.5635 C.ar    1  UNL1        0.1672
     21 F         -13.2170  -18.9923   25.8986 F       1  UNL1       -0.2018
     22 C         -13.6332  -17.9859   23.5399 C.ar    1  UNL1        0.1696
     23 F         -15.0952  -17.8604   23.8514 F       1  UNL1       -0.2017
     24 C         -13.1104  -17.5453   22.2048 C.ar    1  UNL1        0.0612
     25 C         -11.6485  -17.6708   21.8932 C.ar    1  UNL1        0.1386
     26 F         -11.1257  -17.2303   20.5581 F       1  UNL1       -0.2044
@<TRIPOS>BOND
     1     2     1    1
     2     2     3    1
     3     3     4    1
     4     4     5   ar
     5     5     6   ar
     6     6     7   ar
     7     7     8   ar
     8     8     9   ar
     9     9    10   ar
    10    10    11    1
    11    10    12   ar
    12    12    13   ar
    13     5    14    1
    14    14    15    1
    15    15    18    1
    16    18    19   ar
    17    19    20   ar
    18    20    21    1
    19    20    22   ar
    20    22    23    1
    21    22    24   ar
    22    24    25   ar
    23    25    26    1
    24    15     2    1
    25    25    18   ar
    26    13     4   ar
    27    13     7   ar
    28     1    16    1
    29     1    17    1
@<TRIPOS>MOLECULE
*****
 26 29 0 0 0
SMALL
GASTEIGER

@<TRIPOS>ATOM
      1 N          -4.7943  -17.1689   23.2653 N.3     1  UNL1       -0.3204
      2 C          -5.8603  -17.7167   22.3632 C.3     1  UNL1        0.0783
      3 C          -7.3070  -17.5393   22.7178 C.3     1  UNL1        0.1229
      4 N          -8.3729  -18.0871   21.8157 N.ar    1  UNL1       -0.3134
      5 C          -7.9922  -18.8121   20.5590 C.ar    1  UNL1        0.1207
      6 N          -9.2542  -19.2395   19.8701 N.ar    1  UNL1       -0.2294
      7 C         -10.4149  -18.7787   20.7010 C.ar    1  UNL1        0.1176
      8 C         -11.8973  -18.9156   20.5180 C.ar    1  UNL1        0.1218
      9 N         -12.8351  -18.3402   21.5375 N.ar    1  UNL1       -0.2148
     10 C         -12.2904  -17.6279   22.7400 C.ar    1  UNL1        0.2239
     11 F         -13.2283  -17.0525   23.7595 F       1  UNL1       -0.1832
     12 C         -10.8080  -17.4910   22.9230 C.ar    1  UNL1        0.0684
     13 C          -9.8702  -18.0664   21.9035 C.ar    1  UNL1        0.0840
     14 C          -6.5455  -18.9894   20.2044 C.3     1  UNL1        0.0698
     15 C          -5.4796  -18.4417   21.1064 C.3     1  UNL1        0.0482
     16 H          -5.2291  -16.7107   24.0662 H       1  UNL1        0.1189
     17 H          -4.2292  -16.4924   22.7521 H       1  UNL1        0.1189
     18 C          -4.0329  -18.6190   20.7518 C.ar    1  UNL1        0.0091
     19 C          -3.4947  -18.0312   19.4811 C.ar    1  UNL1        0.0300
     20 C          -2.0480  -18.2085   19.1265 C.ar    1  UNL1        0.1672
     21 F          -1.5098  -17.6206   17.8558 F       1  UNL1       -0.2018
     22 C          -1.1397  -18.9737   20.0425 C.ar    1  UNL1        0.1696
     23 F           0.3070  -19.1510   19.6879 F       1  UNL1       -0.2017
     24 C          -1.6779  -19.5615   21.3132 C.ar    1  UNL1        0.0612
     25 C          -3.1245  -19.3842   21.6679 C.ar    1  UNL1        0.1386
     26 F          -3.6628  -19.9721   22.9386 F       1  UNL1       -0.2044
@<TRIPOS>BOND
     1     2     1    1
     2     2     3    1
     3     3     4    1
     4     4     5   ar
     5     5     6   ar
     6     6     7   ar
     7     7     8   ar
     8     8     9   ar
     9     9    10   ar
    10    10    11    1
    11    10    12   ar
    12    12    13   ar
    13     5    14    1
    14    14    15    1
    15    15    18    1
    16    18    19   ar
    17    19    20   ar
    18    20    21    1
    19    20    22   ar
    20    22    23    1
    21    22    24   ar
    22    24    25   ar
    23    25    26    1
    24    15     2    1
    25    25    18   ar
    26    13     4   ar
    27    13     7   ar
    28     1    16    1
    29     1    17    1
@<TRIPOS>MOLECULE
*****
 26 29 0 0 0
SMALL
GASTEIGER

@<TRIPOS>ATOM
      1 N         -13.7671   -4.4495   20.0701 N.3     1  UNL1       -0.3204
      2 C         -13.2674   -3.3288   19.2072 C.3     1  UNL1        0.0783
      3 C         -13.9012   -1.9723   19.2981 C.3     1  UNL1        0.1229
      4 N         -13.4015   -0.8517   18.4353 N.ar    1  UNL1       -0.3134
      5 C         -12.2681   -1.0876   17.4815 C.ar    1  UNL1        0.1207
      6 N         -11.9914    0.1997   16.7630 N.ar    1  UNL1       -0.2294
      7 C         -12.9539    1.2312   17.2726 C.ar    1  UNL1        0.1176
      8 C         -13.1493    2.6782   16.9291 C.ar    1  UNL1        0.1218
      9 N         -14.2163    3.4753   17.6192 N.ar    1  UNL1       -0.2148
     10 C         -15.0877    2.8255   18.6527 C.ar    1  UNL1        0.2239
     11 F         -16.1547    3.6227   19.3428 F       1  UNL1       -0.1832
     12 C         -14.8923    1.3785   18.9963 C.ar    1  UNL1        0.0684
     13 C         -13.8254    0.5814   18.3062 C.ar    1  UNL1        0.0840
     14 C         -11.6343   -2.4441   17.3906 C.3     1  UNL1        0.0698
     15 C         -12.1340   -3.5647   18.2534 C.3     1  UNL1        0.0482
     16 H         -14.5345   -4.1141   20.6523 H       1  UNL1        0.1189
     17 H         -13.0096   -4.7839   20.6656 H       1  UNL1        0.1189
     18 C         -11.5002   -4.9212   18.1625 C.ar    1  UNL1        0.0091
     19 C         -10.3715   -5.2848   19.0810 C.ar    1  UNL1        0.0300
     20 C          -9.7377   -6.6413   18.9901 C.ar    1  UNL1        0.1672
     21 F          -8.6090   -7.0049   19.9086 F       1  UNL1       -0.2018
     22 C         -10.2327   -7.6342   17.9806 C.ar    1  UNL1        0.1696
     23 F          -9.5990   -8.9907   17.8897 F       1  UNL1       -0.2017
     24 C         -11.3615   -7.2706   17.0621 C.ar    1  UNL1        0.0612
     25 C         -11.9952   -5.9141   17.1530 C.ar    1  UNL1        0.1386
     26 F         -13.1240   -5.5505   16.2345 F       1  UNL1       -0.2044
@<TRIPOS>BOND
     1     2     1    1
     2     2     3    1
     3     3     4    1
     4     4     5   ar
     5     5     6   ar
     6     6     7   ar
     7     7     8   ar
     8     8     9   ar
     9     9    10   ar
    10    10    11    1
    11    10    12   ar
    12    12    13   ar
    13     5    14    1
    14    14    15    1
    15    15    18    1
    16    18    19   ar
    17    19    20   ar
    18    20    21    1
    19    20    22   ar
    20    22    23    1
    21    22    24   ar
    22    24    25   ar
    23    25    26    1
    24    15     2    1
    25    25    18   ar
    26    13     4   ar
    27    13     7   ar
    28     1    16    1
    29     1    17    1
@<TRIPOS>MOLECULE
*****
 26 29 0 0 0
SMALL
GASTEIGER

@<TRIPOS>ATOM
      1 N           5.2732   -1.1131   24.2991 N.3     1  UNL1       -0.3204
      2 C           5.7877   -2.3517   24.9708 C.3     1  UNL1        0.0783
      3 C           5.9101   -2.3988   26.4651 C.3     1  UNL1        0.1229
      4 N           6.4246   -3.6373   27.1369 N.ar    1  UNL1       -0.3134
      5 C           6.8168   -4.8288   26.3144 C.ar    1  UNL1        0.1207
      6 N           7.2877   -5.9029   27.2496 N.ar    1  UNL1       -0.2294
      7 C           7.1865   -5.3752   28.6501 C.ar    1  UNL1        0.1176
      8 C           7.5112   -5.9888   29.9797 C.ar    1  UNL1        0.1218
      9 N           7.3024   -5.2023   31.2397 N.ar    1  UNL1       -0.2148
     10 C           6.7690   -3.8020   31.1701 C.ar    1  UNL1        0.2239
     11 F           6.5602   -3.0155   32.4302 F       1  UNL1       -0.1832
     12 C           6.4443   -3.1884   29.8404 C.ar    1  UNL1        0.0684
     13 C           6.6531   -3.9750   28.5804 C.ar    1  UNL1        0.0840
     14 C           6.6945   -4.7817   24.8201 C.3     1  UNL1        0.0698
     15 C           6.1800   -3.5432   24.1483 C.3     1  UNL1        0.0482
     16 H           5.0567   -0.4088   25.0044 H       1  UNL1        0.1189
     17 H           4.4290   -1.3377   23.7724 H       1  UNL1        0.1189
     18 C           6.0577   -3.4962   22.6540 C.ar    1  UNL1        0.0091
     19 C           4.7473   -3.8170   21.9983 C.ar    1  UNL1        0.0300
     20 C           4.6250   -3.7700   20.5040 C.ar    1  UNL1        0.1672
     21 F           3.3146   -4.0908   19.8483 F       1  UNL1       -0.2018
     22 C           5.8130   -3.4021   19.6656 C.ar    1  UNL1        0.1696
     23 F           5.6907   -3.3550   18.1713 F       1  UNL1       -0.2017
     24 C           7.1234   -3.0812   20.3213 C.ar    1  UNL1        0.0612
     25 C           7.2457   -3.1283   21.8156 C.ar    1  UNL1        0.1386
     26 F           8.5560   -2.8074   22.4713 F       1  UNL1       -0.2044
@<TRIPOS>BOND
     1     2     1    1
     2     2     3    1
     3     3     4    1
     4     4     5   ar
     5     5     6   ar
     6     6     7   ar
     7     7     8   ar
     8     8     9   ar
     9     9    10   ar
    10    10    11    1
    11    10    12   ar
    12    12    13   ar
    13     5    14    1
    14    14    15    1
    15    15    18    1
    16    18    19   ar
    17    19    20   ar
    18    20    21    1
    19    20    22   ar
    20    22    23    1
    21    22    24   ar
    22    24    25   ar
    23    25    26    1
    24    15     2    1
    25    25    18   ar
    26    13     4   ar
    27    13     7   ar
    28     1    16    1
    29     1    17    1
@<TRIPOS>MOLECULE
*****
 26 29 0 0 0
SMALL
GASTEIGER

@<TRIPOS>ATOM
      1 N           0.9705    0.4535   19.8474 N.3     1  UNL1       -0.3204
      2 C           1.3821    0.4321   21.2897 C.3     1  UNL1        0.0783
      3 C           0.5292    1.1065   22.3230 C.3     1  UNL1        0.1229
      4 N           0.9406    1.0852   23.7653 N.ar    1  UNL1       -0.3134
      5 C           2.2050    0.3894   24.1743 C.ar    1  UNL1        0.1207
      6 N           2.3533    0.5330   25.6600 N.ar    1  UNL1       -0.2294
      7 C           1.1806    1.3175   26.1693 C.ar    1  UNL1        0.1176
      8 C           0.7950    1.7653   27.5480 C.ar    1  UNL1        0.1218
      9 N          -0.4636    2.5542   27.7556 N.ar    1  UNL1       -0.2148
     10 C          -1.3367    2.8955   26.5846 C.ar    1  UNL1        0.2239
     11 F          -2.5955    3.6846   26.7924 F       1  UNL1       -0.1832
     12 C          -0.9511    2.4478   25.2060 C.ar    1  UNL1        0.0684
     13 C           0.3075    1.6588   24.9983 C.ar    1  UNL1        0.0840
     14 C           3.0579   -0.2851   23.1410 C.3     1  UNL1        0.0698
     15 C           2.6464   -0.2637   21.6987 C.3     1  UNL1        0.0482
     16 H           0.0936    0.9655   19.7516 H       1  UNL1        0.1189
     17 H           0.8439   -0.5028   19.5157 H       1  UNL1        0.1189
     18 C           3.4993   -0.9382   20.6654 C.ar    1  UNL1        0.0091
     19 C           3.1662   -2.3275   20.2085 C.ar    1  UNL1        0.0300
     20 C           4.0191   -3.0020   19.1752 C.ar    1  UNL1        0.1672
     21 F           3.6859   -4.3913   18.7183 F       1  UNL1       -0.2018
     22 C           5.2050   -2.2870   18.5988 C.ar    1  UNL1        0.1696
     23 F           6.0579   -2.9615   17.5655 F       1  UNL1       -0.2017
     24 C           5.5381   -0.8977   19.0556 C.ar    1  UNL1        0.0612
     25 C           4.6852   -0.2232   20.0890 C.ar    1  UNL1        0.1386
     26 F           5.0183    1.1661   20.5458 F       1  UNL1       -0.2044
@<TRIPOS>BOND
     1     2     1    1
     2     2     3    1
     3     3     4    1
     4     4     5   ar
     5     5     6   ar
     6     6     7   ar
     7     7     8   ar
     8     8     9   ar
     9     9    10   ar
    10    10    11    1
    11    10    12   ar
    12    12    13   ar
    13     5    14    1
    14    14    15    1
    15    15    18    1
    16    18    19   ar
    17    19    20   ar
    18    20    21    1
    19    20    22   ar
    20    22    23    1
    21    22    24   ar
    22    24    25   ar
    23    25    26    1
    24    15     2    1
    25    25    18   ar
    26    13     4   ar
    27    13     7   ar
    28     1    16    1
    29     1    17    1
@<TRIPOS>MOLECULE
*****
 26 29 0 0 0
SMALL
GASTEIGER

@<TRIPOS>ATOM
      1 N           4.3620   -0.0371   17.3878 N.3     1  UNL1       -0.3204
      2 C           3.2879    0.1956   18.4088 C.3     1  UNL1        0.0783
      3 C           2.2689    1.2749   18.1926 C.3     1  UNL1        0.1229
      4 N           1.1948    1.5077   19.2135 N.ar    1  UNL1       -0.3134
      5 C           1.1398    0.6611   20.4505 C.ar    1  UNL1        0.1207
      6 N          -0.0265    1.1199   21.2746 N.ar    1  UNL1       -0.2294
      7 C          -0.6924    2.2500   20.5469 C.ar    1  UNL1        0.1176
      8 C          -1.8884    3.0918   20.8797 C.ar    1  UNL1        0.1218
      9 N          -2.3296    4.1733   19.9386 N.ar    1  UNL1       -0.2148
     10 C          -1.5748    4.4129   18.6647 C.ar    1  UNL1        0.2239
     11 F          -2.0161    5.4944   17.7235 F       1  UNL1       -0.1832
     12 C          -0.3787    3.5711   18.3319 C.ar    1  UNL1        0.0684
     13 C           0.0625    2.4897   19.2730 C.ar    1  UNL1        0.0840
     14 C           2.1588   -0.4182   20.6667 C.3     1  UNL1        0.0698
     15 C           3.2329   -0.6509   19.6458 C.3     1  UNL1        0.0482
     16 H           4.2486    0.6230   16.6185 H       1  UNL1        0.1189
     17 H           4.2915   -0.9901   17.0313 H       1  UNL1        0.1189
     18 C           4.2519   -1.7302   19.8620 C.ar    1  UNL1        0.0091
     19 C           4.0546   -3.0826   19.2440 C.ar    1  UNL1        0.0300
     20 C           5.0737   -4.1619   19.4602 C.ar    1  UNL1        0.1672
     21 F           4.8764   -5.5144   18.8422 F       1  UNL1       -0.2018
     22 C           6.2900   -3.8887   20.2943 C.ar    1  UNL1        0.1696
     23 F           7.3090   -4.9680   20.5105 F       1  UNL1       -0.2017
     24 C           6.4873   -2.5363   20.9123 C.ar    1  UNL1        0.0612
     25 C           5.4682   -1.4570   20.6961 C.ar    1  UNL1        0.1386
     26 F           5.6655   -0.1045   21.3141 F       1  UNL1       -0.2044
@<TRIPOS>BOND
     1     2     1    1
     2     2     3    1
     3     3     4    1
     4     4     5   ar
     5     5     6   ar
     6     6     7   ar
     7     7     8   ar
     8     8     9   ar
     9     9    10   ar
    10    10    11    1
    11    10    12   ar
    12    12    13   ar
    13     5    14    1
    14    14    15    1
    15    15    18    1
    16    18    19   ar
    17    19    20   ar
    18    20    21    1
    19    20    22   ar
    20    22    23    1
    21    22    24   ar
    22    24    25   ar
    23    25    26    1
    24    15     2    1
    25    25    18   ar
    26    13     4   ar
    27    13     7   ar
    28     1    16    1
    29     1    17    1
@<TRIPOS>MOLECULE
*****
 26 29 0 0 0
SMALL
GASTEIGER

@<TRIPOS>ATOM
      1 N           5.1609   -1.2288   27.3991 N.3     1  UNL1       -0.3204
      2 C           5.3607   -2.0278   26.1454 C.3     1  UNL1        0.0783
      3 C           4.6197   -1.6586   24.8946 C.3     1  UNL1        0.1229
      4 N           4.8195   -2.4576   23.6409 N.ar    1  UNL1       -0.3134
      5 C           5.7604   -3.6258   23.6381 C.ar    1  UNL1        0.1207
      6 N           5.7540   -4.2228   22.2621 N.ar    1  UNL1       -0.2294
      7 C           4.8091   -3.4235   21.4144 C.ar    1  UNL1        0.1176
      8 C           4.4001   -3.5482   19.9767 C.ar    1  UNL1        0.1218
      9 N           3.4135   -2.5819   19.3912 N.ar    1  UNL1       -0.2148
     10 C           2.8360   -1.4909   20.2434 C.ar    1  UNL1        0.2239
     11 F           1.8493   -0.5246   19.6578 F       1  UNL1       -0.1832
     12 C           3.2450   -1.3662   21.6811 C.ar    1  UNL1        0.0684
     13 C           4.2316   -2.3326   22.2666 C.ar    1  UNL1        0.0840
     14 C           6.5014   -3.9951   24.8890 C.3     1  UNL1        0.0698
     15 C           6.3016   -3.1961   26.1426 C.3     1  UNL1        0.0482
     16 H           4.4930   -0.4786   27.2213 H       1  UNL1        0.1189
     17 H           6.0518   -0.8283   27.6927 H       1  UNL1        0.1189
     18 C           7.0426   -3.5653   27.3934 C.ar    1  UNL1        0.0091
     19 C           6.4487   -4.5534   28.3531 C.ar    1  UNL1        0.0300
     20 C           7.1897   -4.9226   29.6039 C.ar    1  UNL1        0.1672
     21 F           6.5957   -5.9107   30.5635 F       1  UNL1       -0.2018
     22 C           8.5246   -4.3038   29.8950 C.ar    1  UNL1        0.1696
     23 F           9.2657   -4.6730   31.1459 F       1  UNL1       -0.2017
     24 C           9.1186   -3.3157   28.9354 C.ar    1  UNL1        0.0612
     25 C           8.3776   -2.9465   27.6846 C.ar    1  UNL1        0.1386
     26 F           8.9715   -1.9584   26.7250 F       1  UNL1       -0.2044
@<TRIPOS>BOND
     1     2     1    1
     2     2     3    1
     3     3     4    1
     4     4     5   ar
     5     5     6   ar
     6     6     7   ar
     7     7     8   ar
     8     8     9   ar
     9     9    10   ar
    10    10    11    1
    11    10    12   ar
    12    12    13   ar
    13     5    14    1
    14    14    15    1
    15    15    18    1
    16    18    19   ar
    17    19    20   ar
    18    20    21    1
    19    20    22   ar
    20    22    23    1
    21    22    24   ar
    22    24    25   ar
    23    25    26    1
    24    15     2    1
    25    25    18   ar
    26    13     4   ar
    27    13     7   ar
    28     1    16    1
    29     1    17    1
@<TRIPOS>MOLECULE
*****
 26 29 0 0 0
SMALL
GASTEIGER

@<TRIPOS>ATOM
      1 N           9.4337   -2.9894   23.2197 N.3     1  UNL1       -0.3204
      2 C           8.1336   -3.0057   22.4715 C.3     1  UNL1        0.0783
      3 C           7.9821   -2.2030   21.2134 C.3     1  UNL1        0.1229
      4 N           6.6821   -2.2193   20.4653 N.ar    1  UNL1       -0.3134
      5 C           5.5336   -3.0383   20.9753 C.ar    1  UNL1        0.1207
      6 N           4.3817   -2.8595   20.0313 N.ar    1  UNL1       -0.2294
      7 C           4.8183   -1.9301   18.9378 C.ar    1  UNL1        0.1176
      8 C           4.1050   -1.3930   17.7326 C.ar    1  UNL1        0.1218
      9 N           4.8134   -0.4602   16.7957 N.ar    1  UNL1       -0.2148
     10 C           6.2352   -0.0645   17.0639 C.ar    1  UNL1        0.2239
     11 F           6.9437    0.8683   16.1269 F       1  UNL1       -0.1832
     12 C           6.9486   -0.6016   18.2691 C.ar    1  UNL1        0.0684
     13 C           6.2401   -1.5344   19.2061 C.ar    1  UNL1        0.0840
     14 C           5.6850   -3.8409   22.2334 C.3     1  UNL1        0.0698
     15 C           6.9850   -3.8247   22.9815 C.3     1  UNL1        0.0482
     16 H          10.0974   -2.3855   22.7348 H       1  UNL1        0.1189
     17 H           9.8092   -3.9365   23.2694 H       1  UNL1        0.1189
     18 C           7.1364   -4.6273   24.2396 C.ar    1  UNL1        0.0091
     19 C           7.7493   -5.9954   24.1872 C.ar    1  UNL1        0.0300
     20 C           7.9007   -6.7981   25.4453 C.ar    1  UNL1        0.1672
     21 F           8.5136   -8.1661   25.3930 F       1  UNL1       -0.2018
     22 C           7.4393   -6.2326   26.7558 C.ar    1  UNL1        0.1696
     23 F           7.5907   -7.0353   28.0139 F       1  UNL1       -0.2017
     24 C           6.8264   -4.8646   26.8081 C.ar    1  UNL1        0.0612
     25 C           6.6750   -4.0619   25.5500 C.ar    1  UNL1        0.1386
     26 F           6.0621   -2.6939   25.6024 F       1  UNL1       -0.2044
@<TRIPOS>BOND
     1     2     1    1
     2     2     3    1
     3     3     4    1
     4     4     5   ar
     5     5     6   ar
     6     6     7   ar
     7     7     8   ar
     8     8     9   ar
     9     9    10   ar
    10    10    11    1
    11    10    12   ar
    12    12    13   ar
    13     5    14    1
    14    14    15    1
    15    15    18    1
    16    18    19   ar
    17    19    20   ar
    18    20    21    1
    19    20    22   ar
    20    22    23    1
    21    22    24   ar
    22    24    25   ar
    23    25    26    1
    24    15     2    1
    25    25    18   ar
    26    13     4   ar
    27    13     7   ar
    28     1    16    1
    29     1    17    1
