@<TRIPOS>MOLECULE
*****
 31 34 0 0 0
SMALL
GASTEIGER

@<TRIPOS>ATOM
      1 C          -2.0860  -20.0547   20.4731 C.3     1  UNL1        0.2068
      2 C          -3.3649  -19.7418   19.7543 C.3     1  UNL1        0.0646
      3 C          -4.5651  -20.6218   19.9415 C.3     1  UNL1        0.0759
      4 C          -8.1735  -19.0686   22.1363 C.3     1  UNL1        0.0087
      5 C          -7.6952  -18.3760   20.8947 C.3     1  UNL1        0.0178
      6 C          -6.4924  -18.8937   20.1632 C.3     1  UNL1        0.0721
      7 N          -5.7679  -20.1041   20.6731 N.3     1  UNL1       -0.2726
      8 C          -6.2462  -20.7967   21.9146 C.3     1  UNL1        0.0721
      9 C          -7.4489  -20.2790   22.6462 C.3     1  UNL1        0.0178
     10 C          -9.3763  -18.5509   22.8679 C.3     1  UNL1        0.0475
     11 C         -11.8276  -16.1626   21.0371 C.ar    1  UNL1        0.1747
     12 N         -10.5653  -16.4029   21.8109 N.ar    1  UNL1       -0.2285
     13 C         -10.4783  -17.8698   22.1119 C.ar    1  UNL1        0.0776
     14 C         -11.6869  -18.5361   21.5241 C.ar    1  UNL1        0.0885
     15 N         -12.5208  -17.4809   20.8598 N.ar    1  UNL1       -0.3340
     16 H         -13.3734  -17.6279   20.3900 H       1  UNL1        0.1675
     17 O          -1.7230  -19.3033   21.7195 O.3     1  UNL1       -0.4754
     18 C          -2.6104  -18.2004   22.2156 C.ar    1  UNL1        0.1386
     19 C          -2.2921  -16.7734   21.8803 C.ar    1  UNL1        0.0382
     20 C          -3.1795  -15.6705   22.3763 C.ar    1  UNL1        0.0174
     21 C          -4.3852  -15.9946   23.2077 C.ar    1  UNL1        0.0448
     22 C          -4.7036  -17.4215   23.5430 C.ar    1  UNL1        0.0174
     23 C          -3.8161  -18.5245   23.0470 C.ar    1  UNL1        0.0382
     24 N          -5.2726  -14.8917   23.7038 N.pl3   1  UNL1       -0.3340
     25 H          -5.2025  -13.9904   23.3139 H       1  UNL1        0.1468
     26 C          -6.2670  -15.1620   24.7939 C.3     1  UNL1        0.0690
     27 C          -7.7178  -15.3418   24.4580 C.3     1  UNL1        0.0195
     28 C          -8.7121  -15.6121   25.5480 C.3     1  UNL1        0.0017
     29 C          -8.2556  -15.7026   26.9741 C.3     1  UNL1        0.0001
     30 C          -6.8048  -15.5228   27.3100 C.3     1  UNL1        0.0017
     31 C          -5.8105  -15.2525   26.2198 C.3     1  UNL1        0.0195
@<TRIPOS>BOND
     1    11    12   ar
     2    12    13   ar
     3    13    10    1
     4    10     4    1
     5     4     5    1
     6     5     6    1
     7     6     7    1
     8     7     3    1
     9     3     2    1
    10     2     1    1
    11     1    17    1
    12    17    18    1
    13    18    19   ar
    14    19    20   ar
    15    20    21   ar
    16    21    24    1
    17    24    26    1
    18    26    27    1
    19    27    28    1
    20    28    29    1
    21    29    30    1
    22    30    31    1
    23    21    22   ar
    24    22    23   ar
    25     7     8    1
    26     8     9    1
    27    13    14   ar
    28    14    15   ar
    29    15    11   ar
    30     9     4    1
    31    23    18   ar
    32    31    26    1
    33    24    25    1
    34    15    16    1
@<TRIPOS>MOLECULE
*****
 31 34 0 0 0
SMALL
GASTEIGER

@<TRIPOS>ATOM
      1 C          -3.4454  -20.5965   20.2375 C.3     1  UNL1        0.2068
      2 C          -4.9294  -20.4629   20.4109 C.3     1  UNL1        0.0646
      3 C          -5.6657  -19.3438   19.7360 C.3     1  UNL1        0.0759
      4 C         -10.0243  -18.6609   20.6223 C.3     1  UNL1        0.0087
      5 C          -9.6195  -19.4409   19.4068 C.3     1  UNL1        0.0178
      6 C          -8.1666  -19.6686   19.1113 C.3     1  UNL1        0.0721
      7 N          -7.1186  -19.1162   20.0314 N.3     1  UNL1       -0.2726
      8 C          -7.5235  -18.3362   21.2470 C.3     1  UNL1        0.0721
      9 C          -8.9764  -18.1085   21.5424 C.3     1  UNL1        0.0178
     10 C         -11.4773  -18.4333   20.9178 C.3     1  UNL1        0.0475
     11 C         -12.1523  -18.9591   24.7037 C.ar    1  UNL1        0.1747
     12 N         -11.3322  -19.2066   23.4723 N.ar    1  UNL1       -0.2285
     13 C         -11.9682  -18.4640   22.3348 C.ar    1  UNL1        0.0776
     14 C         -13.1814  -17.7576   22.8631 C.ar    1  UNL1        0.0885
     15 N         -13.2952  -18.0635   24.3271 N.ar    1  UNL1       -0.3340
     16 H         -13.9968  -17.7344   24.9343 H       1  UNL1        0.1675
     17 O          -2.5190  -19.6628   20.9585 O.3     1  UNL1       -0.4754
     18 C          -3.0756  -18.5145   21.7469 C.ar    1  UNL1        0.1386
     19 C          -4.0988  -18.7641   22.8150 C.ar    1  UNL1        0.0382
     20 C          -4.6554  -17.6158   23.6034 C.ar    1  UNL1        0.0174
     21 C          -4.1888  -16.2179   23.3237 C.ar    1  UNL1        0.0448
     22 C          -3.1656  -15.9683   22.2557 C.ar    1  UNL1        0.0174
     23 C          -2.6090  -17.1167   21.4673 C.ar    1  UNL1        0.0382
     24 N          -4.7454  -15.0696   24.1121 N.pl3   1  UNL1       -0.3340
     25 H          -4.3319  -14.1788   24.0431 H       1  UNL1        0.1468
     26 C          -5.9320  -15.2785   25.0057 C.3     1  UNL1        0.0690
     27 C          -5.7328  -15.5215   26.4724 C.3     1  UNL1        0.0195
     28 C          -6.9193  -15.7304   27.3660 C.3     1  UNL1        0.0017
     29 C          -8.3051  -15.6963   26.7928 C.3     1  UNL1        0.0001
     30 C          -8.5043  -15.4533   25.3261 C.3     1  UNL1        0.0017
     31 C          -7.3177  -15.2444   24.4325 C.3     1  UNL1        0.0195
@<TRIPOS>BOND
     1    11    12   ar
     2    12    13   ar
     3    13    10    1
     4    10     4    1
     5     4     5    1
     6     5     6    1
     7     6     7    1
     8     7     3    1
     9     3     2    1
    10     2     1    1
    11     1    17    1
    12    17    18    1
    13    18    19   ar
    14    19    20   ar
    15    20    21   ar
    16    21    24    1
    17    24    26    1
    18    26    27    1
    19    27    28    1
    20    28    29    1
    21    29    30    1
    22    30    31    1
    23    21    22   ar
    24    22    23   ar
    25     7     8    1
    26     8     9    1
    27    13    14   ar
    28    14    15   ar
    29    15    11   ar
    30     9     4    1
    31    23    18   ar
    32    31    26    1
    33    24    25    1
    34    15    16    1
@<TRIPOS>MOLECULE
*****
 31 34 0 0 0
SMALL
GASTEIGER

@<TRIPOS>ATOM
      1 C           7.9097   -4.1247   21.7898 C.3     1  UNL1        0.2068
      2 C           7.7796   -3.4014   23.0975 C.3     1  UNL1        0.0646
      3 C           7.5057   -1.9268   23.1149 C.3     1  UNL1        0.0759
      4 C           3.3862   -0.3920   22.1537 C.3     1  UNL1        0.0087
      5 C           3.5604   -1.4989   23.1508 C.3     1  UNL1        0.0178
      6 C           4.9335   -2.0105   23.4712 C.3     1  UNL1        0.0721
      7 N           6.1325   -1.4152   22.7945 N.3     1  UNL1       -0.2726
      8 C           5.9583   -0.3082   21.7973 C.3     1  UNL1        0.0721
      9 C           4.5852    0.2033   21.4769 C.3     1  UNL1        0.0178
     10 C           2.0130    0.1196   21.8332 C.3     1  UNL1        0.0475
     11 C           0.5119    3.3310   23.4141 C.ar    1  UNL1        0.1747
     12 N           1.1385    2.6095   22.2578 N.ar    1  UNL1       -0.2285
     13 C           1.3962    1.1934   22.6797 C.ar    1  UNL1        0.0776
     14 C           0.9290    1.0396   24.0968 C.ar    1  UNL1        0.0885
     15 N           0.3824    2.3606   24.5507 N.ar    1  UNL1       -0.3340
     16 H           0.0050    2.5565   25.4386 H       1  UNL1        0.1675
     17 O           6.6857   -4.6406   21.0930 O.3     1  UNL1       -0.4754
     18 C           5.9082   -3.7411   20.1785 C.ar    1  UNL1        0.1386
     19 C           6.6303   -2.8308   19.2298 C.ar    1  UNL1        0.0382
     20 C           5.8528   -1.9313   18.3153 C.ar    1  UNL1        0.0174
     21 C           4.3532   -1.9421   18.3495 C.ar    1  UNL1        0.0448
     22 C           3.6311   -2.8523   19.2981 C.ar    1  UNL1        0.0174
     23 C           4.4086   -3.7519   20.2127 C.ar    1  UNL1        0.0382
     24 N           3.5757   -1.0426   17.4350 N.pl3   1  UNL1       -0.3340
     25 H           3.3645   -1.3355   16.5191 H       1  UNL1        0.1468
     26 C           3.1199    0.3032   17.9159 C.3     1  UNL1        0.0690
     27 C           1.6631    0.5550   18.1697 C.3     1  UNL1        0.0195
     28 C           1.2073    1.9007   18.6507 C.3     1  UNL1        0.0017
     29 C           2.2083    2.9946   18.8778 C.3     1  UNL1        0.0001
     30 C           3.6651    2.7427   18.6240 C.3     1  UNL1        0.0017
     31 C           4.1209    1.3970   18.1430 C.3     1  UNL1        0.0195
@<TRIPOS>BOND
     1    11    12   ar
     2    12    13   ar
     3    13    10    1
     4    10     4    1
     5     4     5    1
     6     5     6    1
     7     6     7    1
     8     7     3    1
     9     3     2    1
    10     2     1    1
    11     1    17    1
    12    17    18    1
    13    18    19   ar
    14    19    20   ar
    15    20    21   ar
    16    21    24    1
    17    24    26    1
    18    26    27    1
    19    27    28    1
    20    28    29    1
    21    29    30    1
    22    30    31    1
    23    21    22   ar
    24    22    23   ar
    25     7     8    1
    26     8     9    1
    27    13    14   ar
    28    14    15   ar
    29    15    11   ar
    30     9     4    1
    31    23    18   ar
    32    31    26    1
    33    24    25    1
    34    15    16    1
@<TRIPOS>MOLECULE
*****
 31 34 0 0 0
SMALL
GASTEIGER

@<TRIPOS>ATOM
      1 C           8.0280   -4.3655   22.1776 C.3     1  UNL1        0.2068
      2 C           7.6530   -4.9387   23.5122 C.3     1  UNL1        0.0646
      3 C           6.7030   -4.1985   24.4062 C.3     1  UNL1        0.0759
      4 C           4.5106   -0.5857   22.8600 C.3     1  UNL1        0.0087
      5 C           3.9481   -1.9577   22.6342 C.3     1  UNL1        0.0178
      6 C           4.6789   -3.1620   23.1496 C.3     1  UNL1        0.0721
      7 N           5.9721   -2.9942   23.8908 N.3     1  UNL1       -0.2726
      8 C           6.5346   -1.6221   24.1165 C.3     1  UNL1        0.0721
      9 C           5.8038   -0.4178   23.6011 C.3     1  UNL1        0.0178
     10 C           3.7797    0.6187   22.3446 C.3     1  UNL1        0.0475
     11 C           0.7896    2.6076   23.8171 C.ar    1  UNL1        0.1747
     12 N           1.8892    2.4503   22.8091 N.ar    1  UNL1       -0.2285
     13 C           2.6101    1.1688   23.1057 C.ar    1  UNL1        0.0776
     14 C           1.9561    0.5341   24.2970 C.ar    1  UNL1        0.0885
     15 N           0.8309    1.4233   24.7367 N.ar    1  UNL1       -0.3340
     16 H           0.2258    1.2585   25.4956 H       1  UNL1        0.1675
     17 O           7.2759   -4.7768   20.9467 O.3     1  UNL1       -0.4754
     18 C           6.4263   -3.7781   20.2182 C.ar    1  UNL1        0.1386
     19 C           6.7987   -2.3250   20.2315 C.ar    1  UNL1        0.0382
     20 C           5.9491   -1.3263   19.5031 C.ar    1  UNL1        0.0174
     21 C           4.7270   -1.7806   18.7613 C.ar    1  UNL1        0.0448
     22 C           4.3546   -3.2335   18.7480 C.ar    1  UNL1        0.0174
     23 C           5.2042   -4.2323   19.4765 C.ar    1  UNL1        0.0382
     24 N           3.8774   -0.7819   18.0329 N.pl3   1  UNL1       -0.3340
     25 H           4.1052   -0.5209   17.1114 H       1  UNL1        0.1468
     26 C           2.6806   -0.1808   18.7085 C.3     1  UNL1        0.0690
     27 C           1.9017   -0.9834   19.7081 C.3     1  UNL1        0.0195
     28 C           0.7050   -0.3824   20.3837 C.3     1  UNL1        0.0017
     29 C           0.2870    1.0214   20.0598 C.3     1  UNL1        0.0001
     30 C           1.0659    1.8240   19.0602 C.3     1  UNL1        0.0017
     31 C           2.2627    1.2229   18.3845 C.3     1  UNL1        0.0195
@<TRIPOS>BOND
     1    11    12   ar
     2    12    13   ar
     3    13    10    1
     4    10     4    1
     5     4     5    1
     6     5     6    1
     7     6     7    1
     8     7     3    1
     9     3     2    1
    10     2     1    1
    11     1    17    1
    12    17    18    1
    13    18    19   ar
    14    19    20   ar
    15    20    21   ar
    16    21    24    1
    17    24    26    1
    18    26    27    1
    19    27    28    1
    20    28    29    1
    21    29    30    1
    22    30    31    1
    23    21    22   ar
    24    22    23   ar
    25     7     8    1
    26     8     9    1
    27    13    14   ar
    28    14    15   ar
    29    15    11   ar
    30     9     4    1
    31    23    18   ar
    32    31    26    1
    33    24    25    1
    34    15    16    1
@<TRIPOS>MOLECULE
*****
 31 34 0 0 0
SMALL
GASTEIGER

@<TRIPOS>ATOM
      1 C           4.7363   -2.1944   17.8836 C.3     1  UNL1        0.2068
      2 C           3.9129   -0.9408   17.9063 C.3     1  UNL1        0.0646
      3 C           4.2611    0.1682   18.8544 C.3     1  UNL1        0.0759
      4 C           3.8010   -0.4360   23.2898 C.3     1  UNL1        0.0087
      5 C           5.1560   -0.1651   22.7064 C.3     1  UNL1        0.0178
      6 C           5.3094    0.0363   21.2280 C.3     1  UNL1        0.0721
      7 N           4.1077   -0.0332   20.3329 N.3     1  UNL1       -0.2726
      8 C           2.7526   -0.3042   20.9163 C.3     1  UNL1        0.0721
      9 C           2.5993   -0.5056   22.3948 C.3     1  UNL1        0.0178
     10 C           3.6475   -0.6374   24.7684 C.3     1  UNL1        0.0475
     11 C           6.6968   -1.6949   26.9245 C.ar    1  UNL1        0.1747
     12 N           5.5181   -2.0404   26.0635 N.ar    1  UNL1       -0.2285
     13 C           4.8630   -0.7596   25.6387 C.ar    1  UNL1        0.0776
     14 C           5.6369    0.3775   26.2372 C.ar    1  UNL1        0.0885
     15 N           6.7702   -0.2005   27.0319 N.ar    1  UNL1       -0.3340
     16 H           7.4439    0.3111   27.5355 H       1  UNL1        0.1675
     17 O           4.4058   -3.3257   18.8114 O.3     1  UNL1       -0.4754
     18 C           5.1109   -3.4446   20.1300 C.ar    1  UNL1        0.1386
     19 C           4.3228   -3.6909   21.3823 C.ar    1  UNL1        0.0382
     20 C           5.0279   -3.8098   22.7009 C.ar    1  UNL1        0.0174
     21 C           6.5210   -3.6825   22.7672 C.ar    1  UNL1        0.0448
     22 C           7.3090   -3.4363   21.5150 C.ar    1  UNL1        0.0174
     23 C           6.6040   -3.3173   20.1963 C.ar    1  UNL1        0.0382
     24 N           7.2260   -3.8014   24.0858 N.pl3   1  UNL1       -0.3340
     25 H           7.5684   -2.9953   24.5354 H       1  UNL1        0.1468
     26 C           7.4094   -5.1486   24.7195 C.3     1  UNL1        0.0690
     27 C           8.1005   -6.2449   23.9642 C.3     1  UNL1        0.0195
     28 C           8.2839   -7.5921   24.5978 C.3     1  UNL1        0.0017
     29 C           7.7761   -7.8430   25.9868 C.3     1  UNL1        0.0001
     30 C           7.0849   -6.7468   26.7421 C.3     1  UNL1        0.0017
     31 C           6.9016   -5.3995   26.1084 C.3     1  UNL1        0.0195
@<TRIPOS>BOND
     1    11    12   ar
     2    12    13   ar
     3    13    10    1
     4    10     4    1
     5     4     5    1
     6     5     6    1
     7     6     7    1
     8     7     3    1
     9     3     2    1
    10     2     1    1
    11     1    17    1
    12    17    18    1
    13    18    19   ar
    14    19    20   ar
    15    20    21   ar
    16    21    24    1
    17    24    26    1
    18    26    27    1
    19    27    28    1
    20    28    29    1
    21    29    30    1
    22    30    31    1
    23    21    22   ar
    24    22    23   ar
    25     7     8    1
    26     8     9    1
    27    13    14   ar
    28    14    15   ar
    29    15    11   ar
    30     9     4    1
    31    23    18   ar
    32    31    26    1
    33    24    25    1
    34    15    16    1
@<TRIPOS>MOLECULE
*****
 31 34 0 0 0
SMALL
GASTEIGER

@<TRIPOS>ATOM
      1 C           4.7039   -0.7005   17.1090 C.3     1  UNL1        0.2068
      2 C           3.5387    0.0333   17.7039 C.3     1  UNL1        0.0646
      3 C           3.6933    0.7519   19.0114 C.3     1  UNL1        0.0759
      4 C           4.6505   -1.5613   22.7507 C.3     1  UNL1        0.0087
      5 C           3.3848   -1.8442   21.9972 C.3     1  UNL1        0.0178
      6 C           3.0658   -1.0732   20.7507 C.3     1  UNL1        0.0721
      7 N           4.0124   -0.0191   20.2579 N.3     1  UNL1       -0.2726
      8 C           5.2781    0.2639   21.0115 C.3     1  UNL1        0.0721
      9 C           5.5971   -0.5072   22.2579 C.3     1  UNL1        0.0178
     10 C           4.9696   -2.3323   23.9972 C.3     1  UNL1        0.0475
     11 C           4.8446   -1.1943   27.7059 C.ar    1  UNL1        0.1747
     12 N           5.4543   -2.0124   26.6063 N.ar    1  UNL1       -0.2285
     13 C           4.6970   -1.7286   25.3430 C.ar    1  UNL1        0.0776
     14 C           3.6193   -0.7352   25.6618 C.ar    1  UNL1        0.0885
     15 N           3.7105   -0.4050   27.1221 N.ar    1  UNL1       -0.3340
     16 H           3.1282    0.2201   27.6115 H       1  UNL1        0.1675
     17 O           4.9507   -2.1351   17.4708 O.3     1  UNL1       -0.4754
     18 C           5.9183   -2.4768   18.5648 C.ar    1  UNL1        0.1386
     19 C           7.2130   -1.7283   18.6819 C.ar    1  UNL1        0.0382
     20 C           8.1806   -2.0700   19.7759 C.ar    1  UNL1        0.0174
     21 C           7.8536   -3.1602   20.7530 C.ar    1  UNL1        0.0448
     22 C           6.5590   -3.9087   20.6359 C.ar    1  UNL1        0.0174
     23 C           5.5913   -3.5670   19.5419 C.ar    1  UNL1        0.0382
     24 N           8.8212   -3.5019   21.8470 N.pl3   1  UNL1       -0.3340
     25 H           9.6073   -2.9307   22.0050 H       1  UNL1        0.1468
     26 C           8.5910   -4.7139   22.7003 C.3     1  UNL1        0.0690
     27 C           9.0740   -6.0575   22.2405 C.3     1  UNL1        0.0195
     28 C           8.8439   -7.2695   23.0938 C.3     1  UNL1        0.0017
     29 C           8.1308   -7.1380   24.4069 C.3     1  UNL1        0.0001
     30 C           7.6477   -5.7943   24.8666 C.3     1  UNL1        0.0017
     31 C           7.8779   -4.5823   24.0133 C.3     1  UNL1        0.0195
@<TRIPOS>BOND
     1    11    12   ar
     2    12    13   ar
     3    13    10    1
     4    10     4    1
     5     4     5    1
     6     5     6    1
     7     6     7    1
     8     7     3    1
     9     3     2    1
    10     2     1    1
    11     1    17    1
    12    17    18    1
    13    18    19   ar
    14    19    20   ar
    15    20    21   ar
    16    21    24    1
    17    24    26    1
    18    26    27    1
    19    27    28    1
    20    28    29    1
    21    29    30    1
    22    30    31    1
    23    21    22   ar
    24    22    23   ar
    25     7     8    1
    26     8     9    1
    27    13    14   ar
    28    14    15   ar
    29    15    11   ar
    30     9     4    1
    31    23    18   ar
    32    31    26    1
    33    24    25    1
    34    15    16    1
@<TRIPOS>MOLECULE
*****
 31 34 0 0 0
SMALL
GASTEIGER

@<TRIPOS>ATOM
      1 C          -1.0883    3.9072   20.8155 C.3     1  UNL1        0.2068
      2 C          -1.0513    4.5356   22.1770 C.3     1  UNL1        0.0646
      3 C           0.1971    4.4584   23.0050 C.3     1  UNL1        0.0759
      4 C           2.4824    0.5912   23.2748 C.3     1  UNL1        0.0087
      5 C           3.0531    1.7478   22.5089 C.3     1  UNL1        0.0178
      6 C           2.2914    3.0368   22.4190 C.3     1  UNL1        0.0721
      7 N           0.9589    3.1693   23.0949 N.3     1  UNL1       -0.2726
      8 C           0.3881    2.0127   23.8608 C.3     1  UNL1        0.0721
      9 C           1.1498    0.7237   23.9507 C.3     1  UNL1        0.0178
     10 C           3.2441   -0.6979   23.3647 C.3     1  UNL1        0.0475
     11 C           4.2801   -1.3286   27.0517 C.ar    1  UNL1        0.1747
     12 N           3.4355   -0.6268   26.0299 N.ar    1  UNL1       -0.2285
     13 C           3.8333   -1.1311   24.6743 C.ar    1  UNL1        0.0776
     14 C           4.9237   -2.1445   24.8584 C.ar    1  UNL1        0.0885
     15 N           5.1999   -2.2667   26.3277 N.ar    1  UNL1       -0.3340
     16 H           5.8676   -2.8585   26.7438 H       1  UNL1        0.1675
     17 O          -1.2141    2.4187   20.6797 O.3     1  UNL1       -0.4754
     18 C          -0.0803    1.6192   20.1092 C.ar    1  UNL1        0.1386
     19 C           0.8320    2.2335   19.0892 C.ar    1  UNL1        0.0382
     20 C           1.9657    1.4341   18.5187 C.ar    1  UNL1        0.0174
     21 C           2.1873    0.0203   18.9683 C.ar    1  UNL1        0.0448
     22 C           1.2751   -0.5940   19.9883 C.ar    1  UNL1        0.0174
     23 C           0.1413    0.2054   20.5588 C.ar    1  UNL1        0.0382
     24 N           3.3211   -0.7791   18.3979 N.pl3   1  UNL1       -0.3340
     25 H           3.5934   -0.6480   17.4610 H       1  UNL1        0.1468
     26 C           4.0400   -1.7784   19.2551 C.3     1  UNL1        0.0690
     27 C           5.0933   -1.3193   20.2193 C.3     1  UNL1        0.0195
     28 C           5.8122   -2.3185   21.0764 C.3     1  UNL1        0.0017
     29 C           5.4778   -3.7769   20.9694 C.3     1  UNL1        0.0001
     30 C           4.4245   -4.2360   20.0051 C.3     1  UNL1        0.0017
     31 C           3.7056   -3.2367   19.1480 C.3     1  UNL1        0.0195
@<TRIPOS>BOND
     1    11    12   ar
     2    12    13   ar
     3    13    10    1
     4    10     4    1
     5     4     5    1
     6     5     6    1
     7     6     7    1
     8     7     3    1
     9     3     2    1
    10     2     1    1
    11     1    17    1
    12    17    18    1
    13    18    19   ar
    14    19    20   ar
    15    20    21   ar
    16    21    24    1
    17    24    26    1
    18    26    27    1
    19    27    28    1
    20    28    29    1
    21    29    30    1
    22    30    31    1
    23    21    22   ar
    24    22    23   ar
    25     7     8    1
    26     8     9    1
    27    13    14   ar
    28    14    15   ar
    29    15    11   ar
    30     9     4    1
    31    23    18   ar
    32    31    26    1
    33    24    25    1
    34    15    16    1
@<TRIPOS>MOLECULE
*****
 31 34 0 0 0
SMALL
GASTEIGER

@<TRIPOS>ATOM
      1 C           7.3650   -4.3161   22.6117 C.3     1  UNL1        0.2068
      2 C           6.1945   -4.1632   23.5373 C.3     1  UNL1        0.0646
      3 C           6.1032   -2.9688   24.4401 C.3     1  UNL1        0.0759
      4 C           2.6249   -0.1366   24.0796 C.3     1  UNL1        0.0087
      5 C           3.1355   -0.8555   22.8662 C.3     1  UNL1        0.0178
      6 C           4.2949   -1.7996   22.9864 C.3     1  UNL1        0.0721
      7 N           4.9437   -2.0247   24.3199 N.3     1  UNL1       -0.2726
      8 C           4.4331   -1.3058   25.5333 C.3     1  UNL1        0.0721
      9 C           3.2737   -0.3617   25.4132 C.3     1  UNL1        0.0178
     10 C           1.4654    0.8075   23.9595 C.3     1  UNL1        0.0475
     11 C          -0.2495    2.2223   27.1410 C.ar    1  UNL1        0.1747
     12 N          -0.1201    1.1691   26.0808 N.ar    1  UNL1       -0.2285
     13 C           0.9935    1.5724   25.1604 C.ar    1  UNL1        0.0776
     14 C           1.5524    2.8748   25.6517 C.ar    1  UNL1        0.0885
     15 N           0.7842    3.2765   26.8758 N.ar    1  UNL1       -0.3340
     16 H           0.9323    4.0893   27.4112 H       1  UNL1        0.1675
     17 O           7.1380   -4.5412   21.1462 O.3     1  UNL1       -0.4754
     18 C           6.2424   -3.6173   20.3754 C.ar    1  UNL1        0.1386
     19 C           4.9764   -4.1383   19.7622 C.ar    1  UNL1        0.0382
     20 C           4.0809   -3.2144   18.9914 C.ar    1  UNL1        0.0174
     21 C           4.4512   -1.7694   18.8337 C.ar    1  UNL1        0.0448
     22 C           5.7170   -1.2484   19.4469 C.ar    1  UNL1        0.0174
     23 C           6.6127   -2.1723   20.2177 C.ar    1  UNL1        0.0382
     24 N           3.5556   -0.8455   18.0629 N.pl3   1  UNL1       -0.3340
     25 H           3.6910   -0.7220   17.0956 H       1  UNL1        0.1468
     26 C           2.4535   -0.1096   18.7659 C.3     1  UNL1        0.0690
     27 C           1.6071   -0.8184   19.7813 C.3     1  UNL1        0.0195
     28 C           0.5051   -0.0826   20.4842 C.3     1  UNL1        0.0017
     29 C           0.2495    1.3621   20.1718 C.3     1  UNL1        0.0001
     30 C           1.0959    2.0709   19.1563 C.3     1  UNL1        0.0017
     31 C           2.1980    1.3350   18.4534 C.3     1  UNL1        0.0195
@<TRIPOS>BOND
     1    11    12   ar
     2    12    13   ar
     3    13    10    1
     4    10     4    1
     5     4     5    1
     6     5     6    1
     7     6     7    1
     8     7     3    1
     9     3     2    1
    10     2     1    1
    11     1    17    1
    12    17    18    1
    13    18    19   ar
    14    19    20   ar
    15    20    21   ar
    16    21    24    1
    17    24    26    1
    18    26    27    1
    19    27    28    1
    20    28    29    1
    21    29    30    1
    22    30    31    1
    23    21    22   ar
    24    22    23   ar
    25     7     8    1
    26     8     9    1
    27    13    14   ar
    28    14    15   ar
    29    15    11   ar
    30     9     4    1
    31    23    18   ar
    32    31    26    1
    33    24    25    1
    34    15    16    1
@<TRIPOS>MOLECULE
*****
 31 34 0 0 0
SMALL
GASTEIGER

@<TRIPOS>ATOM
      1 C           8.3289   -4.1256   24.9197 C.3     1  UNL1        0.2068
      2 C           8.1045   -5.3667   25.7318 C.3     1  UNL1        0.0646
      3 C           6.8487   -5.5186   26.5380 C.3     1  UNL1        0.0759
      4 C           6.7397   -4.1282   30.8164 C.3     1  UNL1        0.0087
      5 C           7.1476   -5.5355   30.4953 C.3     1  UNL1        0.0178
      6 C           7.1840   -5.9990   29.0692 C.3     1  UNL1        0.0721
      7 N           6.8124   -5.0551   27.9642 N.3     1  UNL1       -0.2726
      8 C           6.4045   -3.6478   28.2853 C.3     1  UNL1        0.0721
      9 C           6.3682   -3.1844   29.7114 C.3     1  UNL1        0.0178
     10 C           6.7034   -3.6647   32.2426 C.3     1  UNL1        0.0475
     11 C           5.2767   -0.1570   33.0946 C.ar    1  UNL1        0.1747
     12 N           6.4126   -1.0434   32.6771 N.ar    1  UNL1       -0.2285
     13 C           5.9028   -2.4528   32.6172 C.ar    1  UNL1        0.0776
     14 C           4.4519   -2.4375   32.9975 C.ar    1  UNL1        0.0885
     15 N           4.0649   -1.0187   33.2926 N.ar    1  UNL1       -0.3340
     16 H           3.1724   -0.7076   33.5678 H       1  UNL1        0.1675
     17 O           8.4676   -4.2195   23.4292 O.3     1  UNL1       -0.4754
     18 C           7.2639   -4.0445   22.5514 C.ar    1  UNL1        0.1386
     19 C           7.4108   -4.0893   21.0593 C.ar    1  UNL1        0.0382
     20 C           6.2071   -3.9143   20.1816 C.ar    1  UNL1        0.0174
     21 C           4.8565   -3.6943   20.7959 C.ar    1  UNL1        0.0448
     22 C           4.7096   -3.6494   22.2880 C.ar    1  UNL1        0.0174
     23 C           5.9133   -3.8245   23.1658 C.ar    1  UNL1        0.0382
     24 N           3.6528   -3.5193   19.9182 N.pl3   1  UNL1       -0.3340
     25 H           3.0710   -4.2887   19.7214 H       1  UNL1        0.1468
     26 C           3.3356   -2.1719   19.3403 C.3     1  UNL1        0.0690
     27 C           2.3314   -1.2843   20.0140 C.3     1  UNL1        0.0195
     28 C           2.0141    0.0630   19.4362 C.3     1  UNL1        0.0017
     29 C           2.7010    0.5229   18.1845 C.3     1  UNL1        0.0001
     30 C           3.7052   -0.3646   17.5107 C.3     1  UNL1        0.0017
     31 C           4.0225   -1.7120   18.0886 C.3     1  UNL1        0.0195
@<TRIPOS>BOND
     1    11    12   ar
     2    12    13   ar
     3    13    10    1
     4    10     4    1
     5     4     5    1
     6     5     6    1
     7     6     7    1
     8     7     3    1
     9     3     2    1
    10     2     1    1
    11     1    17    1
    12    17    18    1
    13    18    19   ar
    14    19    20   ar
    15    20    21   ar
    16    21    24    1
    17    24    26    1
    18    26    27    1
    19    27    28    1
    20    28    29    1
    21    29    30    1
    22    30    31    1
    23    21    22   ar
    24    22    23   ar
    25     7     8    1
    26     8     9    1
    27    13    14   ar
    28    14    15   ar
    29    15    11   ar
    30     9     4    1
    31    23    18   ar
    32    31    26    1
    33    24    25    1
    34    15    16    1
