@<TRIPOS>MOLECULE
*****
 37 41 0 0 0
SMALL
GASTEIGER

@<TRIPOS>ATOM
      1 O           8.4412   -3.7197   29.4595 O.3     1  UNL1       -0.4535
      2 C           5.9615   -1.8692   32.7270 C.ar    1  UNL1        0.0536
      3 C           6.8555   -1.0081   31.8848 C.ar    1  UNL1        0.0076
      4 C           7.6820   -1.6249   30.7957 C.ar    1  UNL1        0.0376
      5 C           7.6147   -3.1028   30.5486 C.ar    1  UNL1        0.1453
      6 C           6.7206   -3.9640   31.3908 C.ar    1  UNL1        0.0376
      7 C           5.8941   -3.3471   32.4800 C.ar    1  UNL1        0.0076
      8 O           3.9037   -1.9516   34.3108 O.2     1  UNL1       -0.2701
      9 C           5.1349   -1.2523   33.8162 C.2     1  UNL1        0.2458
     10 N           5.5398    0.0640   34.4106 N.am    1  UNL1       -0.3008
     11 H           6.3480    0.5230   34.0860 H       1  UNL1        0.1497
     12 C           4.7133    0.6810   35.4999 C.3     1  UNL1        0.0955
     13 C           5.0008    0.3552   36.9355 C.3     1  UNL1        0.0232
     14 C           4.1743    0.9722   38.0246 C.3     1  UNL1        0.0271
     15 C           3.0603    1.9149   37.6780 C.3     1  UNL1        0.1509
     16 S           2.7727    2.2407   36.2424 S.O2    1  UNL1       -0.0084
     17 O           2.1193    2.8548   35.0399 O.2     1  UNL1       -0.1729
     18 O           1.7192    3.0710   36.9139 O.2     1  UNL1       -0.1729
     19 C           3.5993    1.6237   35.1533 C.3     1  UNL1        0.1702
     20 C           7.9259   -3.7472   28.0510 C.ar    1  UNL1        0.1453
     21 C           7.9034   -2.4882   27.2359 C.ar    1  UNL1        0.0381
     22 C           7.3881   -2.5156   25.8274 C.ar    1  UNL1        0.0114
     23 C           6.8952   -3.8022   25.2341 C.ar    1  UNL1        0.0419
     24 C           6.9176   -5.0612   26.0493 C.ar    1  UNL1        0.0114
     25 C           7.4330   -5.0337   27.4577 C.ar    1  UNL1        0.0381
     26 C           6.3799   -3.8296   23.8257 C.1     1  UNL1       -0.0621
     27 C           5.8647   -3.8571   22.4173 C.1     1  UNL1       -0.0597
     28 C           4.6981   -3.7603   19.9484 C.3     1  UNL1        0.1561
     29 O           4.1072   -4.5491   22.0284 O.3     1  UNL1       -0.3739
     30 C           5.8357   -3.1460   19.5385 C.3     1  UNL1        0.1120
     31 N           6.5064   -2.7703   19.2435 N.3     1  UNL1       -0.2699
     32 C           5.3968   -3.0232   18.2663 C.3     1  UNL1        0.0723
     33 C           4.1387   -3.7026   18.7196 C.3     1  UNL1        0.0207
     34 C           3.9902   -4.1292   20.1499 C.3     1  UNL1        0.0404
     35 C           5.0998   -3.8764   21.1271 C.3     1  UNL1        0.0207
     36 C           6.3579   -3.1969   20.6738 C.3     1  UNL1        0.0723
     37 H           4.8291   -4.3823   22.6545 H       1  UNL1        0.2115
@<TRIPOS>BOND
     1     8     9    2
     2     9    10   am
     3    10    12    1
     4    12    13    1
     5    13    14    1
     6    14    15    1
     7    15    16    1
     8    16    17    2
     9    16    18    2
    10    16    19    1
    11     9     2    1
    12     2     3   ar
    13     3     4   ar
    14     4     5   ar
    15     5     1    1
    16     1    20    1
    17    20    21   ar
    18    21    22   ar
    19    22    23   ar
    20    23    26    1
    21    26    27    3
    22    27    28    1
    23    28    29    1
    24    28    30    1
    25    30    31    1
    26    31    32    1
    27    32    33    1
    28    33    34    1
    29    34    35    1
    30    35    36    1
    31    23    24   ar
    32    24    25   ar
    33     5     6   ar
    34     6     7   ar
    35    19    12    1
    36     7     2   ar
    37    25    20   ar
    38    34    28    1
    39    36    31    1
    40    10    11    1
    41    29    37    1
@<TRIPOS>MOLECULE
*****
 37 41 0 0 0
SMALL
GASTEIGER

@<TRIPOS>ATOM
      1 O           3.9160   -0.9630   18.7309 O.3     1  UNL1       -0.4535
      2 C           0.4879    1.8544   19.4792 C.ar    1  UNL1        0.0536
      3 C           1.6353    2.2826   18.6131 C.ar    1  UNL1        0.0076
      4 C           2.7779    1.3435   18.3637 C.ar    1  UNL1        0.0376
      5 C           2.7733   -0.0239   18.9803 C.ar    1  UNL1        0.1453
      6 C           1.6259   -0.4522   19.8464 C.ar    1  UNL1        0.0376
      7 C           0.4832    0.4870   20.0959 C.ar    1  UNL1        0.0076
      8 O          -0.8466    3.9921   18.8475 O.2     1  UNL1       -0.2701
      9 C          -0.6549    2.7936   19.7286 C.2     1  UNL1        0.2458
     10 N          -1.6057    2.5340   20.8593 N.am    1  UNL1       -0.3008
     11 H          -1.4799    1.7473   21.4376 H       1  UNL1        0.1497
     12 C          -2.7485    3.4732   21.1088 C.3     1  UNL1        0.0955
     13 C          -2.5927    4.6014   22.0850 C.3     1  UNL1        0.0232
     14 C          -3.7355    5.5405   22.3344 C.3     1  UNL1        0.0271
     15 C          -5.0340    5.3513   21.6077 C.3     1  UNL1        0.1509
     16 S          -5.1898    4.2232   20.6315 S.O2    1  UNL1       -0.0084
     17 O          -5.8182    3.3111   19.6200 O.2     1  UNL1       -0.1729
     18 O          -6.5508    4.8455   20.5297 O.2     1  UNL1       -0.1729
     19 C          -4.0470    3.2841   20.3821 C.3     1  UNL1        0.1702
     20 C           4.4974   -1.7547   19.8646 C.ar    1  UNL1        0.1453
     21 C           5.5153   -1.1293   20.7716 C.ar    1  UNL1        0.0381
     22 C           6.0967   -1.9209   21.9053 C.ar    1  UNL1        0.0114
     23 C           5.6601   -3.3380   22.1320 C.ar    1  UNL1        0.0419
     24 C           4.6423   -3.9634   21.2250 C.ar    1  UNL1        0.0114
     25 C           4.0609   -3.1717   20.0912 C.ar    1  UNL1        0.0381
     26 C           6.2416   -4.1296   23.2657 C.1     1  UNL1       -0.0621
     27 C           6.8231   -4.9210   24.3994 C.1     1  UNL1       -0.0597
     28 C           7.6734   -6.5553   26.4173 C.3     1  UNL1        0.1561
     29 O           6.4026   -4.6426   26.2607 O.3     1  UNL1       -0.3739
     30 C           8.2836   -7.2799   25.4466 C.3     1  UNL1        0.1120
     31 N           8.6706   -7.7510   24.8933 N.3     1  UNL1       -0.2699
     32 C           8.7789   -8.1772   26.3273 C.3     1  UNL1        0.0723
     33 C           8.1041   -7.3759   27.4008 C.3     1  UNL1        0.0207
     34 C           7.3210   -6.1484   27.0403 C.3     1  UNL1        0.0404
     35 C           7.2127   -5.7222   25.6063 C.3     1  UNL1        0.0207
     36 C           7.8875   -6.5235   24.5327 C.3     1  UNL1        0.0723
     37 H           6.3370   -4.3732   25.3312 H       1  UNL1        0.2115
@<TRIPOS>BOND
     1     8     9    2
     2     9    10   am
     3    10    12    1
     4    12    13    1
     5    13    14    1
     6    14    15    1
     7    15    16    1
     8    16    17    2
     9    16    18    2
    10    16    19    1
    11     9     2    1
    12     2     3   ar
    13     3     4   ar
    14     4     5   ar
    15     5     1    1
    16     1    20    1
    17    20    21   ar
    18    21    22   ar
    19    22    23   ar
    20    23    26    1
    21    26    27    3
    22    27    28    1
    23    28    29    1
    24    28    30    1
    25    30    31    1
    26    31    32    1
    27    32    33    1
    28    33    34    1
    29    34    35    1
    30    35    36    1
    31    23    24   ar
    32    24    25   ar
    33     5     6   ar
    34     6     7   ar
    35    19    12    1
    36     7     2   ar
    37    25    20   ar
    38    34    28    1
    39    36    31    1
    40    10    11    1
    41    29    37    1
@<TRIPOS>MOLECULE
*****
 37 41 0 0 0
SMALL
GASTEIGER

@<TRIPOS>ATOM
      1 O           3.1269    0.4292   18.4676 O.3     1  UNL1       -0.4535
      2 C          -0.5045    2.5373   20.0859 C.ar    1  UNL1        0.0536
      3 C          -0.1922    1.1373   20.5248 C.ar    1  UNL1        0.0076
      4 C           1.0182    0.4347   19.9853 C.ar    1  UNL1        0.0376
      5 C           1.9164    1.1319   19.0070 C.ar    1  UNL1        0.1453
      6 C           1.6041    2.5319   18.5682 C.ar    1  UNL1        0.0376
      7 C           0.3936    3.2346   19.1077 C.ar    1  UNL1        0.0076
      8 O          -1.5916    4.6283   21.1794 O.2     1  UNL1       -0.2701
      9 C          -1.7150    3.2400   20.6255 C.2     1  UNL1        0.2458
     10 N          -3.0489    2.5540   20.6110 N.am    1  UNL1       -0.3008
     11 H          -3.1299    1.6427   20.2474 H       1  UNL1        0.1497
     12 C          -4.2595    3.2566   21.1505 C.3     1  UNL1        0.0955
     13 C          -5.2019    3.9530   20.2141 C.3     1  UNL1        0.0232
     14 C          -6.4124    4.6556   20.7537 C.3     1  UNL1        0.0271
     15 C          -6.6804    4.6617   22.2295 C.3     1  UNL1        0.1509
     16 S          -5.7380    3.9653   23.1659 S.O2    1  UNL1       -0.0084
     17 O          -5.1442    3.4508   24.4436 O.2     1  UNL1       -0.1729
     18 O          -6.7423    4.4892   24.1492 O.2     1  UNL1       -0.1729
     19 C          -4.5274    3.2628   22.6263 C.3     1  UNL1        0.1702
     20 C           3.8885   -0.5272   19.3367 C.ar    1  UNL1        0.1453
     21 C           4.9307   -0.0122   20.2845 C.ar    1  UNL1        0.0381
     22 C           5.6923   -0.9685   21.1536 C.ar    1  UNL1        0.0114
     23 C           5.4116   -2.4400   21.0749 C.ar    1  UNL1        0.0419
     24 C           4.3693   -2.9550   20.1271 C.ar    1  UNL1        0.0114
     25 C           3.6077   -1.9986   19.2579 C.ar    1  UNL1        0.0381
     26 C           6.1732   -3.3963   21.9440 C.1     1  UNL1       -0.0621
     27 C           6.9349   -4.3525   22.8131 C.1     1  UNL1       -0.0597
     28 C           8.0820   -6.2525   24.4068 C.3     1  UNL1        0.1561
     29 O           8.1342   -5.7182   22.1686 O.3     1  UNL1       -0.3739
     30 C           7.4107   -5.6657   25.4290 C.3     1  UNL1        0.1120
     31 N           7.0235   -5.3438   26.0804 N.3     1  UNL1       -0.2699
     32 C           7.8968   -6.5348   26.3425 C.3     1  UNL1        0.0723
     33 C           8.6391   -7.1838   25.2122 C.3     1  UNL1        0.0207
     34 C           8.5082   -6.6417   23.8197 C.3     1  UNL1        0.0404
     35 C           7.6349   -5.4506   23.5576 C.3     1  UNL1        0.0207
     36 C           6.8925   -4.8017   24.6879 C.3     1  UNL1        0.0723
     37 H           7.5676   -4.9477   22.0068 H       1  UNL1        0.2115
@<TRIPOS>BOND
     1     8     9    2
     2     9    10   am
     3    10    12    1
     4    12    13    1
     5    13    14    1
     6    14    15    1
     7    15    16    1
     8    16    17    2
     9    16    18    2
    10    16    19    1
    11     9     2    1
    12     2     3   ar
    13     3     4   ar
    14     4     5   ar
    15     5     1    1
    16     1    20    1
    17    20    21   ar
    18    21    22   ar
    19    22    23   ar
    20    23    26    1
    21    26    27    3
    22    27    28    1
    23    28    29    1
    24    28    30    1
    25    30    31    1
    26    31    32    1
    27    32    33    1
    28    33    34    1
    29    34    35    1
    30    35    36    1
    31    23    24   ar
    32    24    25   ar
    33     5     6   ar
    34     6     7   ar
    35    19    12    1
    36     7     2   ar
    37    25    20   ar
    38    34    28    1
    39    36    31    1
    40    10    11    1
    41    29    37    1
@<TRIPOS>MOLECULE
*****
 37 41 0 0 0
SMALL
GASTEIGER

@<TRIPOS>ATOM
      1 O           7.1881   -3.8392   31.6534 O.3     1  UNL1       -0.4535
      2 C           5.1845   -0.8270   34.3296 C.ar    1  UNL1        0.0536
      3 C           4.4056   -1.9937   33.7985 C.ar    1  UNL1        0.0076
      4 C           5.0735   -2.9977   32.9065 C.ar    1  UNL1        0.0376
      5 C           6.5203   -2.8352   32.5455 C.ar    1  UNL1        0.1453
      6 C           7.2993   -1.6684   33.0766 C.ar    1  UNL1        0.0376
      7 C           6.6313   -0.6643   33.9687 C.ar    1  UNL1        0.0076
      8 O           3.7971    1.3497   34.6243 O.2     1  UNL1       -0.2701
      9 C           4.5166    0.1771   35.2217 C.2     1  UNL1        0.2458
     10 N           4.5683    0.0084   36.7113 N.am    1  UNL1       -0.3008
     11 H           5.0407   -0.7613   37.1034 H       1  UNL1        0.1497
     12 C           3.9004    1.0125   37.6034 C.3     1  UNL1        0.0955
     13 C           4.6487    2.2330   38.0510 C.3     1  UNL1        0.0232
     14 C           3.9807    3.2370   38.9431 C.3     1  UNL1        0.0271
     15 C           2.5646    3.0204   39.3877 C.3     1  UNL1        0.1509
     16 S           1.8163    1.7998   38.9401 S.O2    1  UNL1       -0.0084
     17 O           0.7018    0.8083   38.7835 O.2     1  UNL1       -0.1729
     18 O           0.7613    2.4594   39.7779 O.2     1  UNL1       -0.1729
     19 C           2.4843    0.7958   38.0480 C.3     1  UNL1        0.1702
     20 C           6.9802   -3.7792   30.1691 C.ar    1  UNL1        0.1453
     21 C           6.9727   -2.4545   29.4657 C.ar    1  UNL1        0.0381
     22 C           6.7648   -2.3944   27.9815 C.ar    1  UNL1        0.0114
     23 C           6.5644   -3.6594   27.2005 C.ar    1  UNL1        0.0419
     24 C           6.5719   -4.9842   27.9038 C.ar    1  UNL1        0.0114
     25 C           6.7798   -5.0442   29.3882 C.ar    1  UNL1        0.0381
     26 C           6.3565   -3.5994   25.7162 C.1     1  UNL1       -0.0621
     27 C           6.1484   -3.5392   24.2319 C.1     1  UNL1       -0.0597
     28 C           5.9597   -3.6451   21.5082 C.3     1  UNL1        0.1561
     29 O           7.5036   -4.2948   23.0868 O.3     1  UNL1       -0.3739
     30 C           4.7568   -3.0377   21.6618 C.3     1  UNL1        0.1120
     31 N           4.0213   -2.6700   21.7050 N.3     1  UNL1       -0.2699
     32 C           4.5168   -3.0161   20.3321 C.3     1  UNL1        0.0723
     33 C           5.8471   -3.6879   20.1622 C.3     1  UNL1        0.0207
     34 C           6.6819   -4.0136   21.3651 C.3     1  UNL1        0.0404
     35 C           6.1865   -3.6675   22.7379 C.3     1  UNL1        0.0207
     36 C           4.8562   -2.9957   22.9078 C.3     1  UNL1        0.0723
     37 H           7.1766   -4.0679   23.9714 H       1  UNL1        0.2115
@<TRIPOS>BOND
     1     8     9    2
     2     9    10   am
     3    10    12    1
     4    12    13    1
     5    13    14    1
     6    14    15    1
     7    15    16    1
     8    16    17    2
     9    16    18    2
    10    16    19    1
    11     9     2    1
    12     2     3   ar
    13     3     4   ar
    14     4     5   ar
    15     5     1    1
    16     1    20    1
    17    20    21   ar
    18    21    22   ar
    19    22    23   ar
    20    23    26    1
    21    26    27    3
    22    27    28    1
    23    28    29    1
    24    28    30    1
    25    30    31    1
    26    31    32    1
    27    32    33    1
    28    33    34    1
    29    34    35    1
    30    35    36    1
    31    23    24   ar
    32    24    25   ar
    33     5     6   ar
    34     6     7   ar
    35    19    12    1
    36     7     2   ar
    37    25    20   ar
    38    34    28    1
    39    36    31    1
    40    10    11    1
    41    29    37    1
@<TRIPOS>MOLECULE
*****
 37 41 0 0 0
SMALL
GASTEIGER

@<TRIPOS>ATOM
      1 O           2.3611   -0.6276   29.0512 O.3     1  UNL1       -0.4535
      2 C           4.0695    0.1317   33.1445 C.ar    1  UNL1        0.0536
      3 C           4.6116   -0.9836   32.3006 C.ar    1  UNL1        0.0076
      4 C           4.0421   -1.2367   30.9362 C.ar    1  UNL1        0.0376
      5 C           2.9306   -0.3745   30.4156 C.ar    1  UNL1        0.1453
      6 C           2.3885    0.7409   31.2596 C.ar    1  UNL1        0.0376
      7 C           2.9580    0.9939   32.6240 C.ar    1  UNL1        0.0076
      8 O           5.0423   -0.7685   35.3791 O.2     1  UNL1       -0.2701
      9 C           4.6391    0.3847   34.5090 C.2     1  UNL1        0.2458
     10 N           4.8053    1.7912   35.0031 N.am    1  UNL1       -0.3008
     11 H           4.5406    2.5481   34.4320 H       1  UNL1        0.1497
     12 C           5.3748    2.0443   36.3676 C.3     1  UNL1        0.0955
     13 C           6.8553    2.2088   36.5436 C.3     1  UNL1        0.0232
     14 C           7.4247    2.4620   37.9081 C.3     1  UNL1        0.0271
     15 C           6.5137    2.5506   39.0964 C.3     1  UNL1        0.1509
     16 S           5.0332    2.3861   38.9203 S.O2    1  UNL1       -0.0084
     17 O           3.5745    2.2991   39.2589 O.2     1  UNL1       -0.1729
     18 O           5.0960    2.6090   40.4024 O.2     1  UNL1       -0.1729
     19 C           4.4637    2.1330   37.5559 C.3     1  UNL1        0.1702
     20 C           1.2215    0.2076   28.5474 C.ar    1  UNL1        0.1453
     21 C           1.4924    1.4023   27.6819 C.ar    1  UNL1        0.0381
     22 C           0.3529    2.2374   27.1781 C.ar    1  UNL1        0.0114
     23 C          -1.0578    1.8778   27.5399 C.ar    1  UNL1        0.0419
     24 C          -1.3288    0.6831   28.4054 C.ar    1  UNL1        0.0114
     25 C          -0.1891   -0.1521   28.9092 C.ar    1  UNL1        0.0381
     26 C          -2.1974    2.7130   27.0361 C.1     1  UNL1       -0.0621
     27 C          -3.3368    3.5482   26.5321 C.1     1  UNL1       -0.0597
     28 C          -5.5536    4.9944   25.8537 C.3     1  UNL1        0.1561
     29 O          -4.0993    4.9327   27.6368 O.3     1  UNL1       -0.3739
     30 C          -5.5719    4.2558   24.7162 C.3     1  UNL1        0.1120
     31 N          -5.6240    3.8332   24.0115 N.3     1  UNL1       -0.2699
     32 C          -6.6716    4.8818   24.2418 C.3     1  UNL1        0.0723
     33 C          -6.6513    5.6986   25.4997 C.3     1  UNL1        0.0207
     34 C          -5.5836    5.4667   26.5274 C.3     1  UNL1        0.0404
     35 C          -4.5360    4.4181   26.2972 C.3     1  UNL1        0.0207
     36 C          -4.5563    3.6013   25.0392 C.3     1  UNL1        0.0723
     37 H          -3.4253    4.2529   27.4809 H       1  UNL1        0.2115
@<TRIPOS>BOND
     1     8     9    2
     2     9    10   am
     3    10    12    1
     4    12    13    1
     5    13    14    1
     6    14    15    1
     7    15    16    1
     8    16    17    2
     9    16    18    2
    10    16    19    1
    11     9     2    1
    12     2     3   ar
    13     3     4   ar
    14     4     5   ar
    15     5     1    1
    16     1    20    1
    17    20    21   ar
    18    21    22   ar
    19    22    23   ar
    20    23    26    1
    21    26    27    3
    22    27    28    1
    23    28    29    1
    24    28    30    1
    25    30    31    1
    26    31    32    1
    27    32    33    1
    28    33    34    1
    29    34    35    1
    30    35    36    1
    31    23    24   ar
    32    24    25   ar
    33     5     6   ar
    34     6     7   ar
    35    19    12    1
    36     7     2   ar
    37    25    20   ar
    38    34    28    1
    39    36    31    1
    40    10    11    1
    41    29    37    1
@<TRIPOS>MOLECULE
*****
 37 41 0 0 0
SMALL
GASTEIGER

@<TRIPOS>ATOM
      1 O           7.6035   -3.3596   30.4083 O.3     1  UNL1       -0.4535
      2 C           6.4898   -2.7664   26.0888 C.ar    1  UNL1        0.0536
      3 C           5.6682   -2.1286   27.1697 C.ar    1  UNL1        0.0076
      4 C           6.0395   -2.3263   28.6094 C.ar    1  UNL1        0.0376
      5 C           7.2323   -3.1619   28.9685 C.ar    1  UNL1        0.1453
      6 C           8.0539   -3.7997   27.8876 C.ar    1  UNL1        0.0376
      7 C           7.6827   -3.6019   26.4478 C.ar    1  UNL1        0.0076
      8 O           7.1365   -2.0520   23.6761 O.2     1  UNL1       -0.2701
      9 C           6.1185   -2.5685   24.6490 C.2     1  UNL1        0.2458
     10 N           4.7291   -2.8873   24.1823 N.am    1  UNL1       -0.3008
     11 H           4.0609   -3.2264   24.8209 H       1  UNL1        0.1497
     12 C           4.3577   -2.6896   22.7424 C.3     1  UNL1        0.0955
     13 C           3.5296   -1.5064   22.3372 C.3     1  UNL1        0.0232
     14 C           3.1583   -1.3087   20.8973 C.3     1  UNL1        0.0271
     15 C           3.6151   -2.2941   19.8629 C.3     1  UNL1        0.1509
     16 S           4.4432   -3.4773   20.2681 S.O2    1  UNL1       -0.0084
     17 O           5.2383   -4.7447   20.1604 O.2     1  UNL1       -0.1729
     18 O           4.3480   -3.7198   18.7909 O.2     1  UNL1       -0.1729
     19 C           4.8146   -3.6750   21.7079 C.3     1  UNL1        0.1702
     20 C           6.9378   -2.5402   31.4739 C.ar    1  UNL1        0.1453
     21 C           5.7096   -3.0588   32.1611 C.ar    1  UNL1        0.0381
     22 C           5.0438   -2.2395   33.2267 C.ar    1  UNL1        0.0114
     23 C           5.6065   -0.9014   33.6050 C.ar    1  UNL1        0.0419
     24 C           6.8347   -0.3828   32.9178 C.ar    1  UNL1        0.0114
     25 C           7.5004   -1.2022   31.8522 C.ar    1  UNL1        0.0381
     26 C           4.9407   -0.0821   34.6706 C.1     1  UNL1       -0.0621
     27 C           4.2751    0.7373   35.7361 C.1     1  UNL1       -0.0597
     28 C           2.9331    1.9870   37.7617 C.3     1  UNL1        0.1561
     29 O           4.4002    0.2218   37.5901 O.3     1  UNL1       -0.3739
     30 C           2.4257    2.7971   36.7995 C.3     1  UNL1        0.1120
     31 N           2.0920    3.3132   36.2515 N.3     1  UNL1       -0.2699
     32 C           1.6995    3.5145   37.6851 C.3     1  UNL1        0.0723
     33 C           2.2607    2.6186   38.7492 C.3     1  UNL1        0.0207
     34 C           3.2144    1.5214   38.3798 C.3     1  UNL1        0.0404
     35 C           3.6070    1.3201   36.9461 C.3     1  UNL1        0.0207
     36 C           3.0458    2.2160   35.8820 C.3     1  UNL1        0.0723
     37 H           4.6495    0.0977   36.6609 H       1  UNL1        0.2115
@<TRIPOS>BOND
     1     8     9    2
     2     9    10   am
     3    10    12    1
     4    12    13    1
     5    13    14    1
     6    14    15    1
     7    15    16    1
     8    16    17    2
     9    16    18    2
    10    16    19    1
    11     9     2    1
    12     2     3   ar
    13     3     4   ar
    14     4     5   ar
    15     5     1    1
    16     1    20    1
    17    20    21   ar
    18    21    22   ar
    19    22    23   ar
    20    23    26    1
    21    26    27    3
    22    27    28    1
    23    28    29    1
    24    28    30    1
    25    30    31    1
    26    31    32    1
    27    32    33    1
    28    33    34    1
    29    34    35    1
    30    35    36    1
    31    23    24   ar
    32    24    25   ar
    33     5     6   ar
    34     6     7   ar
    35    19    12    1
    36     7     2   ar
    37    25    20   ar
    38    34    28    1
    39    36    31    1
    40    10    11    1
    41    29    37    1
@<TRIPOS>MOLECULE
*****
 37 41 0 0 0
SMALL
GASTEIGER

@<TRIPOS>ATOM
      1 O           4.6431    0.2748   17.7582 O.3     1  UNL1       -0.4535
      2 C           0.9470    2.4496   19.1219 C.ar    1  UNL1        0.0536
      3 C           0.8996    0.9704   18.8770 C.ar    1  UNL1        0.0076
      4 C           2.1316    0.2456   18.4225 C.ar    1  UNL1        0.0376
      5 C           3.4111    0.9997   18.2128 C.ar    1  UNL1        0.1453
      6 C           3.4586    2.4789   18.4576 C.ar    1  UNL1        0.0376
      7 C           2.2265    3.2038   18.9122 C.ar    1  UNL1        0.0076
      8 O          -0.6334    4.5070   18.9825 O.2     1  UNL1       -0.2701
      9 C          -0.2851    3.1744   19.5764 C.2     1  UNL1        0.2458
     10 N          -1.1688    2.5666   20.6250 N.am    1  UNL1       -0.3008
     11 H          -0.9401    1.6920   21.0149 H       1  UNL1        0.1497
     12 C          -2.4009    3.2914   21.0797 C.3     1  UNL1        0.0955
     13 C          -2.3662    4.1176   22.3311 C.3     1  UNL1        0.0232
     14 C          -3.5984    4.8424   22.7857 C.3     1  UNL1        0.0271
     15 C          -4.8650    4.7409   21.9888 C.3     1  UNL1        0.1509
     16 S          -4.8998    3.9148   20.7373 S.O2    1  UNL1       -0.0084
     17 O          -5.4257    3.2615   19.4937 O.2     1  UNL1       -0.1729
     18 O          -6.3145    4.4127   20.7600 O.2     1  UNL1       -0.1729
     19 C          -3.6676    3.1900   20.2828 C.3     1  UNL1        0.1702
     20 C           5.2736   -0.7599   18.6424 C.ar    1  UNL1        0.1453
     21 C           5.2088   -2.2099   18.2640 C.ar    1  UNL1        0.0381
     22 C           5.8393   -3.2448   19.1481 C.ar    1  UNL1        0.0114
     23 C           6.5347   -2.8294   20.4107 C.ar    1  UNL1        0.0419
     24 C           6.5996   -1.3794   20.7890 C.ar    1  UNL1        0.0114
     25 C           5.9690   -0.3446   19.9049 C.ar    1  UNL1        0.0381
     26 C           7.1652   -3.8642   21.2948 C.1     1  UNL1       -0.0621
     27 C           7.7958   -4.8990   22.1788 C.1     1  UNL1       -0.0597
     28 C           8.6772   -6.8620   23.8626 C.3     1  UNL1        0.1561
     29 O           8.8776   -6.3937   21.6180 O.3     1  UNL1       -0.3739
     30 C           8.0258   -6.1850   24.8409 C.3     1  UNL1        0.1120
     31 N           7.6458   -5.8094   25.4673 N.3     1  UNL1       -0.2699
     32 C           8.3828   -7.0744   25.7937 C.3     1  UNL1        0.0723
     33 C           9.1032   -7.8231   24.7119 C.3     1  UNL1        0.0207
     34 C           9.0865   -7.3068   23.3036 C.3     1  UNL1        0.0404
     35 C           8.3494   -6.0418   22.9772 C.3     1  UNL1        0.0207
     36 C           7.6291   -5.2931   24.0591 C.3     1  UNL1        0.0723
     37 H           8.3988   -5.5749   21.4146 H       1  UNL1        0.2115
@<TRIPOS>BOND
     1     8     9    2
     2     9    10   am
     3    10    12    1
     4    12    13    1
     5    13    14    1
     6    14    15    1
     7    15    16    1
     8    16    17    2
     9    16    18    2
    10    16    19    1
    11     9     2    1
    12     2     3   ar
    13     3     4   ar
    14     4     5   ar
    15     5     1    1
    16     1    20    1
    17    20    21   ar
    18    21    22   ar
    19    22    23   ar
    20    23    26    1
    21    26    27    3
    22    27    28    1
    23    28    29    1
    24    28    30    1
    25    30    31    1
    26    31    32    1
    27    32    33    1
    28    33    34    1
    29    34    35    1
    30    35    36    1
    31    23    24   ar
    32    24    25   ar
    33     5     6   ar
    34     6     7   ar
    35    19    12    1
    36     7     2   ar
    37    25    20   ar
    38    34    28    1
    39    36    31    1
    40    10    11    1
    41    29    37    1
@<TRIPOS>MOLECULE
*****
 37 41 0 0 0
SMALL
GASTEIGER

@<TRIPOS>ATOM
      1 O           2.8410    0.6122   29.8615 O.3     1  UNL1       -0.4535
      2 C           5.5940   -2.3496   27.8870 C.ar    1  UNL1        0.0536
      3 C           4.4758   -1.7275   27.1042 C.ar    1  UNL1        0.0076
      4 C           3.5582   -0.7403   27.7624 C.ar    1  UNL1        0.0376
      5 C           3.7586   -0.3750   29.2033 C.ar    1  UNL1        0.1453
      6 C           4.8768   -0.9971   29.9862 C.ar    1  UNL1        0.0376
      7 C           5.7945   -1.9844   29.3279 C.ar    1  UNL1        0.0076
      8 O           7.8692   -2.9030   26.7614 O.2     1  UNL1       -0.2701
      9 C           6.5116   -3.3369   27.2287 C.2     1  UNL1        0.2458
     10 N           6.0715   -4.7581   27.0379 N.am    1  UNL1       -0.3008
     11 H           5.1803   -5.0428   27.3446 H       1  UNL1        0.1497
     12 C           6.9891   -5.7455   26.3796 C.3     1  UNL1        0.0955
     13 C           7.6362   -6.8263   27.1939 C.3     1  UNL1        0.0232
     14 C           8.5538   -7.8136   26.5356 C.3     1  UNL1        0.0271
     15 C           8.8241   -7.7200   25.0631 C.3     1  UNL1        0.1509
     16 S           8.1770   -6.6392   24.2489 S.O2    1  UNL1       -0.0084
     17 O           7.8034   -5.8001   23.0631 O.2     1  UNL1       -0.1729
     18 O           8.9648   -7.3351   23.1788 O.2     1  UNL1       -0.1729
     19 C           7.2594   -5.6519   24.9072 C.3     1  UNL1        0.1702
     20 C           1.6662    1.1621   29.1081 C.ar    1  UNL1        0.1453
     21 C           1.7621    2.5041   28.4449 C.ar    1  UNL1        0.0381
     22 C           0.5874    3.0540   27.6915 C.ar    1  UNL1        0.0114
     23 C          -0.6833    2.2618   27.6014 C.ar    1  UNL1        0.0419
     24 C          -0.7792    0.9199   28.2646 C.ar    1  UNL1        0.0114
     25 C           0.3956    0.3700   29.0180 C.ar    1  UNL1        0.0381
     26 C          -1.8580    2.8118   26.8480 C.1     1  UNL1       -0.0621
     27 C          -3.0326    3.3618   26.0946 C.1     1  UNL1       -0.0597
     28 C          -5.3371    4.2627   24.9356 C.3     1  UNL1        0.1561
     29 O          -4.3817    4.3767   27.0265 O.3     1  UNL1       -0.3739
     30 C          -4.8855    3.6737   23.8004 C.3     1  UNL1        0.1120
     31 N          -4.6533    3.3319   23.0881 N.3     1  UNL1       -0.2699
     32 C          -5.9713    4.0479   23.0883 C.3     1  UNL1        0.0723
     33 C          -6.4708    4.6993   24.3437 C.3     1  UNL1        0.0207
     34 C          -5.6523    4.6347   25.5990 C.3     1  UNL1        0.0404
     35 C          -4.3342    3.9187   25.5989 C.3     1  UNL1        0.0207
     36 C          -3.8347    3.2673   24.3434 C.3     1  UNL1        0.0723
     37 H          -3.5304    3.9119   27.0188 H       1  UNL1        0.2115
@<TRIPOS>BOND
     1     8     9    2
     2     9    10   am
     3    10    12    1
     4    12    13    1
     5    13    14    1
     6    14    15    1
     7    15    16    1
     8    16    17    2
     9    16    18    2
    10    16    19    1
    11     9     2    1
    12     2     3   ar
    13     3     4   ar
    14     4     5   ar
    15     5     1    1
    16     1    20    1
    17    20    21   ar
    18    21    22   ar
    19    22    23   ar
    20    23    26    1
    21    26    27    3
    22    27    28    1
    23    28    29    1
    24    28    30    1
    25    30    31    1
    26    31    32    1
    27    32    33    1
    28    33    34    1
    29    34    35    1
    30    35    36    1
    31    23    24   ar
    32    24    25   ar
    33     5     6   ar
    34     6     7   ar
    35    19    12    1
    36     7     2   ar
    37    25    20   ar
    38    34    28    1
    39    36    31    1
    40    10    11    1
    41    29    37    1
@<TRIPOS>MOLECULE
*****
 37 41 0 0 0
SMALL
GASTEIGER

@<TRIPOS>ATOM
      1 O           3.7365   -1.1171   19.3600 O.3     1  UNL1       -0.4535
      2 C           2.9228    0.5469   23.4611 C.ar    1  UNL1        0.0536
      3 C           3.2029   -0.9164   23.2874 C.ar    1  UNL1        0.0076
      4 C           3.4741   -1.4711   21.9204 C.ar    1  UNL1        0.0376
      5 C           3.4653   -0.5625   20.7270 C.ar    1  UNL1        0.1453
      6 C           3.1852    0.9010   20.9006 C.ar    1  UNL1        0.0376
      7 C           2.9139    1.4556   22.2677 C.ar    1  UNL1        0.0076
      8 O           3.5229    2.1892   25.3827 O.2     1  UNL1       -0.2701
      9 C           2.6516    1.1015   24.8282 C.2     1  UNL1        0.2458
     10 N           1.5089    0.5684   25.6406 N.am    1  UNL1       -0.3008
     11 H           0.9370   -0.1455   25.2766 H       1  UNL1        0.1497
     12 C           1.2376    1.1230   27.0077 C.3     1  UNL1        0.0955
     13 C           0.7125    2.5198   27.1598 C.3     1  UNL1        0.0232
     14 C           0.4413    3.0743   28.5269 C.3     1  UNL1        0.0271
     15 C           0.6950    2.2319   29.7418 C.3     1  UNL1        0.1509
     16 S           1.2201    0.8351   29.5897 S.O2    1  UNL1       -0.0084
     17 O           1.7100   -0.5343   29.9566 O.2     1  UNL1       -0.1729
     18 O           1.1190    0.9140   31.0842 O.2     1  UNL1       -0.1729
     19 C           1.4914    0.2806   28.2226 C.3     1  UNL1        0.1702
     20 C           4.1275   -2.5562   19.1985 C.ar    1  UNL1        0.1453
     21 C           5.5602   -2.9201   18.9437 C.ar    1  UNL1        0.0381
     22 C           5.9512   -4.3592   18.7822 C.ar    1  UNL1        0.0114
     23 C           4.9094   -5.4345   18.8755 C.ar    1  UNL1        0.0419
     24 C           3.4768   -5.0706   19.1302 C.ar    1  UNL1        0.0114
     25 C           3.0858   -3.6314   19.2917 C.ar    1  UNL1        0.0381
     26 C           5.3005   -6.8735   18.7140 C.1     1  UNL1       -0.0621
     27 C           5.6914   -8.3126   18.5524 C.1     1  UNL1       -0.0597
     28 C           6.6080  -10.8848   18.4548 C.3     1  UNL1        0.1561
     29 O           7.3833   -8.8817   19.2820 O.3     1  UNL1       -0.3739
     30 C           5.4511  -11.1731   17.8084 C.3     1  UNL1        0.1120
     31 N           4.7640  -11.3961   17.4132 N.3     1  UNL1       -0.2699
     32 C           5.7639  -12.4816   17.6813 C.3     1  UNL1        0.0723
     33 C           7.0434  -12.1628   18.3962 C.3     1  UNL1        0.0207
     34 C           7.3230  -10.7584   18.8430 C.3     1  UNL1        0.0404
     35 C           6.3232   -9.6729   18.5749 C.3     1  UNL1        0.0207
     36 C           5.0437   -9.9918   17.8600 C.3     1  UNL1        0.0723
     37 H           6.7320   -8.1850   19.1051 H       1  UNL1        0.2115
@<TRIPOS>BOND
     1     8     9    2
     2     9    10   am
     3    10    12    1
     4    12    13    1
     5    13    14    1
     6    14    15    1
     7    15    16    1
     8    16    17    2
     9    16    18    2
    10    16    19    1
    11     9     2    1
    12     2     3   ar
    13     3     4   ar
    14     4     5   ar
    15     5     1    1
    16     1    20    1
    17    20    21   ar
    18    21    22   ar
    19    22    23   ar
    20    23    26    1
    21    26    27    3
    22    27    28    1
    23    28    29    1
    24    28    30    1
    25    30    31    1
    26    31    32    1
    27    32    33    1
    28    33    34    1
    29    34    35    1
    30    35    36    1
    31    23    24   ar
    32    24    25   ar
    33     5     6   ar
    34     6     7   ar
    35    19    12    1
    36     7     2   ar
    37    25    20   ar
    38    34    28    1
    39    36    31    1
    40    10    11    1
    41    29    37    1
