@<TRIPOS>MOLECULE
*****
 23 26 0 0 0
SMALL
GASTEIGER

@<TRIPOS>ATOM
      1 C          -8.4427  -19.1041   20.8994 C.3     1  UNL1        0.1473
      2 O          -9.1215  -19.0113   19.5650 O.3     1  UNL1       -0.3787
      3 H         -10.0782  -19.1220   19.6805 H       1  UNL1        0.2108
      4 C          -9.2545  -19.3360   22.1393 C.ar    1  UNL1        0.0086
      5 C          -8.7793  -20.3110   23.1754 C.ar    1  UNL1        0.0188
      6 C          -9.5911  -20.5429   24.4152 C.ar    1  UNL1        0.0986
      7 N         -10.8780  -19.7998   24.6190 N.ar    1  UNL1       -0.2439
      8 C         -11.3533  -18.8247   23.5828 C.ar    1  UNL1        0.0811
      9 C         -12.6402  -18.0816   23.7866 C.ar    1  UNL1        0.0191
     10 C         -13.1153  -17.1066   22.7504 C.ar    1  UNL1        0.0015
     11 C         -12.3036  -16.8747   21.5106 C.ar    1  UNL1        0.0001
     12 C         -11.0166  -17.6178   21.3069 C.ar    1  UNL1        0.0013
     13 C         -10.5415  -18.5928   22.3430 C.ar    1  UNL1        0.0160
     14 C          -3.9962  -19.5000   21.4672 C.3     1  UNL1        0.0381
     15 C          -4.7700  -18.5030   22.2780 C.3     1  UNL1        0.0765
     16 N          -6.2522  -18.3710   22.0887 N.3     1  UNL1       -0.2712
     17 C          -6.9606  -19.2360   21.0887 C.3     1  UNL1        0.0722
     18 C          -6.1868  -20.2330   20.2779 C.3     1  UNL1        0.0177
     19 C          -4.7046  -20.3649   20.4672 C.3     1  UNL1        0.0082
     20 C          -5.1711  -19.8330   20.8883 C.3     1  UNL1        0.0192
     21 C          -5.8708  -18.9315   21.6214 C.3     1  UNL1        0.0888
     22 C          -1.5809  -18.6994   20.9427 C.2     1  UNL1       -0.0049
     23 C          -2.5141  -19.6319   21.6564 C.2     1  UNL1       -0.0251
@<TRIPOS>BOND
     1    22    23    2
     2    14    23    1
     3    14    15    1
     4    15    16    1
     5    16    17    1
     6    17    18    1
     7    19    18    1
     8    19    20    1
     9    21    20    1
    10    21     1    1
    11     1     2    1
    12     1     4    1
    13     4     5   ar
    14     5     6   ar
    15     6     7   ar
    16     7     8   ar
    17     8     9   ar
    18     9    10   ar
    19    10    11   ar
    20    11    12   ar
    21    12    13   ar
    22    19    14    1
    23    13     4   ar
    24    21    16    1
    25    13     8   ar
    26     2     3    1
@<TRIPOS>MOLECULE
*****
 23 26 0 0 0
SMALL
GASTEIGER

@<TRIPOS>ATOM
      1 C          -6.4425  -19.6451   21.9631 C.3     1  UNL1        0.1473
      2 O          -6.8856  -20.9425   22.5718 O.3     1  UNL1       -0.3787
      3 H          -7.7286  -20.8119   23.0335 H       1  UNL1        0.2108
      4 C          -7.2828  -18.4136   22.1283 C.ar    1  UNL1        0.0086
      5 C          -6.8250  -17.3091   23.0340 C.ar    1  UNL1        0.0188
      6 C          -7.6653  -16.0776   23.1992 C.ar    1  UNL1        0.0986
      7 N          -8.9634  -15.9505   22.4586 N.ar    1  UNL1       -0.2439
      8 C          -9.4214  -17.0550   21.5527 C.ar    1  UNL1        0.0811
      9 C         -10.7195  -16.9280   20.8121 C.ar    1  UNL1        0.0191
     10 C         -11.1774  -18.0324   19.9063 C.ar    1  UNL1        0.0015
     11 C         -10.3371  -19.2639   19.7412 C.ar    1  UNL1        0.0001
     12 C          -9.0389  -19.3910   20.4818 C.ar    1  UNL1        0.0013
     13 C          -8.5811  -18.2866   21.3876 C.ar    1  UNL1        0.0160
     14 C          -2.3514  -18.7136   20.3369 C.3     1  UNL1        0.0381
     15 C          -3.5561  -18.5906   19.4518 C.3     1  UNL1        0.0765
     16 N          -4.9198  -18.9011   19.9938 N.3     1  UNL1       -0.2712
     17 C          -5.0788  -19.3346   21.4211 C.3     1  UNL1        0.0722
     18 C          -3.8741  -19.4575   22.3062 C.3     1  UNL1        0.0177
     19 C          -2.5103  -19.1470   21.7641 C.3     1  UNL1        0.0082
     20 C          -3.2000  -19.0941   21.3174 C.3     1  UNL1        0.0192
     21 C          -4.2894  -18.9829   20.5170 C.3     1  UNL1        0.0888
     22 C          -0.3406  -17.0852   20.1022 C.2     1  UNL1       -0.0049
     23 C          -0.9877  -18.4031   19.7949 C.2     1  UNL1       -0.0251
@<TRIPOS>BOND
     1    22    23    2
     2    14    23    1
     3    14    15    1
     4    15    16    1
     5    16    17    1
     6    17    18    1
     7    19    18    1
     8    19    20    1
     9    21    20    1
    10    21     1    1
    11     1     2    1
    12     1     4    1
    13     4     5   ar
    14     5     6   ar
    15     6     7   ar
    16     7     8   ar
    17     8     9   ar
    18     9    10   ar
    19    10    11   ar
    20    11    12   ar
    21    12    13   ar
    22    19    14    1
    23    13     4   ar
    24    21    16    1
    25    13     8   ar
    26     2     3    1
@<TRIPOS>MOLECULE
*****
 23 26 0 0 0
SMALL
GASTEIGER

@<TRIPOS>ATOM
      1 C          -8.9295  -18.0573   21.7548 C.3     1  UNL1        0.1473
      2 O          -8.6090  -18.5130   20.3621 O.3     1  UNL1       -0.3787
      3 H          -7.7335  -18.1822   20.1071 H       1  UNL1        0.2108
      4 C          -7.9444  -17.2201   22.5154 C.ar    1  UNL1        0.0086
      5 C          -8.3744  -15.9132   23.1129 C.ar    1  UNL1        0.0188
      6 C          -7.3892  -15.0759   23.8735 C.ar    1  UNL1        0.0986
      7 N          -5.9740  -15.5456   24.0365 N.ar    1  UNL1       -0.2439
      8 C          -5.5439  -16.8525   23.4390 C.ar    1  UNL1        0.0811
      9 C          -4.1287  -17.3222   23.6020 C.ar    1  UNL1        0.0191
     10 C          -3.6987  -18.6291   23.0045 C.ar    1  UNL1        0.0015
     11 C          -4.6839  -19.4663   22.2439 C.ar    1  UNL1        0.0001
     12 C          -6.0991  -18.9967   22.0809 C.ar    1  UNL1        0.0013
     13 C          -6.5291  -17.6898   22.6784 C.ar    1  UNL1        0.0160
     14 C         -12.9662  -18.1809   23.7397 C.3     1  UNL1        0.0381
     15 C         -11.8003  -18.8863   24.3666 C.3     1  UNL1        0.0765
     16 N         -10.4547  -18.8451   23.7050 N.3     1  UNL1       -0.2712
     17 C         -10.2751  -18.0985   22.4164 C.3     1  UNL1        0.0722
     18 C         -11.4410  -17.3931   21.7895 C.3     1  UNL1        0.0177
     19 C         -12.7866  -17.4344   22.4512 C.3     1  UNL1        0.0082
     20 C         -12.1182  -17.8055   22.7567 C.3     1  UNL1        0.0192
     21 C         -11.0639  -18.4433   23.3237 C.3     1  UNL1        0.0888
     22 C         -14.4156  -18.4873   25.8740 C.2     1  UNL1       -0.0049
     23 C         -14.3118  -18.2221   24.4013 C.2     1  UNL1       -0.0251
@<TRIPOS>BOND
     1    22    23    2
     2    14    23    1
     3    14    15    1
     4    15    16    1
     5    16    17    1
     6    17    18    1
     7    19    18    1
     8    19    20    1
     9    21    20    1
    10    21     1    1
    11     1     2    1
    12     1     4    1
    13     4     5   ar
    14     5     6   ar
    15     6     7   ar
    16     7     8   ar
    17     8     9   ar
    18     9    10   ar
    19    10    11   ar
    20    11    12   ar
    21    12    13   ar
    22    19    14    1
    23    13     4   ar
    24    21    16    1
    25    13     8   ar
    26     2     3    1
@<TRIPOS>MOLECULE
*****
 23 26 0 0 0
SMALL
GASTEIGER

@<TRIPOS>ATOM
      1 C          -9.1478  -19.0059   21.0446 C.3     1  UNL1        0.1473
      2 O         -10.3432  -19.0372   20.1389 O.3     1  UNL1       -0.3787
      3 H         -11.1524  -18.9647   20.6688 H       1  UNL1        0.2108
      4 C          -9.3337  -18.8776   22.5275 C.ar    1  UNL1        0.0086
      5 C          -9.9678  -19.9939   23.3032 C.ar    1  UNL1        0.0188
      6 C         -10.1536  -19.8657   24.7861 C.ar    1  UNL1        0.0986
      7 N          -9.7053  -18.6212   25.4933 N.ar    1  UNL1       -0.2439
      8 C          -9.0711  -17.5049   24.7176 C.ar    1  UNL1        0.0811
      9 C          -8.6228  -16.2604   25.4248 C.ar    1  UNL1        0.0191
     10 C          -7.9886  -15.1441   24.6492 C.ar    1  UNL1        0.0015
     11 C          -7.8028  -15.2723   23.1662 C.ar    1  UNL1        0.0001
     12 C          -8.2511  -16.5168   22.4590 C.ar    1  UNL1        0.0013
     13 C          -8.8853  -17.6331   23.2347 C.ar    1  UNL1        0.0160
     14 C          -4.7204  -19.8079   20.9762 C.3     1  UNL1        0.0381
     15 C          -5.3355  -18.9072   19.9464 C.3     1  UNL1        0.0765
     16 N          -6.8112  -18.6398   19.9692 N.3     1  UNL1       -0.2712
     17 C          -7.6721  -19.2732   21.0218 C.3     1  UNL1        0.0722
     18 C          -7.0570  -20.1740   22.0516 C.3     1  UNL1        0.0177
     19 C          -5.5812  -20.4413   22.0287 C.3     1  UNL1        0.0082
     20 C          -5.9636  -19.9549   21.4855 C.3     1  UNL1        0.0192
     21 C          -6.5197  -19.1404   20.5543 C.3     1  UNL1        0.0888
     22 C          -2.3059  -19.1641   21.6873 C.2     1  UNL1       -0.0049
     23 C          -3.2447  -20.0753   20.9534 C.2     1  UNL1       -0.0251
@<TRIPOS>BOND
     1    22    23    2
     2    14    23    1
     3    14    15    1
     4    15    16    1
     5    16    17    1
     6    17    18    1
     7    19    18    1
     8    19    20    1
     9    21    20    1
    10    21     1    1
    11     1     2    1
    12     1     4    1
    13     4     5   ar
    14     5     6   ar
    15     6     7   ar
    16     7     8   ar
    17     8     9   ar
    18     9    10   ar
    19    10    11   ar
    20    11    12   ar
    21    12    13   ar
    22    19    14    1
    23    13     4   ar
    24    21    16    1
    25    13     8   ar
    26     2     3    1
@<TRIPOS>MOLECULE
*****
 23 26 0 0 0
SMALL
GASTEIGER

@<TRIPOS>ATOM
      1 C          -9.1117  -17.1495   22.1414 C.3     1  UNL1        0.1473
      2 O          -8.3717  -15.8449   22.1638 O.3     1  UNL1       -0.3787
      3 H          -7.6641  -15.8632   21.5005 H       1  UNL1        0.2108
      4 C          -8.7032  -18.2271   21.1812 C.ar    1  UNL1        0.0086
      5 C          -9.6774  -18.7271   20.1561 C.ar    1  UNL1        0.0188
      6 C          -9.2688  -19.8047   19.1959 C.ar    1  UNL1        0.0986
      7 N          -7.8860  -20.3823   19.2609 N.ar    1  UNL1       -0.2439
      8 C          -6.9117  -19.8824   20.2861 C.ar    1  UNL1        0.0811
      9 C          -5.5290  -20.4600   20.3511 C.ar    1  UNL1        0.0191
     10 C          -4.5548  -19.9600   21.3762 C.ar    1  UNL1        0.0015
     11 C          -4.9634  -18.8824   22.3363 C.ar    1  UNL1        0.0001
     12 C          -6.3461  -18.3048   22.2714 C.ar    1  UNL1        0.0013
     13 C          -7.3203  -18.8048   21.2462 C.ar    1  UNL1        0.0160
     14 C         -13.1050  -18.0857   23.9926 C.3     1  UNL1        0.0381
     15 C         -11.8690  -18.7778   24.4857 C.3     1  UNL1        0.0765
     16 N         -10.5379  -18.4657   23.8687 N.3     1  UNL1       -0.2712
     17 C         -10.4428  -17.4616   22.7584 C.3     1  UNL1        0.0722
     18 C         -11.6788  -16.7695   22.2652 C.3     1  UNL1        0.0177
     19 C         -13.0100  -17.0816   22.8823 C.3     1  UNL1        0.0082
     20 C         -12.3051  -17.4351   23.1190 C.3     1  UNL1        0.0192
     21 C         -11.1874  -18.0610   23.5649 C.3     1  UNL1        0.0888
     22 C         -14.5727  -18.4703   26.1016 C.2     1  UNL1       -0.0049
     23 C         -14.4361  -18.3977   24.6096 C.2     1  UNL1       -0.0251
@<TRIPOS>BOND
     1    22    23    2
     2    14    23    1
     3    14    15    1
     4    15    16    1
     5    16    17    1
     6    17    18    1
     7    19    18    1
     8    19    20    1
     9    21    20    1
    10    21     1    1
    11     1     2    1
    12     1     4    1
    13     4     5   ar
    14     5     6   ar
    15     6     7   ar
    16     7     8   ar
    17     8     9   ar
    18     9    10   ar
    19    10    11   ar
    20    11    12   ar
    21    12    13   ar
    22    19    14    1
    23    13     4   ar
    24    21    16    1
    25    13     8   ar
    26     2     3    1
@<TRIPOS>MOLECULE
*****
 23 26 0 0 0
SMALL
GASTEIGER

@<TRIPOS>ATOM
      1 C          -8.3309  -20.0314   22.7287 C.3     1  UNL1        0.1473
      2 O          -8.7896  -20.9213   23.8458 O.3     1  UNL1       -0.3787
      3 H          -9.7574  -20.9852   23.8315 H       1  UNL1        0.2108
      4 C          -9.3358  -19.4048   21.8080 C.ar    1  UNL1        0.0086
      5 C          -9.0451  -19.2999   20.3403 C.ar    1  UNL1        0.0188
      6 C         -10.0500  -18.6733   19.4196 C.ar    1  UNL1        0.0986
      7 N         -11.3456  -18.1518   19.9667 N.ar    1  UNL1       -0.2439
      8 C         -11.6363  -18.2567   21.4346 C.ar    1  UNL1        0.0811
      9 C         -12.9319  -17.7352   21.9817 C.ar    1  UNL1        0.0191
     10 C         -13.2226  -17.8402   23.4495 C.ar    1  UNL1        0.0015
     11 C         -12.2177  -18.4667   24.3701 C.ar    1  UNL1        0.0001
     12 C         -10.9221  -18.9882   23.8230 C.ar    1  UNL1        0.0013
     13 C         -10.6314  -18.8833   22.3552 C.ar    1  UNL1        0.0160
     14 C          -4.2799  -19.4729   20.8504 C.3     1  UNL1        0.0381
     15 C          -4.7714  -18.4964   21.8775 C.3     1  UNL1        0.0765
     16 N          -6.1217  -18.6826   22.5036 N.3     1  UNL1       -0.2712
     17 C          -6.9806  -19.8452   22.1026 C.3     1  UNL1        0.0722
     18 C          -6.4891  -20.8217   21.0755 C.3     1  UNL1        0.0177
     19 C          -5.1387  -20.6355   20.4494 C.3     1  UNL1        0.0082
     20 C          -5.4509  -20.1267   21.0165 C.3     1  UNL1        0.0192
     21 C          -5.8954  -19.2438   21.9453 C.3     1  UNL1        0.0888
     22 C          -2.7351  -18.2539   19.1540 C.2     1  UNL1       -0.0049
     23 C          -2.9297  -19.2867   20.2243 C.2     1  UNL1       -0.0251
@<TRIPOS>BOND
     1    22    23    2
     2    14    23    1
     3    14    15    1
     4    15    16    1
     5    16    17    1
     6    17    18    1
     7    19    18    1
     8    19    20    1
     9    21    20    1
    10    21     1    1
    11     1     2    1
    12     1     4    1
    13     4     5   ar
    14     5     6   ar
    15     6     7   ar
    16     7     8   ar
    17     8     9   ar
    18     9    10   ar
    19    10    11   ar
    20    11    12   ar
    21    12    13   ar
    22    19    14    1
    23    13     4   ar
    24    21    16    1
    25    13     8   ar
    26     2     3    1
@<TRIPOS>MOLECULE
*****
 23 26 0 0 0
SMALL
GASTEIGER

@<TRIPOS>ATOM
      1 C          -5.7565  -19.6222   21.0681 C.3     1  UNL1        0.1473
      2 O          -5.5250  -20.8544   20.2446 O.3     1  UNL1       -0.3787
      3 H          -4.5737  -21.0382   20.1980 H       1  UNL1        0.2108
      4 C          -4.5918  -18.8899   21.6659 C.ar    1  UNL1        0.0086
      5 C          -4.5835  -18.5616   23.1295 C.ar    1  UNL1        0.0188
      6 C          -3.4189  -17.8293   23.7273 C.ar    1  UNL1        0.0986
      7 N          -2.2625  -17.4254   22.8615 N.ar    1  UNL1       -0.2439
      8 C          -2.2707  -17.7537   21.3978 C.ar    1  UNL1        0.0811
      9 C          -1.1144  -17.3498   20.5320 C.ar    1  UNL1        0.0191
     10 C          -1.1227  -17.6782   19.0685 C.ar    1  UNL1        0.0015
     11 C          -2.2873  -18.4104   18.4707 C.ar    1  UNL1        0.0001
     12 C          -3.4437  -18.8144   19.3365 C.ar    1  UNL1        0.0013
     13 C          -3.4354  -18.4860   20.8000 C.ar    1  UNL1        0.0160
     14 C          -9.6927  -18.2297   22.7464 C.3     1  UNL1        0.0381
     15 C          -8.9089  -17.3356   21.8319 C.3     1  UNL1        0.0765
     16 N          -7.5968  -17.7998   21.2725 N.3     1  UNL1       -0.2712
     17 C          -7.0685  -19.1581   21.6275 C.3     1  UNL1        0.0722
     18 C          -7.8524  -20.0522   22.5420 C.3     1  UNL1        0.0177
     19 C          -9.1645  -19.5879   23.1014 C.3     1  UNL1        0.0082
     20 C          -8.6993  -19.1335   22.5964 C.3     1  UNL1        0.0192
     21 C          -7.9905  -18.3250   21.7695 C.3     1  UNL1        0.0888
     22 C         -12.2718  -17.9964   22.5367 C.2     1  UNL1       -0.0049
     23 C         -11.0048  -17.7655   23.3058 C.2     1  UNL1       -0.0251
@<TRIPOS>BOND
     1    22    23    2
     2    14    23    1
     3    14    15    1
     4    15    16    1
     5    16    17    1
     6    17    18    1
     7    19    18    1
     8    19    20    1
     9    21    20    1
    10    21     1    1
    11     1     2    1
    12     1     4    1
    13     4     5   ar
    14     5     6   ar
    15     6     7   ar
    16     7     8   ar
    17     8     9   ar
    18     9    10   ar
    19    10    11   ar
    20    11    12   ar
    21    12    13   ar
    22    19    14    1
    23    13     4   ar
    24    21    16    1
    25    13     8   ar
    26     2     3    1
@<TRIPOS>MOLECULE
*****
 23 26 0 0 0
SMALL
GASTEIGER

@<TRIPOS>ATOM
      1 C         -10.5926  -18.5183   24.4728 C.3     1  UNL1        0.1473
      2 O         -11.1140  -19.6724   25.2767 O.3     1  UNL1       -0.3787
      3 H         -11.7620  -20.1664   24.7506 H       1  UNL1        0.2108
      4 C         -11.0929  -18.2897   23.0772 C.ar    1  UNL1        0.0086
      5 C         -12.4195  -17.6257   22.8554 C.ar    1  UNL1        0.0188
      6 C         -12.9198  -17.3971   21.4599 C.ar    1  UNL1        0.0986
      7 N         -12.0935  -17.8325   20.2862 N.ar    1  UNL1       -0.2439
      8 C         -10.7668  -18.4965   20.5080 C.ar    1  UNL1        0.0811
      9 C          -9.9405  -18.9319   19.3343 C.ar    1  UNL1        0.0191
     10 C          -8.6139  -19.5959   19.5561 C.ar    1  UNL1        0.0015
     11 C          -8.1136  -19.8245   20.9516 C.ar    1  UNL1        0.0001
     12 C          -8.9399  -19.3891   22.1253 C.ar    1  UNL1        0.0013
     13 C         -10.2665  -18.7251   21.9035 C.ar    1  UNL1        0.0160
     14 C          -7.6249  -15.6625   26.2858 C.3     1  UNL1        0.0381
     15 C          -7.9787  -15.5538   24.8322 C.3     1  UNL1        0.0765
     16 N          -8.9679  -16.5057   24.2279 N.3     1  UNL1       -0.2712
     17 C          -9.6034  -17.5664   25.0771 C.3     1  UNL1        0.0722
     18 C          -9.2496  -17.6751   26.5307 C.3     1  UNL1        0.0177
     19 C          -8.2603  -16.7232   27.1351 C.3     1  UNL1        0.0082
     20 C          -8.4857  -16.7027   26.3435 C.3     1  UNL1        0.0192
     21 C          -8.8057  -16.6044   25.0290 C.3     1  UNL1        0.0888
     22 C          -5.2000  -14.7457   26.4569 C.2     1  UNL1       -0.0049
     23 C          -6.6357  -14.7107   26.8902 C.2     1  UNL1       -0.0251
@<TRIPOS>BOND
     1    22    23    2
     2    14    23    1
     3    14    15    1
     4    15    16    1
     5    16    17    1
     6    17    18    1
     7    19    18    1
     8    19    20    1
     9    21    20    1
    10    21     1    1
    11     1     2    1
    12     1     4    1
    13     4     5   ar
    14     5     6   ar
    15     6     7   ar
    16     7     8   ar
    17     8     9   ar
    18     9    10   ar
    19    10    11   ar
    20    11    12   ar
    21    12    13   ar
    22    19    14    1
    23    13     4   ar
    24    21    16    1
    25    13     8   ar
    26     2     3    1
@<TRIPOS>MOLECULE
*****
 23 26 0 0 0
SMALL
GASTEIGER

@<TRIPOS>ATOM
      1 C          -8.6271  -16.9503   22.0078 C.3     1  UNL1        0.1473
      2 O          -8.2314  -15.5473   21.6542 O.3     1  UNL1       -0.3787
      3 H          -7.3700  -15.5570   21.2083 H       1  UNL1        0.2108
      4 C          -7.7226  -18.0951   21.6594 C.ar    1  UNL1        0.0086
      5 C          -6.4386  -18.2915   22.4095 C.ar    1  UNL1        0.0188
      6 C          -5.5341  -19.4363   22.0611 C.ar    1  UNL1        0.0986
      7 N          -5.9136  -20.3846   20.9626 N.ar    1  UNL1       -0.2439
      8 C          -7.1977  -20.1882   20.2125 C.ar    1  UNL1        0.0811
      9 C          -7.5772  -21.1365   19.1141 C.ar    1  UNL1        0.0191
     10 C          -8.8612  -20.9401   18.3640 C.ar    1  UNL1        0.0015
     11 C          -9.7657  -19.7953   18.7124 C.ar    1  UNL1        0.0001
     12 C          -9.3862  -18.8470   19.8109 C.ar    1  UNL1        0.0013
     13 C          -8.1022  -19.0434   20.5609 C.ar    1  UNL1        0.0160
     14 C         -12.7115  -17.9299   23.6228 C.3     1  UNL1        0.0381
     15 C         -11.5294  -18.7652   24.0161 C.3     1  UNL1        0.0765
     16 N         -10.1679  -18.4388   23.4778 N.3     1  UNL1       -0.2712
     17 C          -9.9886  -17.2768   22.5461 C.3     1  UNL1        0.0722
     18 C         -11.1707  -16.4415   22.1529 C.3     1  UNL1        0.0177
     19 C         -12.5322  -16.7680   22.6912 C.3     1  UNL1        0.0082
     20 C         -11.8546  -17.1967   22.8781 C.3     1  UNL1        0.0192
     21 C         -10.7856  -17.9521   23.2337 C.3     1  UNL1        0.0888
     22 C         -14.2794  -18.4036   25.6395 C.2     1  UNL1       -0.0049
     23 C         -14.0730  -18.2563   24.1611 C.2     1  UNL1       -0.0251
@<TRIPOS>BOND
     1    22    23    2
     2    14    23    1
     3    14    15    1
     4    15    16    1
     5    16    17    1
     6    17    18    1
     7    19    18    1
     8    19    20    1
     9    21    20    1
    10    21     1    1
    11     1     2    1
    12     1     4    1
    13     4     5   ar
    14     5     6   ar
    15     6     7   ar
    16     7     8   ar
    17     8     9   ar
    18     9    10   ar
    19    10    11   ar
    20    11    12   ar
    21    12    13   ar
    22    19    14    1
    23    13     4   ar
    24    21    16    1
    25    13     8   ar
    26     2     3    1
