@<TRIPOS>MOLECULE
*****
 26 29 0 0 0
SMALL
GASTEIGER

@<TRIPOS>ATOM
      1 C          -3.8886  -17.5786   23.1878 C.3     1  UNL1        0.1490
      2 N          -3.0731  -18.0965   20.7760 N.am    1  UNL1       -0.2396
      3 C          -2.8812  -17.4004   22.0908 C.2     1  UNL1        0.2421
      4 O          -1.6820  -16.5261   22.3086 O.2     1  UNL1       -0.2735
      5 C          -7.9396  -19.7284   19.5370 C.3     1  UNL1        0.0527
      6 C          -6.5092  -19.7209   19.9887 C.ar    1  UNL1        0.0678
      7 C          -5.7264  -20.9115   20.4574 C.ar    1  UNL1        0.0528
      8 S          -4.3439  -20.4479   20.8094 S.2     1  UNL1       -0.0510
      9 C          -4.2723  -18.9708   20.5582 C.ar    1  UNL1        0.1685
     10 N          -5.6106  -18.5215   20.0510 N.ar    1  UNL1       -0.2281
     11 C          -2.0657  -17.9183   19.6791 C.3     1  UNL1        0.0817
     12 C          -1.7478  -17.7300   18.2253 C.3     1  UNL1        0.0220
     13 C          -0.6387  -17.7979   19.2328 C.3     1  UNL1        0.0220
     14 S          -4.8214  -16.4576   23.5388 S.3     1  UNL1       -0.0834
     15 C          -6.3027  -16.6932   23.5602 C.ar    1  UNL1        0.1288
     16 C          -7.1759  -15.8945   24.4819 C.ar    1  UNL1        0.0289
     17 C          -8.6571  -16.1302   24.5032 C.ar    1  UNL1        0.0230
     18 C          -9.2650  -17.1645   23.6029 C.ar    1  UNL1        0.1029
     19 N          -8.3918  -17.9632   22.6813 N.ar    1  UNL1       -0.1475
     20 N          -6.9106  -17.7276   22.6599 N.ar    1  UNL1       -0.1417
     21 C         -10.7463  -17.4001   23.6243 C.ar    1  UNL1        0.0194
     22 C         -11.6489  -16.5800   22.7509 C.ar    1  UNL1        0.0016
     23 C         -13.1302  -16.8156   22.7723 C.ar    1  UNL1        0.0000
     24 C         -13.7088  -17.8714   23.6671 C.ar    1  UNL1        0.0000
     25 C         -12.8061  -18.6915   24.5404 C.ar    1  UNL1        0.0000
     26 C         -11.3250  -18.4559   24.5190 C.ar    1  UNL1        0.0016
@<TRIPOS>BOND
     1     5     6    1
     2     6     7   ar
     3     7     8   ar
     4     8     9   ar
     5     9     2    1
     6     2     3   am
     7     3     4    2
     8     3     1    1
     9     1    14    1
    10    14    15    1
    11    15    16   ar
    12    16    17   ar
    13    17    18   ar
    14    18    21    1
    15    21    22   ar
    16    22    23   ar
    17    23    24   ar
    18    24    25   ar
    19    25    26   ar
    20    18    19   ar
    21    19    20   ar
    22     2    11    1
    23    11    12    1
    24    12    13    1
    25     9    10   ar
    26    10     6   ar
    27    20    15   ar
    28    13    11    1
    29    26    21   ar
@<TRIPOS>MOLECULE
*****
 26 29 0 0 0
SMALL
GASTEIGER

@<TRIPOS>ATOM
      1 C          -4.8530  -19.8221   20.8033 C.3     1  UNL1        0.1490
      2 N          -2.8163  -18.2365   21.0998 N.am    1  UNL1       -0.2396
      3 C          -3.5520  -19.2704   20.3001 C.2     1  UNL1        0.2421
      4 O          -2.9868  -19.7527   18.9970 O.2     1  UNL1       -0.2735
      5 C          -5.6726  -15.5794   24.6583 C.3     1  UNL1        0.0527
      6 C          -4.6944  -16.5329   24.0385 C.ar    1  UNL1        0.0678
      7 C          -3.8081  -17.4911   24.7776 C.ar    1  UNL1        0.0528
      8 S          -2.9967  -18.2459   23.7667 S.2     1  UNL1       -0.0510
      9 C          -3.3815  -17.7542   22.4029 C.ar    1  UNL1        0.1685
     10 N          -4.4307  -16.6955   22.5709 N.ar    1  UNL1       -0.2281
     11 C          -1.5154  -17.6849   20.5965 C.3     1  UNL1        0.0817
     12 C          -0.2395  -17.8626   19.8282 C.3     1  UNL1        0.0220
     13 C          -0.5381  -16.5517   20.4932 C.3     1  UNL1        0.0220
     14 S          -6.1138  -19.6014   20.0214 S.3     1  UNL1       -0.0834
     15 C          -7.4057  -19.3427   20.7386 C.ar    1  UNL1        0.1288
     16 C          -7.4970  -19.5580   22.2202 C.ar    1  UNL1        0.0289
     17 C          -8.7888  -19.2993   22.9374 C.ar    1  UNL1        0.0230
     18 C          -9.9892  -18.8254   22.1729 C.ar    1  UNL1        0.1029
     19 N          -9.8978  -18.6101   20.6913 N.ar    1  UNL1       -0.1475
     20 N          -8.6061  -18.8688   19.9741 N.ar    1  UNL1       -0.1417
     21 C         -11.2810  -18.5667   22.8902 C.ar    1  UNL1        0.0194
     22 C         -11.4662  -19.0478   24.2988 C.ar    1  UNL1        0.0016
     23 C         -12.7580  -18.7891   25.0160 C.ar    1  UNL1        0.0000
     24 C         -13.8646  -18.0494   24.3246 C.ar    1  UNL1        0.0000
     25 C         -13.6794  -17.5683   22.9159 C.ar    1  UNL1        0.0000
     26 C         -12.3877  -17.8270   22.1987 C.ar    1  UNL1        0.0016
@<TRIPOS>BOND
     1     5     6    1
     2     6     7   ar
     3     7     8   ar
     4     8     9   ar
     5     9     2    1
     6     2     3   am
     7     3     4    2
     8     3     1    1
     9     1    14    1
    10    14    15    1
    11    15    16   ar
    12    16    17   ar
    13    17    18   ar
    14    18    21    1
    15    21    22   ar
    16    22    23   ar
    17    23    24   ar
    18    24    25   ar
    19    25    26   ar
    20    18    19   ar
    21    19    20   ar
    22     2    11    1
    23    11    12    1
    24    12    13    1
    25     9    10   ar
    26    10     6   ar
    27    20    15   ar
    28    13    11    1
    29    26    21   ar
@<TRIPOS>MOLECULE
*****
 26 29 0 0 0
SMALL
GASTEIGER

@<TRIPOS>ATOM
      1 C           8.8016   -4.3572   22.2620 C.3     1  UNL1        0.1490
      2 N           7.6727   -5.2497   24.4252 N.am    1  UNL1       -0.2396
      3 C           8.6342   -5.4374   23.2893 C.2     1  UNL1        0.2421
      4 O           9.4283   -6.7053   23.1806 O.2     1  UNL1       -0.2735
      5 C           3.9880   -1.5493   23.6431 C.3     1  UNL1        0.0527
      6 C           5.1850   -2.2809   24.1744 C.ar    1  UNL1        0.0678
      7 C           6.1283   -1.7803   25.2277 C.ar    1  UNL1        0.0528
      8 S           7.1750   -2.8315   25.4499 S.2     1  UNL1       -0.0510
      9 C           6.8786   -3.9817   24.5338 C.ar    1  UNL1        0.1685
     10 N           5.6487   -3.6414   23.7455 N.ar    1  UNL1       -0.2281
     11 C           7.5053   -6.3298   25.4524 C.3     1  UNL1        0.0817
     12 C           7.0827   -6.7631   26.8248 C.3     1  UNL1        0.0220
     13 C           7.6380   -7.7675   25.8591 C.3     1  UNL1        0.0220
     14 S           8.1208   -4.4762   20.9308 S.3     1  UNL1       -0.0834
     15 C           6.9366   -3.6117   20.6141 C.ar    1  UNL1        0.1288
     16 C           7.0704   -2.1179   20.6388 C.ar    1  UNL1        0.0289
     17 C           5.8862   -1.2535   20.3221 C.ar    1  UNL1        0.0230
     18 C           4.5682   -1.8828   19.9806 C.ar    1  UNL1        0.1029
     19 N           4.4343   -3.3766   19.9559 N.ar    1  UNL1       -0.1475
     20 N           5.6185   -4.2410   20.2726 N.ar    1  UNL1       -0.1417
     21 C           3.3839   -1.0182   19.6639 C.ar    1  UNL1        0.0194
     22 C           3.4700   -0.0019   18.5641 C.ar    1  UNL1        0.0016
     23 C           2.2858    0.8626   18.2474 C.ar    1  UNL1        0.0000
     24 C           1.0155    0.7108   19.0306 C.ar    1  UNL1        0.0000
     25 C           0.9294   -0.3056   20.1304 C.ar    1  UNL1        0.0000
     26 C           2.1136   -1.1701   20.4471 C.ar    1  UNL1        0.0016
@<TRIPOS>BOND
     1     5     6    1
     2     6     7   ar
     3     7     8   ar
     4     8     9   ar
     5     9     2    1
     6     2     3   am
     7     3     4    2
     8     3     1    1
     9     1    14    1
    10    14    15    1
    11    15    16   ar
    12    16    17   ar
    13    17    18   ar
    14    18    21    1
    15    21    22   ar
    16    22    23   ar
    17    23    24   ar
    18    24    25   ar
    19    25    26   ar
    20    18    19   ar
    21    19    20   ar
    22     2    11    1
    23    11    12    1
    24    12    13    1
    25     9    10   ar
    26    10     6   ar
    27    20    15   ar
    28    13    11    1
    29    26    21   ar
@<TRIPOS>MOLECULE
*****
 26 29 0 0 0
SMALL
GASTEIGER

@<TRIPOS>ATOM
      1 C           4.1100    0.5436   18.6470 C.3     1  UNL1        0.1490
      2 N           4.0837   -1.9223   19.4649 N.am    1  UNL1       -0.2396
      3 C           4.0349   -0.9241   18.3463 C.2     1  UNL1        0.2421
      4 O           3.9109   -1.3935   16.9271 O.2     1  UNL1       -0.2735
      5 C           2.8733   -0.3489   24.3578 C.3     1  UNL1        0.0527
      6 C           3.6513   -0.7297   23.1332 C.ar    1  UNL1        0.0678
      7 C           5.1457   -0.7313   23.0032 C.ar    1  UNL1        0.0528
      8 S           5.4895   -1.1783   21.6132 S.2     1  UNL1       -0.0510
      9 C           4.2077   -1.4528   20.8841 C.ar    1  UNL1        0.1685
     10 N           3.0717   -1.1756   21.8235 N.ar    1  UNL1       -0.2281
     11 C           4.0086   -3.3898   19.1642 C.3     1  UNL1        0.0817
     12 C           4.6750   -4.6645   18.7386 C.3     1  UNL1        0.0220
     13 C           3.2119   -4.6572   19.0689 C.3     1  UNL1        0.0220
     14 S           2.8703    1.3859   18.5871 S.3     1  UNL1       -0.0834
     15 C           2.0869    1.6575   19.8372 C.ar    1  UNL1        0.1288
     16 C           2.7353    2.3654   20.9897 C.ar    1  UNL1        0.0289
     17 C           1.9519    2.6369   22.2397 C.ar    1  UNL1        0.0230
     18 C           0.5201    2.2005   22.3371 C.ar    1  UNL1        0.1029
     19 N          -0.1283    1.4926   21.1846 N.ar    1  UNL1       -0.1475
     20 N           0.6551    1.2211   19.9346 N.ar    1  UNL1       -0.1417
     21 C          -0.2633    2.4721   23.5872 C.ar    1  UNL1        0.0194
     22 C           0.0677    1.7397   24.8537 C.ar    1  UNL1        0.0016
     23 C          -0.7158    2.0112   26.1038 C.ar    1  UNL1        0.0000
     24 C          -1.8301    3.0152   26.0872 C.ar    1  UNL1        0.0000
     25 C          -2.1611    3.7476   24.8207 C.ar    1  UNL1        0.0000
     26 C          -1.3777    3.4760   23.5707 C.ar    1  UNL1        0.0016
@<TRIPOS>BOND
     1     5     6    1
     2     6     7   ar
     3     7     8   ar
     4     8     9   ar
     5     9     2    1
     6     2     3   am
     7     3     4    2
     8     3     1    1
     9     1    14    1
    10    14    15    1
    11    15    16   ar
    12    16    17   ar
    13    17    18   ar
    14    18    21    1
    15    21    22   ar
    16    22    23   ar
    17    23    24   ar
    18    24    25   ar
    19    25    26   ar
    20    18    19   ar
    21    19    20   ar
    22     2    11    1
    23    11    12    1
    24    12    13    1
    25     9    10   ar
    26    10     6   ar
    27    20    15   ar
    28    13    11    1
    29    26    21   ar
@<TRIPOS>MOLECULE
*****
 26 29 0 0 0
SMALL
GASTEIGER

@<TRIPOS>ATOM
      1 C           3.1369    1.9825   28.0198 C.3     1  UNL1        0.1490
      2 N           1.1265    0.7520   29.1126 N.am    1  UNL1       -0.2396
      3 C           1.7260    1.4786   27.9453 C.2     1  UNL1        0.2421
      4 O           0.9146    1.7014   26.7035 O.2     1  UNL1       -0.2735
      5 C           4.3472   -1.4303   32.6827 C.3     1  UNL1        0.0527
      6 C           3.4182   -0.4739   31.9954 C.ar    1  UNL1        0.0678
      7 C           2.9545    0.8465   32.5353 C.ar    1  UNL1        0.0528
      8 S           2.0395    1.4665   31.5211 S.2     1  UNL1       -0.0510
      9 C           1.9378    0.5292   30.3544 C.ar    1  UNL1        0.1685
     10 N           2.7899   -0.6700   30.6476 N.ar    1  UNL1       -0.2281
     11 C          -0.2844    0.2482   29.0380 C.3     1  UNL1        0.0817
     12 C          -1.2688   -0.7993   28.6095 C.3     1  UNL1        0.0220
     13 C          -1.7438    0.4231   29.3375 C.3     1  UNL1        0.0220
     14 S           4.2642    1.1339   27.5109 S.3     1  UNL1       -0.0834
     15 C           4.1393    0.4345   26.1898 C.ar    1  UNL1        0.1288
     16 C           4.2357   -1.0607   26.1207 C.ar    1  UNL1        0.0289
     17 C           4.1108   -1.7600   24.7996 C.ar    1  UNL1        0.0230
     18 C           3.8895   -0.9641   23.5476 C.ar    1  UNL1        0.1029
     19 N           3.7931    0.5312   23.6167 N.ar    1  UNL1       -0.1475
     20 N           3.9180    1.2305   24.9378 N.ar    1  UNL1       -0.1417
     21 C           3.7646   -1.6634   22.2264 C.ar    1  UNL1        0.0194
     22 C           4.4754   -2.9641   21.9962 C.ar    1  UNL1        0.0016
     23 C           4.3505   -3.6635   20.6751 C.ar    1  UNL1        0.0000
     24 C           3.5148   -3.0621   19.5842 C.ar    1  UNL1        0.0000
     25 C           2.8040   -1.7614   19.8145 C.ar    1  UNL1        0.0000
     26 C           2.9289   -1.0621   21.1356 C.ar    1  UNL1        0.0016
@<TRIPOS>BOND
     1     5     6    1
     2     6     7   ar
     3     7     8   ar
     4     8     9   ar
     5     9     2    1
     6     2     3   am
     7     3     4    2
     8     3     1    1
     9     1    14    1
    10    14    15    1
    11    15    16   ar
    12    16    17   ar
    13    17    18   ar
    14    18    21    1
    15    21    22   ar
    16    22    23   ar
    17    23    24   ar
    18    24    25   ar
    19    25    26   ar
    20    18    19   ar
    21    19    20   ar
    22     2    11    1
    23    11    12    1
    24    12    13    1
    25     9    10   ar
    26    10     6   ar
    27    20    15   ar
    28    13    11    1
    29    26    21   ar
@<TRIPOS>MOLECULE
*****
 26 29 0 0 0
SMALL
GASTEIGER

@<TRIPOS>ATOM
      1 C           7.9562   -2.4151   25.1145 C.3     1  UNL1        0.1490
      2 N           8.0242   -4.8266   24.1499 N.am    1  UNL1       -0.2396
      3 C           8.1841   -3.8852   25.3067 C.2     1  UNL1        0.2421
      4 O           8.5719   -4.4139   26.6559 O.2     1  UNL1       -0.2735
      5 C           5.1829   -3.5178   19.8962 C.3     1  UNL1        0.0527
      6 C           6.3304   -3.6963   20.8456 C.ar    1  UNL1        0.0678
      7 C           7.7488   -3.2724   20.6039 C.ar    1  UNL1        0.0528
      8 S           8.5559   -3.6442   21.8123 S.2     1  UNL1       -0.0510
      9 C           7.6364   -4.2979   22.8008 C.ar    1  UNL1        0.1685
     10 N           6.2609   -4.3301   22.2033 N.ar    1  UNL1       -0.2281
     11 C           8.2522   -6.2966   24.3423 C.3     1  UNL1        0.0817
     12 C           7.9477   -7.5746   25.0661 C.3     1  UNL1        0.0220
     13 C           8.9515   -7.5648   23.9515 C.3     1  UNL1        0.0220
     14 S           6.5992   -1.8274   25.3657 S.3     1  UNL1       -0.0834
     15 C           5.7311   -1.4238   24.2109 C.ar    1  UNL1        0.1288
     16 C           4.2511   -1.6619   24.2661 C.ar    1  UNL1        0.0289
     17 C           3.3831   -1.2584   23.1113 C.ar    1  UNL1        0.0230
     18 C           3.9949   -0.6168   21.9014 C.ar    1  UNL1        0.1029
     19 N           5.4749   -0.3787   21.8462 N.ar    1  UNL1       -0.1475
     20 N           6.3429   -0.7822   23.0010 N.ar    1  UNL1       -0.1417
     21 C           3.1268   -0.2132   20.7465 C.ar    1  UNL1        0.0194
     22 C           1.6336   -0.2323   20.8881 C.ar    1  UNL1        0.0016
     23 C           0.7655    0.1712   19.7333 C.ar    1  UNL1        0.0000
     24 C           1.3906    0.5939   18.4369 C.ar    1  UNL1        0.0000
     25 C           2.8838    0.6130   18.2953 C.ar    1  UNL1        0.0000
     26 C           3.7519    0.2094   19.4501 C.ar    1  UNL1        0.0016
@<TRIPOS>BOND
     1     5     6    1
     2     6     7   ar
     3     7     8   ar
     4     8     9   ar
     5     9     2    1
     6     2     3   am
     7     3     4    2
     8     3     1    1
     9     1    14    1
    10    14    15    1
    11    15    16   ar
    12    16    17   ar
    13    17    18   ar
    14    18    21    1
    15    21    22   ar
    16    22    23   ar
    17    23    24   ar
    18    24    25   ar
    19    25    26   ar
    20    18    19   ar
    21    19    20   ar
    22     2    11    1
    23    11    12    1
    24    12    13    1
    25     9    10   ar
    26    10     6   ar
    27    20    15   ar
    28    13    11    1
    29    26    21   ar
@<TRIPOS>MOLECULE
*****
 26 29 0 0 0
SMALL
GASTEIGER

@<TRIPOS>ATOM
      1 C           6.6812   -0.1620   18.0955 C.3     1  UNL1        0.1490
      2 N           4.1223   -0.0913   18.5393 N.am    1  UNL1       -0.2396
      3 C           5.3763    0.5769   18.0587 C.2     1  UNL1        0.2421
      4 O           5.3254    1.9839   17.5414 O.2     1  UNL1       -0.2735
      5 C           4.5511   -5.3496   18.7563 C.3     1  UNL1        0.0527
      6 C           4.3702   -3.9153   19.1564 C.ar    1  UNL1        0.0678
      7 C           4.1324   -3.4118   20.5492 C.ar    1  UNL1        0.0528
      8 S           4.0106   -1.9180   20.4875 S.2     1  UNL1       -0.0510
      9 C           4.1731   -1.4983   19.0566 C.ar    1  UNL1        0.1685
     10 N           4.3954   -2.7327   18.2340 N.ar    1  UNL1       -0.2281
     11 C           2.8174    0.6476   18.5025 C.3     1  UNL1        0.0817
     12 C           1.3183    0.6398   18.5525 C.3     1  UNL1        0.0220
     13 C           2.0565    1.9352   18.3887 C.3     1  UNL1        0.0220
     14 S           7.5451   -0.0978   19.3200 S.3     1  UNL1       -0.0834
     15 C           7.6706   -1.2965   20.2131 C.ar    1  UNL1        0.1288
     16 C           7.8702   -2.6583   19.6169 C.ar    1  UNL1        0.0289
     17 C           7.9957   -3.8569   20.5100 C.ar    1  UNL1        0.0230
     18 C           7.9215   -3.6937   21.9992 C.ar    1  UNL1        0.1029
     19 N           7.7219   -2.3318   22.5954 N.ar    1  UNL1       -0.1475
     20 N           7.5964   -1.1333   21.7023 N.ar    1  UNL1       -0.1417
     21 C           8.0470   -4.8924   22.8923 C.ar    1  UNL1        0.0194
     22 C           7.4028   -4.8891   24.2469 C.ar    1  UNL1        0.0016
     23 C           7.5283   -6.0878   25.1399 C.ar    1  UNL1        0.0000
     24 C           8.2979   -7.2897   24.6783 C.ar    1  UNL1        0.0000
     25 C           8.9421   -7.2929   23.3236 C.ar    1  UNL1        0.0000
     26 C           8.8166   -6.0943   22.4306 C.ar    1  UNL1        0.0016
@<TRIPOS>BOND
     1     5     6    1
     2     6     7   ar
     3     7     8   ar
     4     8     9   ar
     5     9     2    1
     6     2     3   am
     7     3     4    2
     8     3     1    1
     9     1    14    1
    10    14    15    1
    11    15    16   ar
    12    16    17   ar
    13    17    18   ar
    14    18    21    1
    15    21    22   ar
    16    22    23   ar
    17    23    24   ar
    18    24    25   ar
    19    25    26   ar
    20    18    19   ar
    21    19    20   ar
    22     2    11    1
    23    11    12    1
    24    12    13    1
    25     9    10   ar
    26    10     6   ar
    27    20    15   ar
    28    13    11    1
    29    26    21   ar
@<TRIPOS>MOLECULE
*****
 26 29 0 0 0
SMALL
GASTEIGER

@<TRIPOS>ATOM
      1 C           4.7484   -0.9572   28.7730 C.3     1  UNL1        0.1490
      2 N           3.8850   -0.5602   31.1911 N.am    1  UNL1       -0.2396
      3 C           4.9188   -1.1128   30.2553 C.2     1  UNL1        0.2421
      4 O           6.1230   -1.8209   30.8015 O.2     1  UNL1       -0.2735
      5 C          -0.7638    0.3823   28.8714 C.3     1  UNL1        0.0527
      6 C           0.5440    0.5812   29.5786 C.ar    1  UNL1        0.0678
      7 C           1.1115    1.8943   30.0298 C.ar    1  UNL1        0.0528
      8 S           2.4321    1.6266   30.6887 S.2     1  UNL1       -0.0510
      9 C           2.6808    0.1480   30.6448 C.ar    1  UNL1        0.1685
     10 N           1.5138   -0.4981   29.9587 N.ar    1  UNL1       -0.2281
     11 C           4.0554   -0.7157   32.6732 C.3     1  UNL1        0.0817
     12 C           4.2411   -1.5949   33.8743 C.3     1  UNL1        0.0220
     13 C           4.1649   -0.1060   34.0393 C.3     1  UNL1        0.0220
     14 S           5.7391   -1.5802   27.8348 S.3     1  UNL1       -0.0834
     15 C           5.3568   -1.8465   26.4089 C.ar    1  UNL1        0.1288
     16 C           4.2054   -1.1100   25.7911 C.ar    1  UNL1        0.0289
     17 C           3.8232   -1.3763   24.3653 C.ar    1  UNL1        0.0230
     18 C           4.5923   -2.3791   23.5573 C.ar    1  UNL1        0.1029
     19 N           5.7437   -3.1156   24.1752 N.ar    1  UNL1       -0.1475
     20 N           6.1260   -2.8493   25.6010 N.ar    1  UNL1       -0.1417
     21 C           4.2100   -2.6454   22.1315 C.ar    1  UNL1        0.0194
     22 C           3.4668   -1.6049   21.3474 C.ar    1  UNL1        0.0016
     23 C           3.0845   -1.8712   19.9215 C.ar    1  UNL1        0.0000
     24 C           3.4455   -3.1781   19.2798 C.ar    1  UNL1        0.0000
     25 C           4.1888   -4.2186   20.0640 C.ar    1  UNL1        0.0000
     26 C           4.5711   -3.9523   21.4897 C.ar    1  UNL1        0.0016
@<TRIPOS>BOND
     1     5     6    1
     2     6     7   ar
     3     7     8   ar
     4     8     9   ar
     5     9     2    1
     6     2     3   am
     7     3     4    2
     8     3     1    1
     9     1    14    1
    10    14    15    1
    11    15    16   ar
    12    16    17   ar
    13    17    18   ar
    14    18    21    1
    15    21    22   ar
    16    22    23   ar
    17    23    24   ar
    18    24    25   ar
    19    25    26   ar
    20    18    19   ar
    21    19    20   ar
    22     2    11    1
    23    11    12    1
    24    12    13    1
    25     9    10   ar
    26    10     6   ar
    27    20    15   ar
    28    13    11    1
    29    26    21   ar
@<TRIPOS>MOLECULE
*****
 26 29 0 0 0
SMALL
GASTEIGER

@<TRIPOS>ATOM
      1 C          -0.4235    3.8037   21.9134 C.3     1  UNL1        0.1490
      2 N          -0.2807    2.9188   24.3520 N.am    1  UNL1       -0.2396
      3 C          -0.9950    3.7107   23.2972 C.2     1  UNL1        0.2421
      4 O          -2.2808    4.4096   23.6261 O.2     1  UNL1       -0.2735
      5 C           3.2268   -0.8412   23.1516 C.3     1  UNL1        0.0527
      6 C           2.6174    0.4916   23.4713 C.ar    1  UNL1        0.0678
      7 C           3.3504    1.7972   23.5626 C.ar    1  UNL1        0.0528
      8 S           2.3539    2.8653   23.9036 S.2     1  UNL1       -0.0510
      9 C           1.0052    2.2199   24.0231 C.ar    1  UNL1        0.1685
     10 N           1.1680    0.7529   23.7560 N.ar    1  UNL1       -0.2281
     11 C          -0.8522    2.8259   25.7357 C.3     1  UNL1        0.0817
     12 C          -1.0708    2.0515   27.0016 C.3     1  UNL1        0.0220
     13 C          -1.6235    3.4393   26.8665 C.3     1  UNL1        0.0220
     14 S          -0.7684    2.7646   20.8881 S.3     1  UNL1       -0.0834
     15 C           0.2570    1.7517   20.4725 C.ar    1  UNL1        0.1288
     16 C           1.5884    2.2032   19.9496 C.ar    1  UNL1        0.0289
     17 C           2.6136    1.1903   19.5340 C.ar    1  UNL1        0.0230
     18 C           2.3076   -0.2742   19.6413 C.ar    1  UNL1        0.1029
     19 N           0.9762   -0.7258   20.1643 N.ar    1  UNL1       -0.1475
     20 N          -0.0491    0.2871   20.5799 N.ar    1  UNL1       -0.1417
     21 C           3.3329   -1.2871   19.2257 C.ar    1  UNL1        0.0194
     22 C           3.1805   -2.7212   19.6380 C.ar    1  UNL1        0.0016
     23 C           4.2059   -3.7342   19.2224 C.ar    1  UNL1        0.0000
     24 C           5.3836   -3.3129   18.3945 C.ar    1  UNL1        0.0000
     25 C           5.5360   -1.8787   17.9822 C.ar    1  UNL1        0.0000
     26 C           4.5107   -0.8658   18.3978 C.ar    1  UNL1        0.0016
@<TRIPOS>BOND
     1     5     6    1
     2     6     7   ar
     3     7     8   ar
     4     8     9   ar
     5     9     2    1
     6     2     3   am
     7     3     4    2
     8     3     1    1
     9     1    14    1
    10    14    15    1
    11    15    16   ar
    12    16    17   ar
    13    17    18   ar
    14    18    21    1
    15    21    22   ar
    16    22    23   ar
    17    23    24   ar
    18    24    25   ar
    19    25    26   ar
    20    18    19   ar
    21    19    20   ar
    22     2    11    1
    23    11    12    1
    24    12    13    1
    25     9    10   ar
    26    10     6   ar
    27    20    15   ar
    28    13    11    1
    29    26    21   ar
