@<TRIPOS>MOLECULE
*****
 25 27 0 0 0
SMALL
GASTEIGER

@<TRIPOS>ATOM
      1 C          -8.5470  -18.4380   22.2985 C.3     1  UNL1        0.1398
      2 O          -8.7493  -19.8636   21.8785 O.3     1  UNL1       -0.3772
      3 H          -9.6526  -20.1405   22.0986 H       1  UNL1        0.2112
      4 C          -9.9569  -18.3879   22.8081 C.ar    1  UNL1        0.0069
      5 C         -11.0601  -17.9016   21.9157 C.ar    1  UNL1       -0.0008
      6 C         -12.4700  -17.8516   22.4254 C.ar    1  UNL1        0.0112
      7 C         -12.7766  -18.2879   23.8274 C.ar    1  UNL1        0.0577
      8 CL        -14.1866  -18.2379   24.3370 Cl      1  UNL1       -0.0822
      9 C         -11.6734  -18.7742   24.7197 C.ar    1  UNL1        0.0112
     10 C         -10.2636  -18.8242   24.2101 C.ar    1  UNL1       -0.0008
     11 C          -7.1371  -18.4879   21.7889 C.ar    1  UNL1        0.0069
     12 C          -6.8652  -18.9080   20.3748 C.ar    1  UNL1       -0.0017
     13 C          -5.4553  -18.9580   19.8652 C.ar    1  UNL1       -0.0004
     14 C          -4.3173  -18.5879   20.7697 C.ar    1  UNL1       -0.0005
     15 C          -4.5892  -18.1679   22.1838 C.ar    1  UNL1       -0.0004
     16 C          -5.9992  -18.1179   22.6934 C.ar    1  UNL1       -0.0017
     17 C          -2.9074  -18.6379   20.2601 C.2     1  UNL1        0.0249
     18 C          -1.7615  -19.3589   20.9059 C.2     1  UNL1        0.1194
     19 N          -0.5418  -19.1423   20.0602 N.2     1  UNL1       -0.1510
     20 N          -0.9339  -18.2873   18.8917 N.2     1  UNL1       -0.1695
     21 C          -2.3959  -17.9756   19.0153 C.3     1  UNL1        0.1771
     22 N          -8.2905  -15.9264   21.6851 N.3     1  UNL1       -0.3186
     23 C          -8.3446  -17.0123   22.7185 C.3     1  UNL1        0.1010
     24 H          -8.1485  -15.0268   22.1443 H       1  UNL1        0.1189
     25 H          -9.1678  -15.9079   21.1650 H       1  UNL1        0.1189
@<TRIPOS>BOND
     1    22    23    1
     2    23     1    1
     3     1     2    1
     4     1     4    1
     5     4     5   ar
     6     5     6   ar
     7     6     7   ar
     8     7     8    1
     9     7     9   ar
    10     9    10   ar
    11     1    11    1
    12    11    12   ar
    13    12    13   ar
    14    13    14   ar
    15    14    17    1
    16    17    18    2
    17    18    19    1
    18    19    20    2
    19    20    21    1
    20    14    15   ar
    21    15    16   ar
    22    10     4   ar
    23    16    11   ar
    24    21    17    1
    25    22    24    1
    26    22    25    1
    27     2     3    1
@<TRIPOS>MOLECULE
*****
 25 27 0 0 0
SMALL
GASTEIGER

@<TRIPOS>ATOM
      1 C          -8.5784  -18.4447   22.3343 C.3     1  UNL1        0.1398
      2 O          -8.7641  -19.8857   21.9616 O.3     1  UNL1       -0.3772
      3 H          -9.6627  -20.1669   22.1949 H       1  UNL1        0.2112
      4 C          -9.9867  -18.3963   22.8489 C.ar    1  UNL1        0.0069
      5 C         -10.2984  -18.8944   24.2290 C.ar    1  UNL1       -0.0008
      6 C         -11.7066  -18.8460   24.7434 C.ar    1  UNL1        0.0112
      7 C         -12.8030  -18.2995   23.8778 C.ar    1  UNL1        0.0577
      8 CL        -14.2112  -18.2511   24.3924 Cl      1  UNL1       -0.0822
      9 C         -12.4912  -17.8014   22.4978 C.ar    1  UNL1        0.0112
     10 C         -11.0830  -17.8498   21.9833 C.ar    1  UNL1       -0.0008
     11 C          -7.1703  -18.4931   21.8198 C.ar    1  UNL1        0.0069
     12 C          -6.0274  -18.1502   22.7289 C.ar    1  UNL1       -0.0017
     13 C          -4.6193  -18.1985   22.2144 C.ar    1  UNL1       -0.0004
     14 C          -4.3539  -18.5898   20.7909 C.ar    1  UNL1       -0.0005
     15 C          -5.4967  -18.9327   19.8818 C.ar    1  UNL1       -0.0004
     16 C          -6.9049  -18.8843   20.3963 C.ar    1  UNL1       -0.0017
     17 C          -2.9458  -18.6381   20.2764 C.2     1  UNL1        0.0249
     18 C          -1.7936  -19.3459   20.9257 C.2     1  UNL1        0.1194
     19 N          -0.5783  -19.1324   20.0728 N.2     1  UNL1       -0.1510
     20 N          -0.9794  -18.2926   18.8964 N.2     1  UNL1       -0.1695
     21 C          -2.4426  -17.9872   19.0222 C.3     1  UNL1        0.1771
     22 N          -8.3099  -15.9566   21.6362 N.3     1  UNL1       -0.3186
     23 C          -8.3928  -17.0038   22.7071 C.3     1  UNL1        0.1010
     24 H          -8.1843  -15.0401   22.0659 H       1  UNL1        0.1189
     25 H          -9.1709  -15.9607   21.0894 H       1  UNL1        0.1189
@<TRIPOS>BOND
     1    22    23    1
     2    23     1    1
     3     1     2    1
     4     1     4    1
     5     4     5   ar
     6     5     6   ar
     7     6     7   ar
     8     7     8    1
     9     7     9   ar
    10     9    10   ar
    11     1    11    1
    12    11    12   ar
    13    12    13   ar
    14    13    14   ar
    15    14    17    1
    16    17    18    2
    17    18    19    1
    18    19    20    2
    19    20    21    1
    20    14    15   ar
    21    15    16   ar
    22    10     4   ar
    23    16    11   ar
    24    21    17    1
    25    22    24    1
    26    22    25    1
    27     2     3    1
@<TRIPOS>MOLECULE
*****
 25 27 0 0 0
SMALL
GASTEIGER

@<TRIPOS>ATOM
      1 C          -5.9386  -18.5673   21.7378 C.3     1  UNL1        0.1398
      2 O          -5.5309  -17.6522   22.8541 O.3     1  UNL1       -0.3772
      3 H          -4.5767  -17.4855   22.8034 H       1  UNL1        0.2112
      4 C          -4.5176  -18.6176   21.2600 C.ar    1  UNL1        0.0069
      5 C          -4.2188  -18.9572   19.8298 C.ar    1  UNL1       -0.0008
      6 C          -2.7979  -19.0074   19.3520 C.ar    1  UNL1        0.0112
      7 C          -1.6757  -18.7180   20.3044 C.ar    1  UNL1        0.0577
      8 CL         -0.2547  -18.7682   19.8265 Cl      1  UNL1       -0.0822
      9 C          -1.9745  -18.3784   21.7345 C.ar    1  UNL1        0.0112
     10 C          -3.3954  -18.3282   22.2123 C.ar    1  UNL1       -0.0008
     11 C          -7.3596  -18.5172   22.2156 C.ar    1  UNL1        0.0069
     12 C          -8.0769  -17.2023   22.2989 C.ar    1  UNL1       -0.0017
     13 C          -9.4978  -17.1521   22.7767 C.ar    1  UNL1       -0.0004
     14 C         -10.2016  -18.4167   23.1712 C.ar    1  UNL1       -0.0005
     15 C          -9.4844  -19.7315   23.0879 C.ar    1  UNL1       -0.0004
     16 C          -8.0633  -19.7817   22.6101 C.ar    1  UNL1       -0.0017
     17 C         -11.6225  -18.3665   23.6490 C.2     1  UNL1        0.0249
     18 C         -12.7796  -17.7597   22.9121 C.2     1  UNL1        0.1194
     19 N         -14.0081  -17.9325   23.7552 N.2     1  UNL1       -0.1510
     20 N         -13.6102  -18.6461   25.0133 N.2     1  UNL1       -0.1695
     21 C         -12.1359  -18.9143   24.9476 C.3     1  UNL1        0.1771
     22 N          -7.2499  -18.9823   19.5336 N.3     1  UNL1       -0.3186
     23 C          -6.3463  -19.4825   20.6215 C.3     1  UNL1        0.1010
     24 H          -7.4221  -19.7316   18.8633 H       1  UNL1        0.1189
     25 H          -6.8068  -18.1961   19.0583 H       1  UNL1        0.1189
@<TRIPOS>BOND
     1    22    23    1
     2    23     1    1
     3     1     2    1
     4     1     4    1
     5     4     5   ar
     6     5     6   ar
     7     6     7   ar
     8     7     8    1
     9     7     9   ar
    10     9    10   ar
    11     1    11    1
    12    11    12   ar
    13    12    13   ar
    14    13    14   ar
    15    14    17    1
    16    17    18    2
    17    18    19    1
    18    19    20    2
    19    20    21    1
    20    14    15   ar
    21    15    16   ar
    22    10     4   ar
    23    16    11   ar
    24    21    17    1
    25    22    24    1
    26    22    25    1
    27     2     3    1
@<TRIPOS>MOLECULE
*****
 25 27 0 0 0
SMALL
GASTEIGER

@<TRIPOS>ATOM
      1 C          -5.9485  -18.5655   21.7300 C.3     1  UNL1        0.1398
      2 O          -5.5391  -17.6355   22.8334 O.3     1  UNL1       -0.3772
      3 H          -4.5860  -17.4650   22.7756 H       1  UNL1        0.2112
      4 C          -4.5299  -18.6146   21.2450 C.ar    1  UNL1        0.0069
      5 C          -3.4027  -18.3332   22.1938 C.ar    1  UNL1       -0.0008
      6 C          -1.9842  -18.3824   21.7087 C.ar    1  UNL1        0.0112
      7 C          -1.6929  -18.7129   20.2748 C.ar    1  UNL1        0.0577
      8 CL         -0.2743  -18.7620   19.7898 Cl      1  UNL1       -0.0822
      9 C          -2.8201  -18.9943   19.3261 C.ar    1  UNL1        0.0112
     10 C          -4.2386  -18.9451   19.8112 C.ar    1  UNL1       -0.0008
     11 C          -7.3671  -18.5164   22.2150 C.ar    1  UNL1        0.0069
     12 C          -8.0611  -19.7789   22.6327 C.ar    1  UNL1       -0.0017
     13 C          -9.4796  -19.7298   23.1177 C.ar    1  UNL1       -0.0004
     14 C         -10.2042  -18.4182   23.1851 C.ar    1  UNL1       -0.0005
     15 C          -9.5103  -17.1557   22.7674 C.ar    1  UNL1       -0.0004
     16 C          -8.0917  -17.2047   22.2824 C.ar    1  UNL1       -0.0017
     17 C         -11.6228  -18.3691   23.6700 C.2     1  UNL1        0.0249
     18 C         -12.1317  -18.9291   24.9652 C.2     1  UNL1        0.1194
     19 N         -13.6049  -18.6575   25.0407 N.2     1  UNL1       -0.1510
     20 N         -14.0066  -17.9296   23.7921 N.2     1  UNL1       -0.1695
     21 C         -12.7815  -17.7514   22.9450 C.3     1  UNL1        0.1771
     22 N          -7.2648  -19.0103   19.5347 N.3     1  UNL1       -0.3186
     23 C          -6.3580  -19.4954   20.6267 C.3     1  UNL1        0.1010
     24 H          -7.4378  -19.7683   18.8745 H       1  UNL1        0.1189
     25 H          -6.8238  -18.2297   19.0482 H       1  UNL1        0.1189
@<TRIPOS>BOND
     1    22    23    1
     2    23     1    1
     3     1     2    1
     4     1     4    1
     5     4     5   ar
     6     5     6   ar
     7     6     7   ar
     8     7     8    1
     9     7     9   ar
    10     9    10   ar
    11     1    11    1
    12    11    12   ar
    13    12    13   ar
    14    13    14   ar
    15    14    17    1
    16    17    18    2
    17    18    19    1
    18    19    20    2
    19    20    21    1
    20    14    15   ar
    21    15    16   ar
    22    10     4   ar
    23    16    11   ar
    24    21    17    1
    25    22    24    1
    26    22    25    1
    27     2     3    1
@<TRIPOS>MOLECULE
*****
 25 27 0 0 0
SMALL
GASTEIGER

@<TRIPOS>ATOM
      1 C          -5.6489  -18.5553   21.5729 C.3     1  UNL1        0.1398
      2 O          -6.1178  -18.9060   20.1919 O.3     1  UNL1       -0.3772
      3 H          -5.3513  -19.0071   19.6061 H       1  UNL1        0.2112
      4 C          -4.2258  -18.5971   21.1003 C.ar    1  UNL1        0.0069
      5 C          -3.9099  -18.3743   19.6510 C.ar    1  UNL1       -0.0008
      6 C          -2.4869  -18.4161   19.1786 C.ar    1  UNL1        0.0112
      7 C          -1.3798  -18.6808   20.1554 C.ar    1  UNL1        0.0577
      8 CL          0.0433  -18.7226   19.6829 Cl      1  UNL1       -0.0822
      9 C          -1.6957  -18.9036   21.6047 C.ar    1  UNL1        0.0112
     10 C          -3.1187  -18.8617   22.0772 C.ar    1  UNL1       -0.0008
     11 C          -7.0719  -18.5135   22.0454 C.ar    1  UNL1        0.0069
     12 C          -7.8217  -17.2143   22.0533 C.ar    1  UNL1       -0.0017
     13 C          -9.2446  -17.1724   22.5259 C.ar    1  UNL1       -0.0004
     14 C          -9.9179  -18.4297   22.9905 C.ar    1  UNL1       -0.0005
     15 C          -9.1682  -19.7289   22.9826 C.ar    1  UNL1       -0.0004
     16 C          -7.7451  -19.7708   22.5101 C.ar    1  UNL1       -0.0017
     17 C         -11.3409  -18.3879   23.4631 C.2     1  UNL1        0.0249
     18 C         -11.8474  -18.8940   24.7811 C.2     1  UNL1        0.1194
     19 N         -13.3268  -18.6515   24.8332 N.2     1  UNL1       -0.1510
     20 N         -13.7345  -17.9956   23.5473 N.2     1  UNL1       -0.1695
     21 C         -12.5071  -17.8327   22.7005 C.3     1  UNL1        0.1771
     22 N          -4.9524  -16.7696   23.3268 N.3     1  UNL1       -0.3186
     23 C          -5.1800  -18.2046   22.9538 C.3     1  UNL1        0.1010
     24 H          -4.6379  -16.7158   24.2956 H       1  UNL1        0.1189
     25 H          -5.8234  -16.2490   23.2227 H       1  UNL1        0.1189
@<TRIPOS>BOND
     1    22    23    1
     2    23     1    1
     3     1     2    1
     4     1     4    1
     5     4     5   ar
     6     5     6   ar
     7     6     7   ar
     8     7     8    1
     9     7     9   ar
    10     9    10   ar
    11     1    11    1
    12    11    12   ar
    13    12    13   ar
    14    13    14   ar
    15    14    17    1
    16    17    18    2
    17    18    19    1
    18    19    20    2
    19    20    21    1
    20    14    15   ar
    21    15    16   ar
    22    10     4   ar
    23    16    11   ar
    24    21    17    1
    25    22    24    1
    26    22    25    1
    27     2     3    1
@<TRIPOS>MOLECULE
*****
 25 27 0 0 0
SMALL
GASTEIGER

@<TRIPOS>ATOM
      1 C          -7.7277  -18.2845   22.1704 C.3     1  UNL1        0.1398
      2 O          -7.6343  -16.8266   22.5101 O.3     1  UNL1       -0.3772
      3 H          -8.4938  -16.5142   22.8335 H       1  UNL1        0.2112
      4 C          -9.1705  -18.2878   22.5806 C.ar    1  UNL1        0.0069
      5 C          -9.5373  -18.2216   24.0336 C.ar    1  UNL1       -0.0008
      6 C         -10.9801  -18.2249   24.4438 C.ar    1  UNL1        0.0112
      7 C         -12.0561  -18.2944   23.4010 C.ar    1  UNL1        0.0577
      8 CL        -13.4990  -18.2976   23.8113 Cl      1  UNL1       -0.0822
      9 C         -11.6894  -18.3606   21.9481 C.ar    1  UNL1        0.0112
     10 C         -10.2466  -18.3573   21.5379 C.ar    1  UNL1       -0.0008
     11 C          -6.2849  -18.2813   21.7601 C.ar    1  UNL1        0.0069
     12 C          -5.8936  -18.7507   20.3902 C.ar    1  UNL1       -0.0017
     13 C          -4.4509  -18.7475   19.9799 C.ar    1  UNL1       -0.0004
     14 C          -3.3993  -18.2749   20.9396 C.ar    1  UNL1       -0.0005
     15 C          -3.7905  -17.8055   22.3094 C.ar    1  UNL1       -0.0004
     16 C          -5.2333  -17.8087   22.7197 C.ar    1  UNL1       -0.0017
     17 C          -1.9565  -18.2717   20.5293 C.2     1  UNL1        0.0249
     18 C          -1.0789  -17.0619   20.4015 C.2     1  UNL1        0.1194
     19 N           0.2820  -17.5202   19.9680 N.2     1  UNL1       -0.1510
     20 N           0.2454  -19.0133   19.8280 N.2     1  UNL1       -0.1695
     21 C          -1.1380  -19.4777   20.1749 C.3     1  UNL1        0.1771
     22 N          -7.4806  -20.7765   22.8627 N.3     1  UNL1       -0.3186
     23 C          -7.8210  -19.7425   21.8306 C.3     1  UNL1        0.1010
     24 H          -7.5986  -21.7075   22.4631 H       1  UNL1        0.1189
     25 H          -8.0992  -20.6708   23.6668 H       1  UNL1        0.1189
@<TRIPOS>BOND
     1    22    23    1
     2    23     1    1
     3     1     2    1
     4     1     4    1
     5     4     5   ar
     6     5     6   ar
     7     6     7   ar
     8     7     8    1
     9     7     9   ar
    10     9    10   ar
    11     1    11    1
    12    11    12   ar
    13    12    13   ar
    14    13    14   ar
    15    14    17    1
    16    17    18    2
    17    18    19    1
    18    19    20    2
    19    20    21    1
    20    14    15   ar
    21    15    16   ar
    22    10     4   ar
    23    16    11   ar
    24    21    17    1
    25    22    24    1
    26    22    25    1
    27     2     3    1
@<TRIPOS>MOLECULE
*****
 25 27 0 0 0
SMALL
GASTEIGER

@<TRIPOS>ATOM
      1 C           6.7568   -3.8326   31.5974 C.3     1  UNL1        0.1398
      2 O           6.3956   -4.9120   32.5743 O.3     1  UNL1       -0.3772
      3 H           6.6545   -5.7744   32.2136 H       1  UNL1        0.2112
      4 C           7.3091   -4.8655   30.6602 C.ar    1  UNL1        0.0069
      5 C           8.4776   -5.7084   31.0774 C.ar    1  UNL1       -0.0008
      6 C           9.0298   -6.7412   30.1402 C.ar    1  UNL1        0.0112
      7 C           8.4135   -6.9311   28.7860 C.ar    1  UNL1        0.0577
      8 CL          8.9658   -7.9640   27.8488 Cl      1  UNL1       -0.0822
      9 C           7.2450   -6.0882   28.3688 C.ar    1  UNL1        0.0112
     10 C           6.6928   -5.0554   29.3060 C.ar    1  UNL1       -0.0008
     11 C           6.2045   -2.7998   32.5345 C.ar    1  UNL1        0.0069
     12 C           4.7810   -2.8926   32.9985 C.ar    1  UNL1       -0.0017
     13 C           4.2288   -1.8597   33.9355 C.ar    1  UNL1       -0.0004
     14 C           5.0999   -0.7340   34.4087 C.ar    1  UNL1       -0.0005
     15 C           6.5233   -0.6412   33.9448 C.ar    1  UNL1       -0.0004
     16 C           7.0757   -1.6741   33.0077 C.ar    1  UNL1       -0.0017
     17 C           4.5477    0.2989   35.3458 C.2     1  UNL1        0.0249
     18 C           3.7672    1.5182   34.9532 C.2     1  UNL1        0.1194
     19 N           3.4161    2.2667   36.2048 N.2     1  UNL1       -0.1510
     20 N           3.9796    1.5099   37.3709 N.2     1  UNL1       -0.1695
     21 C           4.6790    0.2938   36.8400 C.3     1  UNL1        0.1771
     22 N           6.0380   -2.0012   29.9006 N.3     1  UNL1       -0.3186
     23 C           7.1179   -2.7532   30.6205 C.3     1  UNL1        0.1010
     24 H           6.4603   -1.3100   29.2807 H       1  UNL1        0.1189
     25 H           5.4415   -1.5290   30.5801 H       1  UNL1        0.1189
@<TRIPOS>BOND
     1    22    23    1
     2    23     1    1
     3     1     2    1
     4     1     4    1
     5     4     5   ar
     6     5     6   ar
     7     6     7   ar
     8     7     8    1
     9     7     9   ar
    10     9    10   ar
    11     1    11    1
    12    11    12   ar
    13    12    13   ar
    14    13    14   ar
    15    14    17    1
    16    17    18    2
    17    18    19    1
    18    19    20    2
    19    20    21    1
    20    14    15   ar
    21    15    16   ar
    22    10     4   ar
    23    16    11   ar
    24    21    17    1
    25    22    24    1
    26    22    25    1
    27     2     3    1
@<TRIPOS>MOLECULE
*****
 25 27 0 0 0
SMALL
GASTEIGER

@<TRIPOS>ATOM
      1 C           6.8045   -3.7525   30.6878 C.3     1  UNL1        0.1398
      2 O           6.2553   -2.7619   29.7044 O.3     1  UNL1       -0.3772
      3 H           6.3611   -3.1073   28.8042 H       1  UNL1        0.2112
      4 C           7.1723   -4.6693   29.5589 C.ar    1  UNL1        0.0069
      5 C           8.5284   -5.3094   29.5239 C.ar    1  UNL1       -0.0008
      6 C           8.8960   -6.2261   28.3951 C.ar    1  UNL1        0.0112
      7 C           7.9076   -6.5028   27.3012 C.ar    1  UNL1        0.0577
      8 CL          8.2754   -7.4196   26.1723 Cl      1  UNL1       -0.0822
      9 C           6.5516   -5.8627   27.3362 C.ar    1  UNL1        0.0112
     10 C           6.1839   -4.9459   28.4650 C.ar    1  UNL1       -0.0008
     11 C           6.4368   -2.8357   31.8166 C.ar    1  UNL1        0.0069
     12 C           7.4824   -1.9627   32.4448 C.ar    1  UNL1       -0.0017
     13 C           7.1147   -1.0459   33.5736 C.ar    1  UNL1       -0.0004
     14 C           5.7015   -1.0022   34.0744 C.ar    1  UNL1       -0.0005
     15 C           4.6559   -1.8752   33.4463 C.ar    1  UNL1       -0.0004
     16 C           5.0236   -2.7920   32.3174 C.ar    1  UNL1       -0.0017
     17 C           5.3338   -0.0855   35.2033 C.2     1  UNL1        0.0249
     18 C           5.8357   -0.1784   36.6138 C.2     1  UNL1        0.1194
     19 N           5.2117    0.9348   37.4021 N.2     1  UNL1       -0.1510
     20 N           4.3242    1.7157   36.4787 N.2     1  UNL1       -0.1695
     21 C           4.3996    1.0851   35.1198 C.3     1  UNL1        0.1771
     22 N           6.5266   -5.9226   32.0890 N.3     1  UNL1       -0.3186
     23 C           7.3538   -4.7431   31.6711 C.3     1  UNL1        0.1010
     24 H           7.0519   -6.4867   32.7570 H       1  UNL1        0.1189
     25 H           6.3015   -6.4873   31.2699 H       1  UNL1        0.1189
@<TRIPOS>BOND
     1    22    23    1
     2    23     1    1
     3     1     2    1
     4     1     4    1
     5     4     5   ar
     6     5     6   ar
     7     6     7   ar
     8     7     8    1
     9     7     9   ar
    10     9    10   ar
    11     1    11    1
    12    11    12   ar
    13    12    13   ar
    14    13    14   ar
    15    14    17    1
    16    17    18    2
    17    18    19    1
    18    19    20    2
    19    20    21    1
    20    14    15   ar
    21    15    16   ar
    22    10     4   ar
    23    16    11   ar
    24    21    17    1
    25    22    24    1
    26    22    25    1
    27     2     3    1
@<TRIPOS>MOLECULE
*****
 25 27 0 0 0
SMALL
GASTEIGER

@<TRIPOS>ATOM
      1 C           5.6677   -1.0784   33.2639 C.3     1  UNL1        0.1398
      2 O           7.0330   -0.5236   33.5436 O.3     1  UNL1       -0.3772
      3 H           7.6609   -0.8638   32.8872 H       1  UNL1        0.2112
      4 C           6.2149   -1.8325   32.0883 C.ar    1  UNL1        0.0069
      5 C           5.6813   -1.5660   30.7120 C.ar    1  UNL1       -0.0008
      6 C           6.2285   -2.3201   29.5365 C.ar    1  UNL1        0.0112
      7 C           7.3093   -3.3407   29.7373 C.ar    1  UNL1        0.0577
      8 CL          7.8565   -4.0948   28.5617 Cl      1  UNL1       -0.0822
      9 C           7.8429   -3.6072   31.1136 C.ar    1  UNL1        0.0112
     10 C           7.2957   -2.8531   32.2891 C.ar    1  UNL1       -0.0008
     11 C           5.1205   -0.3243   34.4394 C.ar    1  UNL1        0.0069
     12 C           4.0282    0.6845   34.2409 C.ar    1  UNL1       -0.0017
     13 C           3.4810    1.4385   35.4164 C.ar    1  UNL1       -0.0004
     14 C           4.0260    1.1839   36.7905 C.ar    1  UNL1       -0.0005
     15 C           5.1182    0.1751   36.9891 C.ar    1  UNL1       -0.0004
     16 C           5.6655   -0.5790   35.8135 C.ar    1  UNL1       -0.0017
     17 C           3.4788    1.9379   37.9661 C.2     1  UNL1        0.0249
     18 C           2.1609    1.6886   38.6376 C.2     1  UNL1        0.1194
     19 N           2.0210    2.6703   39.7630 N.2     1  UNL1       -0.1510
     20 N           3.2525    3.5264   39.7871 N.2     1  UNL1       -0.1695
     21 C           4.1534    3.0737   38.6765 C.3     1  UNL1        0.1771
     22 N           3.9062   -2.9677   33.5429 N.3     1  UNL1       -0.3186
     23 C           4.3024   -1.6331   32.9842 C.3     1  UNL1        0.1010
     24 H           2.9524   -3.1869   33.2557 H       1  UNL1        0.1189
     25 H           3.9565   -2.9385   34.5612 H       1  UNL1        0.1189
@<TRIPOS>BOND
     1    22    23    1
     2    23     1    1
     3     1     2    1
     4     1     4    1
     5     4     5   ar
     6     5     6   ar
     7     6     7   ar
     8     7     8    1
     9     7     9   ar
    10     9    10   ar
    11     1    11    1
    12    11    12   ar
    13    12    13   ar
    14    13    14   ar
    15    14    17    1
    16    17    18    2
    17    18    19    1
    18    19    20    2
    19    20    21    1
    20    14    15   ar
    21    15    16   ar
    22    10     4   ar
    23    16    11   ar
    24    21    17    1
    25    22    24    1
    26    22    25    1
    27     2     3    1
