@<TRIPOS>MOLECULE
*****
 22 24 0 0 0
SMALL
GASTEIGER

@<TRIPOS>ATOM
      1 N          -7.4308  -18.1128   22.4558 N.pl3   1  UNL1       -0.3035
      2 C          -6.1501  -18.7265   21.9731 C.ar    1  UNL1        0.0481
      3 C          -4.8537  -18.3820   22.6443 C.ar    1  UNL1        0.0145
      4 C          -3.5729  -18.9957   22.1616 C.ar    1  UNL1        0.0013
      5 C          -3.5885  -19.9539   21.0076 C.ar    1  UNL1        0.0001
      6 C          -4.8850  -20.2984   20.3364 C.ar    1  UNL1        0.0013
      7 C          -6.1658  -19.6848   20.8191 C.ar    1  UNL1        0.0145
      8 C          -8.6125  -18.9852   22.7601 C.3     1  UNL1        0.1186
      9 CL        -13.5783  -17.9390   23.8766 Cl      1  UNL1       -0.0814
     10 C         -12.4672  -18.0481   22.8748 C.ar    1  UNL1        0.0679
     11 C         -12.7280  -17.7434   21.4294 C.ar    1  UNL1        0.0122
     12 C         -11.6169  -17.8525   20.4276 C.ar    1  UNL1        0.0007
     13 C         -10.2451  -18.2664   20.8712 C.ar    1  UNL1       -0.0017
     14 C          -9.9844  -18.5712   22.3165 C.ar    1  UNL1        0.0090
     15 C         -11.0954  -18.4621   23.3183 C.ar    1  UNL1        0.0658
     16 CL        -10.8347  -18.7669   24.7637 Cl      1  UNL1       -0.0816
     17 C          -7.5299  -16.6267   22.6342 C.3     1  UNL1        0.0938
     18 C          -7.5647  -16.0376   24.0132 C.3     1  UNL1        0.0512
     19 C          -6.5706  -15.3407   24.8943 C.3     1  UNL1        0.0716
     20 N          -7.6139  -15.2044   25.9634 N.3     1  UNL1       -0.2973
     21 C          -8.6079  -15.9012   25.0823 C.3     1  UNL1        0.0716
     22 H          -7.8588  -14.2394   26.1855 H       1  UNL1        0.1233
@<TRIPOS>BOND
     1     9    10    1
     2    10    11   ar
     3    11    12   ar
     4    12    13   ar
     5    13    14   ar
     6    14     8    1
     7     8     1    1
     8     1    17    1
     9    17    18    1
    10    18    19    1
    11    19    20    1
    12    20    21    1
    13     1     2    1
    14     2     3   ar
    15     3     4   ar
    16     4     5   ar
    17     5     6   ar
    18     6     7   ar
    19    14    15   ar
    20    15    16    1
    21    15    10   ar
    22    21    18    1
    23     7     2   ar
    24    20    22    1
@<TRIPOS>MOLECULE
*****
 22 24 0 0 0
SMALL
GASTEIGER

@<TRIPOS>ATOM
      1 N          -8.0598  -17.7212   22.2699 N.pl3   1  UNL1       -0.3035
      2 C          -7.0755  -18.6710   21.6542 C.ar    1  UNL1        0.0481
      3 C          -5.6645  -18.7215   22.1605 C.ar    1  UNL1        0.0145
      4 C          -4.6802  -19.6713   21.5447 C.ar    1  UNL1        0.0013
      5 C          -5.1070  -20.5706   20.4227 C.ar    1  UNL1        0.0001
      6 C          -6.5181  -20.5202   19.9164 C.ar    1  UNL1        0.0013
      7 C          -7.5024  -19.5704   20.5321 C.ar    1  UNL1        0.0145
      8 C          -7.6444  -16.3170   22.5949 C.3     1  UNL1        0.1186
      9 CL         -8.5208  -15.0399   27.5549 Cl      1  UNL1       -0.0814
     10 C          -7.5627  -15.3476   26.4424 C.ar    1  UNL1        0.0679
     11 C          -6.0848  -15.3244   26.6976 C.ar    1  UNL1        0.0122
     12 C          -5.1267  -15.6321   25.5853 C.ar    1  UNL1        0.0007
     13 C          -5.6466  -15.9630   24.2177 C.ar    1  UNL1       -0.0017
     14 C          -7.1246  -15.9861   23.9625 C.ar    1  UNL1        0.0090
     15 C          -8.0826  -15.6784   25.0749 C.ar    1  UNL1        0.0658
     16 CL         -9.5606  -15.7016   24.8197 Cl      1  UNL1       -0.0816
     17 C          -9.4595  -18.1757   22.5607 C.3     1  UNL1        0.0938
     18 C          -9.7172  -19.1425   23.6781 C.3     1  UNL1        0.0512
     19 C          -9.2939  -20.5490   23.9826 C.3     1  UNL1        0.0716
     20 N         -10.0817  -20.5099   25.2584 N.3     1  UNL1       -0.2973
     21 C         -10.5050  -19.1035   24.9540 C.3     1  UNL1        0.0716
     22 H          -9.5143  -20.6008   26.1012 H       1  UNL1        0.1233
@<TRIPOS>BOND
     1     9    10    1
     2    10    11   ar
     3    11    12   ar
     4    12    13   ar
     5    13    14   ar
     6    14     8    1
     7     8     1    1
     8     1    17    1
     9    17    18    1
    10    18    19    1
    11    19    20    1
    12    20    21    1
    13     1     2    1
    14     2     3   ar
    15     3     4   ar
    16     4     5   ar
    17     5     6   ar
    18     6     7   ar
    19    14    15   ar
    20    15    16    1
    21    15    10   ar
    22    21    18    1
    23     7     2   ar
    24    20    22    1
@<TRIPOS>MOLECULE
*****
 22 24 0 0 0
SMALL
GASTEIGER

@<TRIPOS>ATOM
      1 N          -7.1165  -18.5539   22.1663 N.pl3   1  UNL1       -0.3035
      2 C          -5.7200  -18.9738   21.8148 C.ar    1  UNL1        0.0481
      3 C          -4.5656  -18.5192   22.6577 C.ar    1  UNL1        0.0145
      4 C          -3.1691  -18.9391   22.3063 C.ar    1  UNL1        0.0013
      5 C          -2.9271  -19.8137   21.1120 C.ar    1  UNL1        0.0001
      6 C          -4.0815  -20.2684   20.2690 C.ar    1  UNL1        0.0013
      7 C          -5.4780  -19.8485   20.6204 C.ar    1  UNL1        0.0145
      8 C          -8.1522  -19.5896   22.4895 C.3     1  UNL1        0.1186
      9 CL        -12.9135  -17.8429   21.3582 Cl      1  UNL1       -0.0814
     10 C         -11.9017  -18.2946   22.3693 C.ar    1  UNL1        0.0679
     11 C         -12.2588  -18.3247   23.8258 C.ar    1  UNL1        0.0122
     12 C         -11.2471  -18.7764   24.8369 C.ar    1  UNL1        0.0007
     13 C          -9.8783  -19.1980   24.3915 C.ar    1  UNL1       -0.0017
     14 C          -9.5211  -19.1680   22.9349 C.ar    1  UNL1        0.0090
     15 C         -10.5329  -18.7163   21.9238 C.ar    1  UNL1        0.0658
     16 CL        -10.1757  -18.6862   20.4672 Cl      1  UNL1       -0.0816
     17 C          -7.4772  -17.0982   22.1945 C.3     1  UNL1        0.0938
     18 C          -7.2826  -16.3015   23.4504 C.3     1  UNL1        0.0512
     19 C          -6.1518  -15.5132   24.0419 C.3     1  UNL1        0.0716
     20 N          -7.0073  -15.1748   25.2266 N.3     1  UNL1       -0.2973
     21 C          -8.1381  -15.9631   24.6351 C.3     1  UNL1        0.0716
     22 H          -7.2025  -14.1788   25.3284 H       1  UNL1        0.1233
@<TRIPOS>BOND
     1     9    10    1
     2    10    11   ar
     3    11    12   ar
     4    12    13   ar
     5    13    14   ar
     6    14     8    1
     7     8     1    1
     8     1    17    1
     9    17    18    1
    10    18    19    1
    11    19    20    1
    12    20    21    1
    13     1     2    1
    14     2     3   ar
    15     3     4   ar
    16     4     5   ar
    17     5     6   ar
    18     6     7   ar
    19    14    15   ar
    20    15    16    1
    21    15    10   ar
    22    21    18    1
    23     7     2   ar
    24    20    22    1
@<TRIPOS>MOLECULE
*****
 22 24 0 0 0
SMALL
GASTEIGER

@<TRIPOS>ATOM
      1 N          -8.5145  -17.7155   22.3406 N.pl3   1  UNL1       -0.3035
      2 C          -9.9998  -17.6937   22.1319 C.ar    1  UNL1        0.0481
      3 C         -10.5779  -17.0138   20.9263 C.ar    1  UNL1        0.0145
      4 C         -12.0631  -16.9920   20.7176 C.ar    1  UNL1        0.0013
      5 C         -12.9703  -17.6501   21.7146 C.ar    1  UNL1        0.0001
      6 C         -12.3922  -18.3300   22.9203 C.ar    1  UNL1        0.0013
      7 C         -10.9070  -18.3518   23.1289 C.ar    1  UNL1        0.0145
      8 C          -7.7613  -16.4289   22.5053 C.3     1  UNL1        0.1186
      9 CL         -8.1820  -15.0618   27.5007 Cl      1  UNL1       -0.0814
     10 C          -7.3298  -15.4150   26.3179 C.ar    1  UNL1        0.0679
     11 C          -5.8358  -15.4379   26.4499 C.ar    1  UNL1        0.0122
     12 C          -4.9837  -15.7911   25.2672 C.ar    1  UNL1        0.0007
     13 C          -5.6255  -16.1214   23.9523 C.ar    1  UNL1       -0.0017
     14 C          -7.1195  -16.0985   23.8202 C.ar    1  UNL1        0.0090
     15 C          -7.9717  -15.7453   25.0030 C.ar    1  UNL1        0.0658
     16 CL         -9.4657  -15.7225   24.8709 Cl      1  UNL1       -0.0816
     17 C          -7.7825  -19.0241   22.3845 C.3     1  UNL1        0.0938
     18 C          -6.4887  -19.1850   21.6428 C.3     1  UNL1        0.0512
     19 C          -6.0887  -19.1926   20.1971 C.3     1  UNL1        0.0716
     20 N          -4.6589  -19.4125   20.5939 N.3     1  UNL1       -0.2973
     21 C          -5.0589  -19.4049   22.0395 C.3     1  UNL1        0.0716
     22 H          -4.0322  -18.6518   20.3312 H       1  UNL1        0.1233
@<TRIPOS>BOND
     1     9    10    1
     2    10    11   ar
     3    11    12   ar
     4    12    13   ar
     5    13    14   ar
     6    14     8    1
     7     8     1    1
     8     1    17    1
     9    17    18    1
    10    18    19    1
    11    19    20    1
    12    20    21    1
    13     1     2    1
    14     2     3   ar
    15     3     4   ar
    16     4     5   ar
    17     5     6   ar
    18     6     7   ar
    19    14    15   ar
    20    15    16    1
    21    15    10   ar
    22    21    18    1
    23     7     2   ar
    24    20    22    1
@<TRIPOS>MOLECULE
*****
 22 24 0 0 0
SMALL
GASTEIGER

@<TRIPOS>ATOM
      1 N          -7.2168  -18.4402   22.3440 N.pl3   1  UNL1       -0.3035
      2 C          -5.9558  -19.0340   21.7896 C.ar    1  UNL1        0.0481
      3 C          -6.0040  -19.8680   20.5438 C.ar    1  UNL1        0.0145
      4 C          -4.7430  -20.4617   19.9895 C.ar    1  UNL1        0.0013
      5 C          -3.4337  -20.2214   20.6809 C.ar    1  UNL1        0.0001
      6 C          -3.3855  -19.3874   21.9268 C.ar    1  UNL1        0.0013
      7 C          -4.6465  -18.7937   22.4811 C.ar    1  UNL1        0.0145
      8 C          -7.3200  -16.9582   22.5512 C.3     1  UNL1        0.1186
      9 CL         -8.5786  -15.3195   27.3189 Cl      1  UNL1       -0.0814
     10 C          -7.5497  -15.5357   26.2490 C.ar    1  UNL1        0.0679
     11 C          -6.1212  -15.1486   26.4930 C.ar    1  UNL1        0.0122
     12 C          -5.0923  -15.3647   25.4232 C.ar    1  UNL1        0.0007
     13 C          -5.4919  -15.9679   24.1093 C.ar    1  UNL1       -0.0017
     14 C          -6.9204  -16.3550   23.8652 C.ar    1  UNL1        0.0090
     15 C          -7.9493  -16.1389   24.9351 C.ar    1  UNL1        0.0658
     16 CL         -9.3778  -16.5260   24.6910 Cl      1  UNL1       -0.0816
     17 C          -8.3746  -19.3286   22.6911 C.3     1  UNL1        0.0938
     18 C          -9.6819  -19.1719   21.9727 C.3     1  UNL1        0.0512
     19 C         -11.0649  -18.7459   22.3676 C.3     1  UNL1        0.0716
     20 N         -11.5308  -18.9503   20.9566 N.3     1  UNL1       -0.2973
     21 C         -10.1479  -19.3762   20.5616 C.3     1  UNL1        0.0716
     22 H         -11.8515  -18.0983   20.4964 H       1  UNL1        0.1233
@<TRIPOS>BOND
     1     9    10    1
     2    10    11   ar
     3    11    12   ar
     4    12    13   ar
     5    13    14   ar
     6    14     8    1
     7     8     1    1
     8     1    17    1
     9    17    18    1
    10    18    19    1
    11    19    20    1
    12    20    21    1
    13     1     2    1
    14     2     3   ar
    15     3     4   ar
    16     4     5   ar
    17     5     6   ar
    18     6     7   ar
    19    14    15   ar
    20    15    16    1
    21    15    10   ar
    22    21    18    1
    23     7     2   ar
    24    20    22    1
@<TRIPOS>MOLECULE
*****
 22 24 0 0 0
SMALL
GASTEIGER

@<TRIPOS>ATOM
      1 N          -9.7742  -17.1319   23.8928 N.pl3   1  UNL1       -0.3035
      2 C          -8.7531  -16.5660   24.8347 C.ar    1  UNL1        0.0481
      3 C          -7.6095  -15.7547   24.3019 C.ar    1  UNL1        0.0145
      4 C          -6.5884  -15.1888   25.2438 C.ar    1  UNL1        0.0013
      5 C          -6.7109  -15.4342   26.7185 C.ar    1  UNL1        0.0001
      6 C          -7.8546  -16.2455   27.2513 C.ar    1  UNL1        0.0013
      7 C          -8.8757  -16.8114   26.3095 C.ar    1  UNL1        0.0145
      8 C          -9.6426  -18.5439   23.4040 C.3     1  UNL1        0.1186
      9 CL         -9.1627  -20.3211   18.5449 Cl      1  UNL1       -0.0814
     10 C          -8.5463  -19.7363   19.7810 C.ar    1  UNL1        0.0679
     11 C          -7.0735  -19.4552   19.8237 C.ar    1  UNL1        0.0122
     12 C          -6.4570  -18.8703   21.0598 C.ar    1  UNL1        0.0007
     13 C          -7.3134  -18.5666   22.2532 C.ar    1  UNL1       -0.0017
     14 C          -8.7862  -18.8477   22.2105 C.ar    1  UNL1        0.0090
     15 C          -9.4026  -19.4325   20.9745 C.ar    1  UNL1        0.0658
     16 CL        -10.8755  -19.7136   20.9318 Cl      1  UNL1       -0.0816
     17 C         -10.9270  -16.2857   23.4397 C.3     1  UNL1        0.0938
     18 C         -11.3621  -16.3174   22.0046 C.3     1  UNL1        0.0512
     19 C         -10.7300  -15.9454   20.6962 C.3     1  UNL1        0.0716
     20 N         -11.9775  -16.3623   19.9750 N.3     1  UNL1       -0.2973
     21 C         -12.6096  -16.7343   21.2835 C.3     1  UNL1        0.0716
     22 H         -11.8472  -17.1476   19.3373 H       1  UNL1        0.1233
@<TRIPOS>BOND
     1     9    10    1
     2    10    11   ar
     3    11    12   ar
     4    12    13   ar
     5    13    14   ar
     6    14     8    1
     7     8     1    1
     8     1    17    1
     9    17    18    1
    10    18    19    1
    11    19    20    1
    12    20    21    1
    13     1     2    1
    14     2     3   ar
    15     3     4   ar
    16     4     5   ar
    17     5     6   ar
    18     6     7   ar
    19    14    15   ar
    20    15    16    1
    21    15    10   ar
    22    21    18    1
    23     7     2   ar
    24    20    22    1
@<TRIPOS>MOLECULE
*****
 22 24 0 0 0
SMALL
GASTEIGER

@<TRIPOS>ATOM
      1 N          -8.8928  -17.4198   22.4048 N.pl3   1  UNL1       -0.3035
      2 C         -10.3432  -17.4759   22.7835 C.ar    1  UNL1        0.0481
      3 C         -10.8232  -18.5048   23.7637 C.ar    1  UNL1        0.0145
      4 C         -12.2735  -18.5609   24.1423 C.ar    1  UNL1        0.0013
      5 C         -13.2439  -17.5881   23.5407 C.ar    1  UNL1        0.0001
      6 C         -12.7639  -16.5591   22.5604 C.ar    1  UNL1        0.0013
      7 C         -11.3135  -16.5030   22.1818 C.ar    1  UNL1        0.0145
      8 C          -8.1213  -16.1451   22.5777 C.3     1  UNL1        0.1186
      9 CL         -7.3129  -15.0872   27.6005 Cl      1  UNL1       -0.0814
     10 C          -6.7789  -15.4587   26.2488 C.ar    1  UNL1        0.0679
     11 C          -5.3067  -15.6729   26.0570 C.ar    1  UNL1        0.0122
     12 C          -4.7727  -16.0445   24.7054 C.ar    1  UNL1        0.0007
     13 C          -5.7109  -16.2019   23.5457 C.ar    1  UNL1       -0.0017
     14 C          -7.1831  -15.9877   23.7376 C.ar    1  UNL1        0.0090
     15 C          -7.7171  -15.6161   25.0891 C.ar    1  UNL1        0.0658
     16 CL         -9.1893  -15.4020   25.2809 Cl      1  UNL1       -0.0816
     17 C          -8.2140  -18.6385   21.8533 C.3     1  UNL1        0.0938
     18 C          -8.6965  -19.2503   20.5716 C.3     1  UNL1        0.0512
     19 C          -8.0380  -19.7373   19.3149 C.3     1  UNL1        0.0716
     20 N          -9.3788  -20.1156   18.7589 N.3     1  UNL1       -0.2973
     21 C         -10.0373  -19.6286   20.0156 C.3     1  UNL1        0.0716
     22 H          -9.4925  -21.1150   18.5896 H       1  UNL1        0.1233
@<TRIPOS>BOND
     1     9    10    1
     2    10    11   ar
     3    11    12   ar
     4    12    13   ar
     5    13    14   ar
     6    14     8    1
     7     8     1    1
     8     1    17    1
     9    17    18    1
    10    18    19    1
    11    19    20    1
    12    20    21    1
    13     1     2    1
    14     2     3   ar
    15     3     4   ar
    16     4     5   ar
    17     5     6   ar
    18     6     7   ar
    19    14    15   ar
    20    15    16    1
    21    15    10   ar
    22    21    18    1
    23     7     2   ar
    24    20    22    1
@<TRIPOS>MOLECULE
*****
 22 24 0 0 0
SMALL
GASTEIGER

@<TRIPOS>ATOM
      1 N          -8.2111  -17.5022   22.4922 N.pl3   1  UNL1       -0.3035
      2 C          -9.6587  -17.6062   22.1130 C.ar    1  UNL1        0.0481
      3 C         -10.0462  -18.1825   20.7835 C.ar    1  UNL1        0.0145
      4 C         -11.4938  -18.2865   20.4044 C.ar    1  UNL1        0.0013
      5 C         -12.5538  -17.8143   21.3547 C.ar    1  UNL1        0.0001
      6 C         -12.1663  -17.2379   22.6843 C.ar    1  UNL1        0.0013
      7 C         -10.7187  -17.1339   23.0635 C.ar    1  UNL1        0.0145
      8 C          -7.4531  -18.7299   22.9022 C.3     1  UNL1        0.1186
      9 CL         -2.5435  -19.4223   21.3475 Cl      1  UNL1       -0.0814
     10 C          -4.0092  -19.6962   21.1831 C.ar    1  UNL1        0.0679
     11 C          -4.4856  -20.5903   20.0768 C.ar    1  UNL1        0.0122
     12 C          -5.9511  -20.8642   19.9124 C.ar    1  UNL1        0.0007
     13 C          -6.9403  -20.2440   20.8541 C.ar    1  UNL1       -0.0017
     14 C          -6.4639  -19.3500   21.9604 C.ar    1  UNL1        0.0090
     15 C          -4.9983  -19.0761   22.1248 C.ar    1  UNL1        0.0658
     16 CL         -4.5219  -18.1821   23.2311 Cl      1  UNL1       -0.0816
     17 C          -7.5216  -16.1704   22.4613 C.3     1  UNL1        0.0938
     18 C          -7.0323  -15.5494   23.7360 C.3     1  UNL1        0.0512
     19 C          -7.6776  -15.1037   25.0146 C.3     1  UNL1        0.0716
     20 N          -6.3403  -14.6712   25.5387 N.3     1  UNL1       -0.2973
     21 C          -5.6950  -15.1168   24.2601 C.3     1  UNL1        0.0716
     22 H          -6.0300  -15.1854   26.3631 H       1  UNL1        0.1233
@<TRIPOS>BOND
     1     9    10    1
     2    10    11   ar
     3    11    12   ar
     4    12    13   ar
     5    13    14   ar
     6    14     8    1
     7     8     1    1
     8     1    17    1
     9    17    18    1
    10    18    19    1
    11    19    20    1
    12    20    21    1
    13     1     2    1
    14     2     3   ar
    15     3     4   ar
    16     4     5   ar
    17     5     6   ar
    18     6     7   ar
    19    14    15   ar
    20    15    16    1
    21    15    10   ar
    22    21    18    1
    23     7     2   ar
    24    20    22    1
@<TRIPOS>MOLECULE
*****
 22 24 0 0 0
SMALL
GASTEIGER

@<TRIPOS>ATOM
      1 N          -9.2586  -17.0650   23.6679 N.pl3   1  UNL1       -0.3035
      2 C          -8.4768  -16.5372   24.8341 C.ar    1  UNL1        0.0481
      3 C          -8.9278  -16.8310   26.2342 C.ar    1  UNL1        0.0145
      4 C          -8.1460  -16.3032   27.4004 C.ar    1  UNL1        0.0013
      5 C          -6.9130  -15.4815   27.1666 C.ar    1  UNL1        0.0001
      6 C          -6.4619  -15.1877   25.7665 C.ar    1  UNL1        0.0013
      7 C          -7.2438  -15.7155   24.6003 C.ar    1  UNL1        0.0145
      8 C          -9.1521  -18.5118   23.2866 C.3     1  UNL1        0.1186
      9 CL         -5.4497  -19.1255   19.6927 Cl      1  UNL1       -0.0814
     10 C          -6.8922  -19.1993   20.0975 C.ar    1  UNL1        0.0679
     11 C          -7.9260  -19.6537   19.1102 C.ar    1  UNL1        0.0122
     12 C          -9.3684  -19.7274   19.5150 C.ar    1  UNL1        0.0007
     13 C          -9.7771  -19.3468   20.9071 C.ar    1  UNL1       -0.0017
     14 C          -8.7433  -18.8924   21.8944 C.ar    1  UNL1        0.0090
     15 C          -7.3009  -18.8187   21.4897 C.ar    1  UNL1        0.0658
     16 CL         -6.2671  -18.3643   22.4770 Cl      1  UNL1       -0.0816
     17 C         -10.1471  -16.1460   22.8830 C.3     1  UNL1        0.0938
     18 C         -11.3994  -16.6744   22.2485 C.3     1  UNL1        0.0512
     19 C         -12.0026  -16.6086   20.8767 C.3     1  UNL1        0.0716
     20 N         -13.1704  -17.4216   21.3512 N.3     1  UNL1       -0.2973
     21 C         -12.5672  -17.4874   22.7230 C.3     1  UNL1        0.0716
     22 H         -13.2608  -18.3280   20.8922 H       1  UNL1        0.1233
@<TRIPOS>BOND
     1     9    10    1
     2    10    11   ar
     3    11    12   ar
     4    12    13   ar
     5    13    14   ar
     6    14     8    1
     7     8     1    1
     8     1    17    1
     9    17    18    1
    10    18    19    1
    11    19    20    1
    12    20    21    1
    13     1     2    1
    14     2     3   ar
    15     3     4   ar
    16     4     5   ar
    17     5     6   ar
    18     6     7   ar
    19    14    15   ar
    20    15    16    1
    21    15    10   ar
    22    21    18    1
    23     7     2   ar
    24    20    22    1
