@<TRIPOS>MOLECULE
*****
 15 16 0 0 0
SMALL
GASTEIGER

@<TRIPOS>ATOM
      1 C         -13.2199  -17.9851   23.8244 C.ar    1  UNL1        0.1385
      2 C         -13.1319  -16.7660   22.9548 C.ar    1  UNL1        0.0375
      3 C         -11.7590  -16.7249   22.3520 C.ar    1  UNL1        0.0404
      4 C         -10.9985  -17.9184   22.8492 C.ar    1  UNL1        0.1464
      5 O         -11.9014  -18.6973   23.7592 O.2     1  UNL1       -0.4563
      6 C          -9.5834  -18.2712   22.4980 C.ar    1  UNL1        0.0537
      7 C          -9.0528  -19.6397   22.8069 C.ar    1  UNL1        0.0062
      8 C          -7.6378  -19.9924   22.4557 C.ar    1  UNL1        0.0208
      9 C          -6.7535  -18.9765   21.7955 C.ar    1  UNL1        0.0989
     10 N          -7.2840  -17.6080   21.4865 N.ar    1  UNL1       -0.2422
     11 C          -8.6990  -17.2553   21.8377 C.ar    1  UNL1        0.1019
     12 N         -14.2988  -18.6191   26.1013 N.3     1  UNL1       -0.3148
     13 C         -14.4164  -18.4162   24.6198 C.3     1  UNL1        0.1307
     14 H         -15.2015  -18.9091   26.4775 H       1  UNL1        0.1192
     15 H         -14.0116  -17.7454   26.5423 H       1  UNL1        0.1192
@<TRIPOS>BOND
     1    12    13    1
     2    13     1    1
     3     1     2   ar
     4     2     3   ar
     5     3     4   ar
     6     4     6    1
     7     6     7   ar
     8     7     8   ar
     9     8     9   ar
    10     9    10   ar
    11    10    11   ar
    12     4     5   ar
    13     5     1   ar
    14    11     6   ar
    15    12    14    1
    16    12    15    1
@<TRIPOS>MOLECULE
*****
 15 16 0 0 0
SMALL
GASTEIGER

@<TRIPOS>ATOM
      1 C          -6.5977  -15.6513   24.0375 C.ar    1  UNL1        0.1385
      2 C          -7.4028  -15.4747   25.2909 C.ar    1  UNL1        0.0375
      3 C          -8.8261  -15.8332   24.9818 C.ar    1  UNL1        0.0404
      4 C          -8.9007  -16.2313   23.5375 C.ar    1  UNL1        0.1464
      5 O          -7.5235  -16.1189   22.9539 O.2     1  UNL1       -0.4563
      6 C         -10.1358  -16.6656   22.8053 C.ar    1  UNL1        0.0537
      7 C         -11.1155  -17.5878   23.4683 C.ar    1  UNL1        0.0062
      8 C         -12.3505  -18.0221   22.7361 C.ar    1  UNL1        0.0208
      9 C         -12.6058  -17.5341   21.3409 C.ar    1  UNL1        0.0989
     10 N         -11.6262  -16.6119   20.6779 N.ar    1  UNL1       -0.2422
     11 C         -10.3912  -16.1776   21.4100 C.ar    1  UNL1        0.1019
     12 N          -4.6210  -14.4830   22.8218 N.3     1  UNL1       -0.3148
     13 C          -5.1253  -15.4037   23.8932 C.3     1  UNL1        0.1307
     14 H          -3.6034  -14.4319   22.8687 H       1  UNL1        0.1192
     15 H          -5.0150  -13.5524   22.9601 H       1  UNL1        0.1192
@<TRIPOS>BOND
     1    12    13    1
     2    13     1    1
     3     1     2   ar
     4     2     3   ar
     5     3     4   ar
     6     4     6    1
     7     6     7   ar
     8     7     8   ar
     9     8     9   ar
    10     9    10   ar
    11    10    11   ar
    12     4     5   ar
    13     5     1   ar
    14    11     6   ar
    15    12    14    1
    16    12    15    1
@<TRIPOS>MOLECULE
*****
 15 16 0 0 0
SMALL
GASTEIGER

@<TRIPOS>ATOM
      1 C           6.9773  -13.1325   28.8727 C.ar    1  UNL1        0.1385
      2 C           6.6085  -11.7631   28.3839 C.ar    1  UNL1        0.0375
      3 C           5.1213  -11.7244   28.1923 C.ar    1  UNL1        0.0404
      4 C           4.5710  -13.0698   28.5626 C.ar    1  UNL1        0.1464
      5 O           5.7181  -13.9400   28.9831 O.2     1  UNL1       -0.4563
      6 C           3.1271  -13.4740   28.5199 C.ar    1  UNL1        0.0537
      7 C           2.0846  -12.6000   29.1516 C.ar    1  UNL1        0.0062
      8 C           0.6407  -13.0042   29.1089 C.ar    1  UNL1        0.0208
      9 C           0.2394  -14.2825   28.4344 C.ar    1  UNL1        0.0989
     10 N           1.2819  -15.1565   27.8027 N.ar    1  UNL1       -0.2422
     11 C           2.7257  -14.7523   27.8454 C.ar    1  UNL1        0.1019
     12 N           8.5617  -14.9430   29.8535 N.3     1  UNL1       -0.3148
     13 C           8.3623  -13.6103   29.1946 C.3     1  UNL1        0.1307
     14 H           9.5583  -15.1055   29.9973 H       1  UNL1        0.1192
     15 H           8.1798  -15.6775   29.2576 H       1  UNL1        0.1192
@<TRIPOS>BOND
     1    12    13    1
     2    13     1    1
     3     1     2   ar
     4     2     3   ar
     5     3     4   ar
     6     4     6    1
     7     6     7   ar
     8     7     8   ar
     9     8     9   ar
    10     9    10   ar
    11    10    11   ar
    12     4     5   ar
    13     5     1   ar
    14    11     6   ar
    15    12    14    1
    16    12    15    1
@<TRIPOS>MOLECULE
*****
 15 16 0 0 0
SMALL
GASTEIGER

@<TRIPOS>ATOM
      1 C         -11.5083  -17.2241   22.7764 C.ar    1  UNL1        0.1385
      2 C         -11.3742  -18.4449   23.6377 C.ar    1  UNL1        0.0375
      3 C         -10.2097  -18.2359   24.5598 C.ar    1  UNL1        0.0404
      4 C          -9.6241  -16.8860   24.2684 C.ar    1  UNL1        0.1464
      5 O         -10.4267  -16.2607   23.1662 O.2     1  UNL1       -0.4563
      6 C          -8.4431  -16.2697   24.9581 C.ar    1  UNL1        0.0537
      7 C          -8.3478  -16.3018   26.4547 C.ar    1  UNL1        0.0062
      8 C          -7.1669  -15.6855   27.1444 C.ar    1  UNL1        0.0208
      9 C          -6.0814  -15.0370   26.3375 C.ar    1  UNL1        0.0989
     10 N          -6.1768  -15.0049   24.8409 N.ar    1  UNL1       -0.2422
     11 C          -7.3576  -15.6212   24.1512 C.ar    1  UNL1        0.1019
     12 N         -12.1203  -16.6395   20.3201 N.3     1  UNL1       -0.3148
     13 C         -12.5425  -17.0051   21.7122 C.3     1  UNL1        0.1307
     14 H         -12.9465  -16.5299   19.7320 H       1  UNL1        0.1192
     15 H         -11.5276  -17.3773   19.9397 H       1  UNL1        0.1192
@<TRIPOS>BOND
     1    12    13    1
     2    13     1    1
     3     1     2   ar
     4     2     3   ar
     5     3     4   ar
     6     4     6    1
     7     6     7   ar
     8     7     8   ar
     9     8     9   ar
    10     9    10   ar
    11    10    11   ar
    12     4     5   ar
    13     5     1   ar
    14    11     6   ar
    15    12    14    1
    16    12    15    1
@<TRIPOS>MOLECULE
*****
 15 16 0 0 0
SMALL
GASTEIGER

@<TRIPOS>ATOM
      1 C          -4.2113  -19.2699   19.8080 C.ar    1  UNL1        0.1385
      2 C          -4.4148  -20.7218   20.1252 C.ar    1  UNL1        0.0375
      3 C          -5.8713  -20.9333   20.4145 C.ar    1  UNL1        0.0404
      4 C          -6.5681  -19.6122   20.2761 C.ar    1  UNL1        0.1464
      5 O          -5.5421  -18.5841   19.9013 O.2     1  UNL1       -0.4563
      6 C          -8.0335  -19.3629   20.4772 C.ar    1  UNL1        0.0537
      7 C          -8.9951  -19.5929   19.3493 C.ar    1  UNL1        0.0062
      8 C         -10.4605  -19.3436   19.5504 C.ar    1  UNL1        0.0208
      9 C         -10.9643  -18.8643   20.8795 C.ar    1  UNL1        0.0989
     10 N         -10.0026  -18.6343   22.0074 N.ar    1  UNL1       -0.2422
     11 C          -8.5373  -18.8835   21.8063 C.ar    1  UNL1        0.1019
     12 N          -2.8681  -17.1638   19.0938 N.3     1  UNL1       -0.3148
     13 C          -2.9062  -18.6182   19.4589 C.3     1  UNL1        0.1307
     14 H          -1.9073  -16.8900   18.8878 H       1  UNL1        0.1192
     15 H          -3.2202  -16.6082   19.8734 H       1  UNL1        0.1192
@<TRIPOS>BOND
     1    12    13    1
     2    13     1    1
     3     1     2   ar
     4     2     3   ar
     5     3     4   ar
     6     4     6    1
     7     6     7   ar
     8     7     8   ar
     9     8     9   ar
    10     9    10   ar
    11    10    11   ar
    12     4     5   ar
    13     5     1   ar
    14    11     6   ar
    15    12    14    1
    16    12    15    1
@<TRIPOS>MOLECULE
*****
 15 16 0 0 0
SMALL
GASTEIGER

@<TRIPOS>ATOM
      1 C          -9.6159  -19.6482   22.8505 C.ar    1  UNL1        0.1385
      2 C          -9.8728  -19.4049   21.3928 C.ar    1  UNL1        0.0375
      3 C          -8.5519  -19.4119   20.6820 C.ar    1  UNL1        0.0404
      4 C          -7.4788  -19.6595   21.7003 C.ar    1  UNL1        0.1464
      5 O          -8.1364  -19.8055   23.0406 O.2     1  UNL1       -0.4563
      6 C          -6.0065  -19.7459   21.4265 C.ar    1  UNL1        0.0537
      7 C          -5.5076  -20.5267   20.2469 C.ar    1  UNL1        0.0062
      8 C          -4.0353  -20.6131   19.9731 C.ar    1  UNL1        0.0208
      9 C          -3.0620  -19.9187   20.8789 C.ar    1  UNL1        0.0989
     10 N          -3.5609  -19.1380   22.0585 N.ar    1  UNL1       -0.2422
     11 C          -5.0331  -19.0516   22.3323 C.ar    1  UNL1        0.1019
     12 N         -10.2921  -20.2411   25.2880 N.3     1  UNL1       -0.3148
     13 C         -10.6561  -19.7212   23.9289 C.3     1  UNL1        0.1307
     14 H         -11.1143  -20.2206   25.8913 H       1  UNL1        0.1192
     15 H          -9.5601  -19.6561   25.6909 H       1  UNL1        0.1192
@<TRIPOS>BOND
     1    12    13    1
     2    13     1    1
     3     1     2   ar
     4     2     3   ar
     5     3     4   ar
     6     4     6    1
     7     6     7   ar
     8     7     8   ar
     9     8     9   ar
    10     9    10   ar
    11    10    11   ar
    12     4     5   ar
    13     5     1   ar
    14    11     6   ar
    15    12    14    1
    16    12    15    1
@<TRIPOS>MOLECULE
*****
 15 16 0 0 0
SMALL
GASTEIGER

@<TRIPOS>ATOM
      1 C          -4.2876  -19.3212   21.0489 C.ar    1  UNL1        0.1385
      2 C          -5.0477  -20.4024   20.3395 C.ar    1  UNL1        0.0375
      3 C          -6.4867  -20.3039   20.7511 C.ar    1  UNL1        0.0404
      4 C          -6.6160  -19.1618   21.7149 C.ar    1  UNL1        0.1464
      5 O          -5.2569  -18.5545   21.8990 O.2     1  UNL1       -0.4563
      6 C          -7.8822  -18.7069   22.3782 C.ar    1  UNL1        0.0537
      7 C          -8.8200  -19.7141   22.9749 C.ar    1  UNL1        0.0062
      8 C         -10.0861  -19.2592   23.6382 C.ar    1  UNL1        0.0208
      9 C         -10.4144  -17.7971   23.7047 C.ar    1  UNL1        0.0989
     10 N          -9.4767  -16.7899   23.1081 N.ar    1  UNL1       -0.2422
     11 C          -8.2106  -17.2448   22.4448 C.ar    1  UNL1        0.1019
     12 N          -1.8273  -20.0634   21.4313 N.3     1  UNL1       -0.3148
     13 C          -2.8165  -19.0537   20.9293 C.3     1  UNL1        0.1307
     14 H          -0.8802  -19.7205   21.2707 H       1  UNL1        0.1192
     15 H          -1.9588  -20.9443   20.9343 H       1  UNL1        0.1192
@<TRIPOS>BOND
     1    12    13    1
     2    13     1    1
     3     1     2   ar
     4     2     3   ar
     5     3     4   ar
     6     4     6    1
     7     6     7   ar
     8     7     8   ar
     9     8     9   ar
    10     9    10   ar
    11    10    11   ar
    12     4     5   ar
    13     5     1   ar
    14    11     6   ar
    15    12    14    1
    16    12    15    1
@<TRIPOS>MOLECULE
*****
 15 16 0 0 0
SMALL
GASTEIGER

@<TRIPOS>ATOM
      1 C         -12.5267  -17.4515   23.2664 C.ar    1  UNL1        0.1385
      2 C         -12.4495  -16.4420   22.1596 C.ar    1  UNL1        0.0375
      3 C         -11.0407  -15.9308   22.0960 C.ar    1  UNL1        0.0404
      4 C         -10.2473  -16.6243   23.1635 C.ar    1  UNL1        0.1464
      5 O         -11.1657  -17.5642   23.8869 O.2     1  UNL1       -0.4563
      6 C          -8.7911  -16.4148   23.4563 C.ar    1  UNL1        0.0537
      7 C          -8.3733  -15.4747   24.5479 C.ar    1  UNL1        0.0062
      8 C          -6.9171  -15.2651   24.8406 C.ar    1  UNL1        0.0208
      9 C          -5.8788  -15.9957   24.0417 C.ar    1  UNL1        0.0989
     10 N          -6.2967  -16.9358   22.9501 N.ar    1  UNL1       -0.2422
     11 C          -7.7528  -17.1453   22.6574 C.ar    1  UNL1        0.1019
     12 N         -14.2472  -18.1260   25.0926 N.3     1  UNL1       -0.3148
     13 C         -13.7502  -18.2144   23.6801 C.3     1  UNL1        0.1307
     14 H         -15.0816  -18.7034   25.1962 H       1  UNL1        0.1192
     15 H         -14.4752  -17.1565   25.3127 H       1  UNL1        0.1192
@<TRIPOS>BOND
     1    12    13    1
     2    13     1    1
     3     1     2   ar
     4     2     3   ar
     5     3     4   ar
     6     4     6    1
     7     6     7   ar
     8     7     8   ar
     9     8     9   ar
    10     9    10   ar
    11    10    11   ar
    12     4     5   ar
    13     5     1   ar
    14    11     6   ar
    15    12    14    1
    16    12    15    1
@<TRIPOS>MOLECULE
*****
 15 16 0 0 0
SMALL
GASTEIGER

@<TRIPOS>ATOM
      1 C          -9.2001  -17.4730   22.2391 C.ar    1  UNL1        0.1385
      2 C          -9.5919  -18.4496   21.1701 C.ar    1  UNL1        0.0375
      3 C          -8.3532  -19.1660   20.7203 C.ar    1  UNL1        0.0404
      4 C          -7.1959  -18.6323   21.5114 C.ar    1  UNL1        0.1464
      5 O          -7.7193  -17.5859   22.4500 O.2     1  UNL1       -0.4563
      6 C          -5.7661  -19.0683   21.3858 C.ar    1  UNL1        0.0537
      7 C          -5.3407  -19.9197   20.2264 C.ar    1  UNL1        0.0062
      8 C          -3.9110  -20.3557   20.1009 C.ar    1  UNL1        0.0208
      9 C          -2.9067  -19.9403   21.1346 C.ar    1  UNL1        0.0989
     10 N          -3.3320  -19.0889   22.2940 N.ar    1  UNL1       -0.2422
     11 C          -4.7617  -18.6529   22.4195 C.ar    1  UNL1        0.1019
     12 N         -11.1745  -15.7845   22.2132 N.3     1  UNL1       -0.3148
     13 C         -10.1265  -16.5462   22.9691 C.3     1  UNL1        0.1307
     14 H         -11.7099  -15.2077   22.8620 H       1  UNL1        0.1192
     15 H         -11.8002  -16.4401   21.7452 H       1  UNL1        0.1192
@<TRIPOS>BOND
     1    12    13    1
     2    13     1    1
     3     1     2   ar
     4     2     3   ar
     5     3     4   ar
     6     4     6    1
     7     6     7   ar
     8     7     8   ar
     9     8     9   ar
    10     9    10   ar
    11    10    11   ar
    12     4     5   ar
    13     5     1   ar
    14    11     6   ar
    15    12    14    1
    16    12    15    1
