@<TRIPOS>MOLECULE
*****
 29 31 0 0 0
SMALL
GASTEIGER

@<TRIPOS>ATOM
      1 C         -10.7969  -18.0623   20.6470 C.ar    1  UNL1       -0.0228
      2 C         -10.5396  -19.0194   19.5211 C.ar    1  UNL1       -0.0046
      3 C          -9.1688  -19.5962   19.3255 C.ar    1  UNL1       -0.0048
      4 C          -8.0554  -19.2160   20.2558 C.ar    1  UNL1       -0.0229
      5 C          -8.3126  -18.2589   21.3817 C.ar    1  UNL1       -0.0085
      6 C          -9.6834  -17.6820   21.5773 C.ar    1  UNL1       -0.0073
      7 C          -7.1991  -17.8786   22.3120 C.3     1  UNL1        0.0975
      8 N          -5.8283  -18.4554   22.1164 N.am    1  UNL1       -0.2760
      9 C          -4.7148  -18.0752   23.0467 C.2     1  UNL1        0.2420
     10 O          -4.9721  -17.1180   24.1727 O.2     1  UNL1       -0.2734
     11 C          -5.5711  -19.4126   20.9904 C.3     1  UNL1        0.0983
     12 C          -6.6846  -19.7928   20.0601 C.3     1  UNL1        0.0476
     13 C          -7.4563  -16.9215   23.4379 C.3     1  UNL1        0.0224
     14 C          -7.0476  -15.4840   23.3086 C.3     1  UNL1        0.0020
     15 C          -7.3049  -14.5269   24.4346 C.3     1  UNL1        0.0001
     16 C          -7.9709  -15.0072   25.6899 C.3     1  UNL1        0.0000
     17 C          -8.3797  -16.4447   25.8192 C.3     1  UNL1        0.0001
     18 C          -8.1224  -17.4018   24.6933 C.3     1  UNL1        0.0020
     19 C         -12.5801  -16.2583   20.0850 C.3     1  UNL1        0.0047
     20 C         -12.1676  -17.4854   20.8426 C.3     1  UNL1        0.0223
     21 C         -13.1260  -18.1357   21.7959 C.3     1  UNL1        0.0047
     22 C          -3.3441  -18.6520   22.8511 C.3     1  UNL1        0.1552
     23 N          -2.1575  -17.7421   22.7316 N.3     1  UNL1       -0.2878
     24 H          -1.3319  -18.3393   22.6861 H       1  UNL1        0.1238
     25 C          -2.0613  -16.7820   21.5831 C.3     1  UNL1        0.0985
     26 C          -1.9485  -17.3001   20.1800 C.3     1  UNL1        0.1263
     27 C          -0.6429  -17.8486   19.6857 C.3     1  UNL1        0.0332
     28 O          -3.1414  -17.2695   19.2711 O.3     1  UNL1       -0.3830
     29 H          -3.8978  -16.8875   19.7432 H       1  UNL1        0.2104
@<TRIPOS>BOND
     1    19    20    1
     2    20    21    1
     3    20     1    1
     4     1     2   ar
     5     2     3   ar
     6     3     4   ar
     7     4     5   ar
     8     5     6   ar
     9     5     7    1
    10     7    13    1
    11    13    14    1
    12    14    15    1
    13    15    16    1
    14    16    17    1
    15    17    18    1
    16     7     8    1
    17     8     9   am
    18     9    10    2
    19     9    22    1
    20    22    23    1
    21    23    25    1
    22    25    26    1
    23    26    27    1
    24    26    28    1
    25     8    11    1
    26    11    12    1
    27     6     1   ar
    28    18    13    1
    29    12     4    1
    30    23    24    1
    31    28    29    1
@<TRIPOS>MOLECULE
*****
 29 31 0 0 0
SMALL
GASTEIGER

@<TRIPOS>ATOM
      1 C          -7.6054  -20.4339   19.5925 C.ar    1  UNL1       -0.0228
      2 C          -6.2011  -20.9600   19.5594 C.ar    1  UNL1       -0.0046
      3 C          -5.1520  -20.3538   20.4437 C.ar    1  UNL1       -0.0048
      4 C          -5.5072  -19.2216   21.3611 C.ar    1  UNL1       -0.0229
      5 C          -6.9115  -18.6955   21.3943 C.ar    1  UNL1       -0.0085
      6 C          -7.9606  -19.3017   20.5100 C.ar    1  UNL1       -0.0073
      7 C          -7.2668  -17.5632   22.3117 C.3     1  UNL1        0.0975
      8 N          -6.2178  -16.9570   23.1960 N.am    1  UNL1       -0.2760
      9 C          -6.5730  -15.8247   24.1135 C.2     1  UNL1        0.2420
     10 O          -7.9774  -15.2986   24.1467 O.2     1  UNL1       -0.2734
     11 C          -4.8134  -17.4831   23.1628 C.3     1  UNL1        0.0983
     12 C          -4.4582  -18.6154   22.2454 C.3     1  UNL1        0.0476
     13 C          -8.6711  -17.0371   22.3449 C.3     1  UNL1        0.0224
     14 C          -9.6357  -17.5385   23.3785 C.3     1  UNL1        0.0020
     15 C         -11.0400  -17.0123   23.4116 C.3     1  UNL1        0.0001
     16 C         -11.4798  -15.9849   22.4111 C.3     1  UNL1        0.0000
     17 C         -10.5153  -15.4835   21.3775 C.3     1  UNL1        0.0001
     18 C          -9.1110  -16.0096   21.3444 C.3     1  UNL1        0.0020
     19 C          -8.3524  -22.2884   17.9333 C.3     1  UNL1        0.0047
     20 C          -8.6545  -21.0401   18.7082 C.3     1  UNL1        0.0223
     21 C         -10.0057  -20.3981   18.5988 C.3     1  UNL1        0.0047
     22 C          -5.5239  -15.2185   24.9978 C.3     1  UNL1        0.1552
     23 N          -5.9007  -14.6742   26.3438 N.3     1  UNL1       -0.2878
     24 H          -6.5547  -13.9089   26.1794 H       1  UNL1        0.1238
     25 C          -6.5329  -15.5720   27.3657 C.3     1  UNL1        0.0985
     26 C          -8.0269  -15.6450   27.4782 C.3     1  UNL1        0.1263
     27 C          -8.7393  -16.9315   27.1827 C.3     1  UNL1        0.0332
     28 O          -8.8084  -14.4315   27.8862 O.3     1  UNL1       -0.3830
     29 H          -8.2003  -13.6913   28.0385 H       1  UNL1        0.2104
@<TRIPOS>BOND
     1    19    20    1
     2    20    21    1
     3    20     1    1
     4     1     2   ar
     5     2     3   ar
     6     3     4   ar
     7     4     5   ar
     8     5     6   ar
     9     5     7    1
    10     7    13    1
    11    13    14    1
    12    14    15    1
    13    15    16    1
    14    16    17    1
    15    17    18    1
    16     7     8    1
    17     8     9   am
    18     9    10    2
    19     9    22    1
    20    22    23    1
    21    23    25    1
    22    25    26    1
    23    26    27    1
    24    26    28    1
    25     8    11    1
    26    11    12    1
    27     6     1   ar
    28    18    13    1
    29    12     4    1
    30    23    24    1
    31    28    29    1
@<TRIPOS>MOLECULE
*****
 29 31 0 0 0
SMALL
GASTEIGER

@<TRIPOS>ATOM
      1 C           1.5327    0.4223   21.7810 C.ar    1  UNL1       -0.0228
      2 C           1.3238    1.0684   23.1185 C.ar    1  UNL1       -0.0046
      3 C           2.1321    0.6230   24.3010 C.ar    1  UNL1       -0.0048
      4 C           3.1493   -0.4684   24.1460 C.ar    1  UNL1       -0.0229
      5 C           3.3582   -1.1145   22.8085 C.ar    1  UNL1       -0.0085
      6 C           2.5499   -0.6691   21.6260 C.ar    1  UNL1       -0.0073
      7 C           4.3755   -2.2060   22.6535 C.3     1  UNL1        0.0975
      8 N           5.1837   -2.6513   23.8360 N.am    1  UNL1       -0.2760
      9 C           6.2009   -3.7427   23.6810 C.2     1  UNL1        0.2420
     10 O           6.4099   -4.3889   22.3435 O.2     1  UNL1       -0.2734
     11 C           4.9748   -2.0052   25.1735 C.3     1  UNL1        0.0983
     12 C           3.9576   -0.9138   25.3285 C.3     1  UNL1        0.0476
     13 C           4.5844   -2.8520   21.3160 C.3     1  UNL1        0.0224
     14 C           3.8162   -4.0878   20.9518 C.3     1  UNL1        0.0020
     15 C           4.0251   -4.7338   19.6142 C.3     1  UNL1        0.0001
     16 C           5.0023   -4.1441   18.6409 C.3     1  UNL1        0.0000
     17 C           5.7705   -2.9083   19.0051 C.3     1  UNL1        0.0001
     18 C           5.5616   -2.2623   20.3426 C.3     1  UNL1        0.0020
     19 C          -0.2932    1.9586   20.7536 C.3     1  UNL1        0.0047
     20 C           0.7245    0.8677   20.5985 C.3     1  UNL1        0.0223
     21 C           0.9338    0.2221   19.2608 C.3     1  UNL1        0.0047
     22 C           7.0092   -4.1881   24.8635 C.3     1  UNL1        0.1552
     23 N           6.3998   -5.0977   25.8889 N.3     1  UNL1       -0.2878
     24 H           5.6475   -5.6048   25.4227 H       1  UNL1        0.1238
     25 C           7.2485   -6.1224   26.5815 C.3     1  UNL1        0.0985
     26 C           7.4260   -7.4829   25.9755 C.3     1  UNL1        0.1263
     27 C           8.4007   -7.6825   24.8529 C.3     1  UNL1        0.0332
     28 O           6.6289   -8.6438   26.4920 O.3     1  UNL1       -0.3830
     29 H           6.0515   -8.3449   27.2118 H       1  UNL1        0.2104
@<TRIPOS>BOND
     1    19    20    1
     2    20    21    1
     3    20     1    1
     4     1     2   ar
     5     2     3   ar
     6     3     4   ar
     7     4     5   ar
     8     5     6   ar
     9     5     7    1
    10     7    13    1
    11    13    14    1
    12    14    15    1
    13    15    16    1
    14    16    17    1
    15    17    18    1
    16     7     8    1
    17     8     9   am
    18     9    10    2
    19     9    22    1
    20    22    23    1
    21    23    25    1
    22    25    26    1
    23    26    27    1
    24    26    28    1
    25     8    11    1
    26    11    12    1
    27     6     1   ar
    28    18    13    1
    29    12     4    1
    30    23    24    1
    31    28    29    1
@<TRIPOS>MOLECULE
*****
 29 31 0 0 0
SMALL
GASTEIGER

@<TRIPOS>ATOM
      1 C           4.8735   -3.1903   20.5618 C.ar    1  UNL1       -0.0228
      2 C           5.5410   -3.9294   21.6835 C.ar    1  UNL1       -0.0046
      3 C           5.3281   -3.4908   23.1021 C.ar    1  UNL1       -0.0048
      4 C           4.4478   -2.3131   23.3990 C.ar    1  UNL1       -0.0229
      5 C           3.7803   -1.5741   22.2773 C.ar    1  UNL1       -0.0085
      6 C           3.9931   -2.0127   20.8587 C.ar    1  UNL1       -0.0073
      7 C           2.8999   -0.3964   22.5741 C.3     1  UNL1        0.0975
      8 N           2.6871    0.0422   23.9927 N.am    1  UNL1       -0.2760
      9 C           1.8068    1.2198   24.2896 C.2     1  UNL1        0.2420
     10 O           1.1392    1.9589   23.1679 O.2     1  UNL1       -0.2734
     11 C           3.3547   -0.6969   25.1144 C.3     1  UNL1        0.0983
     12 C           4.2350   -1.8745   24.8175 C.3     1  UNL1        0.0476
     13 C           2.2324    0.3426   21.4524 C.3     1  UNL1        0.0224
     14 C           0.8697   -0.0753   20.9851 C.3     1  UNL1        0.0020
     15 C           0.2022    0.6638   19.8633 C.3     1  UNL1        0.0001
     16 C           0.8974    1.8207   19.2090 C.3     1  UNL1        0.0000
     17 C           2.2601    2.2386   19.6763 C.3     1  UNL1        0.0001
     18 C           2.9276    1.4996   20.7980 C.3     1  UNL1        0.0020
     19 C           5.7634   -2.7120   18.1683 C.3     1  UNL1        0.0047
     20 C           5.0863   -3.6289   19.1433 C.3     1  UNL1        0.0223
     21 C           4.6220   -4.9845   18.6997 C.3     1  UNL1        0.0047
     22 C           1.5940    1.6584   25.7081 C.3     1  UNL1        0.1552
     23 N           0.5370    1.0016   26.5457 N.3     1  UNL1       -0.2878
     24 H           0.5853    0.0017   26.3499 H       1  UNL1        0.1238
     25 C           0.5614    1.1523   28.0379 C.3     1  UNL1        0.0985
     26 C           0.1183    0.0180   28.9136 C.3     1  UNL1        0.1263
     27 C          -1.2858   -0.5006   28.8161 C.3     1  UNL1        0.0332
     28 O           1.0793   -0.5977   29.8869 O.3     1  UNL1       -0.3830
     29 H           1.9367   -0.1486   29.8228 H       1  UNL1        0.2104
@<TRIPOS>BOND
     1    19    20    1
     2    20    21    1
     3    20     1    1
     4     1     2   ar
     5     2     3   ar
     6     3     4   ar
     7     4     5   ar
     8     5     6   ar
     9     5     7    1
    10     7    13    1
    11    13    14    1
    12    14    15    1
    13    15    16    1
    14    16    17    1
    15    17    18    1
    16     7     8    1
    17     8     9   am
    18     9    10    2
    19     9    22    1
    20    22    23    1
    21    23    25    1
    22    25    26    1
    23    26    27    1
    24    26    28    1
    25     8    11    1
    26    11    12    1
    27     6     1   ar
    28    18    13    1
    29    12     4    1
    30    23    24    1
    31    28    29    1
@<TRIPOS>MOLECULE
*****
 29 31 0 0 0
SMALL
GASTEIGER

@<TRIPOS>ATOM
      1 C           1.9064    0.9212   29.8450 C.ar    1  UNL1       -0.0228
      2 C           0.9540    2.0309   30.1784 C.ar    1  UNL1       -0.0046
      3 C           0.9365    2.6146   31.5601 C.ar    1  UNL1       -0.0048
      4 C           1.8715    2.0885   32.6083 C.ar    1  UNL1       -0.0229
      5 C           2.8240    0.9788   32.2749 C.ar    1  UNL1       -0.0085
      6 C           2.8415    0.3951   30.8933 C.ar    1  UNL1       -0.0073
      7 C           3.7591    0.4527   33.3232 C.3     1  UNL1        0.0975
      8 N           3.7417    1.0363   34.7049 N.am    1  UNL1       -0.2760
      9 C           4.6767    0.5103   35.7532 C.2     1  UNL1        0.2420
     10 O           5.6292   -0.5996   35.4198 O.2     1  UNL1       -0.2734
     11 C           2.7891    2.1461   35.0383 C.3     1  UNL1        0.0983
     12 C           1.8541    2.6722   33.9900 C.3     1  UNL1        0.0476
     13 C           4.7116   -0.6571   32.9898 C.3     1  UNL1        0.0224
     14 C           4.2992   -2.0852   33.1909 C.3     1  UNL1        0.0020
     15 C           5.2517   -3.1950   32.8575 C.3     1  UNL1        0.0001
     16 C           6.6166   -2.8766   32.3230 C.3     1  UNL1        0.0000
     17 C           7.0290   -1.4485   32.1219 C.3     1  UNL1        0.0001
     18 C           6.0765   -0.3388   32.4553 C.3     1  UNL1        0.0020
     19 C           1.0525    0.9218   27.3913 C.3     1  UNL1        0.0047
     20 C           1.9239    0.3375   28.4633 C.3     1  UNL1        0.0223
     21 C           2.8127   -0.8304   28.1537 C.3     1  UNL1        0.0047
     22 C           4.6592    1.0939   37.1348 C.3     1  UNL1        0.1552
     23 N           3.6223    0.6498   38.1236 N.3     1  UNL1       -0.2878
     24 H           4.1230    0.2306   38.9071 H       1  UNL1        0.1238
     25 C           2.6649    1.6473   38.7054 C.3     1  UNL1        0.0985
     26 C           1.2778    1.2218   39.0860 C.3     1  UNL1        0.1263
     27 C           1.0348   -0.1635   39.6074 C.3     1  UNL1        0.0332
     28 O           0.1338    2.1816   38.9453 O.3     1  UNL1       -0.3830
     29 H           0.4610    3.0259   38.5974 H       1  UNL1        0.2104
@<TRIPOS>BOND
     1    19    20    1
     2    20    21    1
     3    20     1    1
     4     1     2   ar
     5     2     3   ar
     6     3     4   ar
     7     4     5   ar
     8     5     6   ar
     9     5     7    1
    10     7    13    1
    11    13    14    1
    12    14    15    1
    13    15    16    1
    14    16    17    1
    15    17    18    1
    16     7     8    1
    17     8     9   am
    18     9    10    2
    19     9    22    1
    20    22    23    1
    21    23    25    1
    22    25    26    1
    23    26    27    1
    24    26    28    1
    25     8    11    1
    26    11    12    1
    27     6     1   ar
    28    18    13    1
    29    12     4    1
    30    23    24    1
    31    28    29    1
@<TRIPOS>MOLECULE
*****
 29 31 0 0 0
SMALL
GASTEIGER

@<TRIPOS>ATOM
      1 C           2.0566    0.0566   22.5695 C.ar    1  UNL1       -0.0228
      2 C           2.0483    0.5178   23.9968 C.ar    1  UNL1       -0.0046
      3 C           3.0085   -0.0781   24.9832 C.ar    1  UNL1       -0.0048
      4 C           3.9771   -1.1352   24.5423 C.ar    1  UNL1       -0.0229
      5 C           3.9854   -1.5963   23.1150 C.ar    1  UNL1       -0.0085
      6 C           3.0252   -1.0004   22.1286 C.ar    1  UNL1       -0.0073
      7 C           4.9540   -2.6534   22.6740 C.3     1  UNL1        0.0975
      8 N           5.9142   -3.2493   23.6604 N.am    1  UNL1       -0.2760
      9 C           6.8828   -4.3064   23.2194 C.2     1  UNL1        0.2420
     10 O           6.8912   -4.7676   21.7921 O.2     1  UNL1       -0.2734
     11 C           5.9058   -2.7881   25.0877 C.3     1  UNL1        0.0983
     12 C           4.9373   -1.7311   25.5286 C.3     1  UNL1        0.0476
     13 C           4.9624   -3.1146   21.2467 C.3     1  UNL1        0.0224
     14 C           4.1006   -4.2680   20.8261 C.3     1  UNL1        0.0020
     15 C           4.1090   -4.7292   19.3987 C.3     1  UNL1        0.0001
     16 C           4.9791   -4.0369   18.3920 C.3     1  UNL1        0.0000
     17 C           5.8410   -2.8835   18.8126 C.3     1  UNL1        0.0001
     18 C           5.8326   -2.4224   20.2399 C.3     1  UNL1        0.0020
     19 C           0.7263   -0.1073   20.3440 C.3     1  UNL1        0.0047
     20 C           1.0964    0.6525   21.5832 C.3     1  UNL1        0.0223
     21 C           0.5064    2.0082   21.8360 C.3     1  UNL1        0.0047
     22 C           7.8430   -4.9023   24.2058 C.3     1  UNL1        0.1552
     23 N           7.7331   -6.3513   24.5780 N.3     1  UNL1       -0.2878
     24 H           7.9686   -6.8883   23.7434 H       1  UNL1        0.1238
     25 C           8.5652   -6.9033   25.6973 C.3     1  UNL1        0.0985
     26 C           8.0731   -8.0787   26.4885 C.3     1  UNL1        0.1263
     27 C           9.0193   -8.8384   27.3703 C.3     1  UNL1        0.0332
     28 O           6.6347   -8.4945   26.3980 O.3     1  UNL1       -0.3830
     29 H           6.1648   -7.9029   25.7895 H       1  UNL1        0.2104
@<TRIPOS>BOND
     1    19    20    1
     2    20    21    1
     3    20     1    1
     4     1     2   ar
     5     2     3   ar
     6     3     4   ar
     7     4     5   ar
     8     5     6   ar
     9     5     7    1
    10     7    13    1
    11    13    14    1
    12    14    15    1
    13    15    16    1
    14    16    17    1
    15    17    18    1
    16     7     8    1
    17     8     9   am
    18     9    10    2
    19     9    22    1
    20    22    23    1
    21    23    25    1
    22    25    26    1
    23    26    27    1
    24    26    28    1
    25     8    11    1
    26    11    12    1
    27     6     1   ar
    28    18    13    1
    29    12     4    1
    30    23    24    1
    31    28    29    1
@<TRIPOS>MOLECULE
*****
 29 31 0 0 0
SMALL
GASTEIGER

@<TRIPOS>ATOM
      1 C          -4.1534  -16.7750   23.1253 C.ar    1  UNL1       -0.0228
      2 C          -4.3647  -15.7728   24.2211 C.ar    1  UNL1       -0.0046
      3 C          -5.7375  -15.5575   24.7861 C.ar    1  UNL1       -0.0048
      4 C          -6.8989  -16.3444   24.2553 C.ar    1  UNL1       -0.0229
      5 C          -6.6876  -17.3466   23.1596 C.ar    1  UNL1       -0.0085
      6 C          -5.3149  -17.5620   22.5946 C.ar    1  UNL1       -0.0073
      7 C          -7.8491  -18.1336   22.6287 C.3     1  UNL1        0.0975
      8 N          -9.2218  -17.9182   23.1937 N.am    1  UNL1       -0.2760
      9 C         -10.3832  -18.7052   22.6629 C.2     1  UNL1        0.2420
     10 O         -10.1720  -19.7075   21.5671 O.2     1  UNL1       -0.2734
     11 C          -9.4331  -16.9159   24.2896 C.3     1  UNL1        0.0983
     12 C          -8.2716  -16.1290   24.8203 C.3     1  UNL1        0.0476
     13 C          -7.6378  -19.1358   21.5329 C.3     1  UNL1        0.0224
     14 C          -6.7892  -20.3481   21.7786 C.3     1  UNL1        0.0020
     15 C          -6.5779  -21.3503   20.6828 C.3     1  UNL1        0.0001
     16 C          -7.2152  -21.1404   19.3412 C.3     1  UNL1        0.0000
     17 C          -8.0638  -19.9281   19.0955 C.3     1  UNL1        0.0001
     18 C          -8.2751  -18.9259   20.1913 C.3     1  UNL1        0.0020
     19 C          -2.0987  -18.3153   22.7312 C.3     1  UNL1        0.0047
     20 C          -2.7807  -16.9904   22.5603 C.3     1  UNL1        0.0223
     21 C          -2.0900  -15.8808   21.8244 C.3     1  UNL1        0.0047
     22 C         -11.7560  -18.4898   23.2279 C.3     1  UNL1        0.1552
     23 N         -12.7028  -17.5397   22.5564 N.3     1  UNL1       -0.2878
     24 H         -13.4655  -17.3713   23.2124 H       1  UNL1        0.1238
     25 C         -12.2186  -16.1950   22.1009 C.3     1  UNL1        0.0985
     26 C         -11.2545  -16.0933   20.9564 C.3     1  UNL1        0.1263
     27 C         -11.5507  -16.7908   19.6619 C.3     1  UNL1        0.0332
     28 O          -9.9940  -15.2941   21.1064 O.3     1  UNL1       -0.3830
     29 H          -9.9575  -14.9122   21.9973 H       1  UNL1        0.2104
@<TRIPOS>BOND
     1    19    20    1
     2    20    21    1
     3    20     1    1
     4     1     2   ar
     5     2     3   ar
     6     3     4   ar
     7     4     5   ar
     8     5     6   ar
     9     5     7    1
    10     7    13    1
    11    13    14    1
    12    14    15    1
    13    15    16    1
    14    16    17    1
    15    17    18    1
    16     7     8    1
    17     8     9   am
    18     9    10    2
    19     9    22    1
    20    22    23    1
    21    23    25    1
    22    25    26    1
    23    26    27    1
    24    26    28    1
    25     8    11    1
    26    11    12    1
    27     6     1   ar
    28    18    13    1
    29    12     4    1
    30    23    24    1
    31    28    29    1
@<TRIPOS>MOLECULE
*****
 29 31 0 0 0
SMALL
GASTEIGER

@<TRIPOS>ATOM
      1 C           3.8706   -1.7320   22.5727 C.ar    1  UNL1       -0.0228
      2 C           3.8448   -2.2483   21.1647 C.ar    1  UNL1       -0.0046
      3 C           2.8934   -1.6578   20.1666 C.ar    1  UNL1       -0.0048
      4 C           1.9678   -0.5510   20.5766 C.ar    1  UNL1       -0.0229
      5 C           1.9935   -0.0347   21.9847 C.ar    1  UNL1       -0.0085
      6 C           2.9449   -0.6252   22.9828 C.ar    1  UNL1       -0.0073
      7 C           1.0679    1.0721   22.3948 C.3     1  UNL1        0.0975
      8 N           0.1164    1.6626   21.3967 N.am    1  UNL1       -0.2760
      9 C          -0.8092    2.7694   21.8068 C.2     1  UNL1        0.2420
     10 O          -0.7835    3.2858   23.2149 O.2     1  UNL1       -0.2734
     11 C           0.0907    1.1463   19.9886 C.3     1  UNL1        0.0983
     12 C           1.0163    0.0395   19.5786 C.3     1  UNL1        0.0476
     13 C           1.0936    1.5884   23.8029 C.3     1  UNL1        0.0224
     14 C           2.0142    2.7135   24.1724 C.3     1  UNL1        0.0020
     15 C           2.0400    3.2298   25.5806 C.3     1  UNL1        0.0001
     16 C           1.1452    2.6210   26.6191 C.3     1  UNL1        0.0000
     17 C           0.2246    1.4958   26.2496 C.3     1  UNL1        0.0001
     18 C           0.1988    0.9795   24.8415 C.3     1  UNL1        0.0020
     19 C           5.0564   -1.6334   24.8823 C.3     1  UNL1        0.0047
     20 C           4.8220   -2.3225   23.5708 C.3     1  UNL1        0.0223
     21 C           5.5391   -3.6022   23.2573 C.3     1  UNL1        0.0047
     22 C          -1.7606    3.3599   20.8087 C.3     1  UNL1        0.1552
     23 N          -3.1302    2.7719   20.6392 N.3     1  UNL1       -0.2878
     24 H          -3.1127    1.8527   21.0809 H       1  UNL1        0.1238
     25 C          -4.3281    3.4916   21.1842 C.3     1  UNL1        0.0985
     26 C          -4.4663    3.7052   22.6625 C.3     1  UNL1        0.1263
     27 C          -3.9639    4.9730   23.2872 C.3     1  UNL1        0.0332
     28 O          -5.1068    2.6511   23.5159 O.3     1  UNL1       -0.3830
     29 H          -5.3731    1.9024   22.9596 H       1  UNL1        0.2104
@<TRIPOS>BOND
     1    19    20    1
     2    20    21    1
     3    20     1    1
     4     1     2   ar
     5     2     3   ar
     6     3     4   ar
     7     4     5   ar
     8     5     6   ar
     9     5     7    1
    10     7    13    1
    11    13    14    1
    12    14    15    1
    13    15    16    1
    14    16    17    1
    15    17    18    1
    16     7     8    1
    17     8     9   am
    18     9    10    2
    19     9    22    1
    20    22    23    1
    21    23    25    1
    22    25    26    1
    23    26    27    1
    24    26    28    1
    25     8    11    1
    26    11    12    1
    27     6     1   ar
    28    18    13    1
    29    12     4    1
    30    23    24    1
    31    28    29    1
@<TRIPOS>MOLECULE
*****
 29 31 0 0 0
SMALL
GASTEIGER

@<TRIPOS>ATOM
      1 C           7.7776   -6.2638   25.3197 C.ar    1  UNL1       -0.0228
      2 C           8.6561   -7.2490   24.6073 C.ar    1  UNL1       -0.0046
      3 C           9.0693   -6.9960   23.1877 C.ar    1  UNL1       -0.0048
      4 C           8.6040   -5.7577   22.4805 C.ar    1  UNL1       -0.0229
      5 C           7.7256   -4.7725   23.1929 C.ar    1  UNL1       -0.0085
      6 C           7.3124   -5.0255   24.6125 C.ar    1  UNL1       -0.0073
      7 C           7.2602   -3.5341   22.4858 C.3     1  UNL1        0.0975
      8 N           7.6734   -3.2811   21.0662 N.am    1  UNL1       -0.2760
      9 C           7.2082   -2.0428   20.3590 C.2     1  UNL1        0.2420
     10 O           6.3297   -1.0575   21.0714 O.2     1  UNL1       -0.2734
     11 C           8.5519   -4.2664   20.3538 C.3     1  UNL1        0.0983
     12 C           9.0172   -5.5047   21.0609 C.3     1  UNL1        0.0476
     13 C           6.3818   -2.5489   23.1982 C.3     1  UNL1        0.0224
     14 C           4.8902   -2.6984   23.1448 C.3     1  UNL1        0.0020
     15 C           4.0117   -1.7131   23.8573 C.3     1  UNL1        0.0001
     16 C           4.6249   -0.5783   24.6231 C.3     1  UNL1        0.0000
     17 C           6.1165   -0.4289   24.6764 C.3     1  UNL1        0.0001
     18 C           6.9949   -1.4141   23.9640 C.3     1  UNL1        0.0020
     19 C           7.9877   -7.6408   27.5128 C.3     1  UNL1        0.0047
     20 C           7.3644   -6.5169   26.7393 C.3     1  UNL1        0.0223
     21 C           6.3280   -5.6460   27.3853 C.3     1  UNL1        0.0047
     22 C           7.6214   -1.7897   18.9394 C.3     1  UNL1        0.1552
     23 N           6.7364   -2.2296   17.8109 N.3     1  UNL1       -0.2878
     24 H           7.1765   -3.0499   17.3940 H       1  UNL1        0.1238
     25 C           5.3061   -2.5943   18.0779 C.3     1  UNL1        0.0985
     26 C           4.2081   -1.6390   17.7150 C.3     1  UNL1        0.1263
     27 C           3.4509   -0.9221   18.7932 C.3     1  UNL1        0.0332
     28 O           3.8675   -1.4005   16.2738 O.3     1  UNL1       -0.3830
     29 H           4.4471   -1.9377   15.7114 H       1  UNL1        0.2104
@<TRIPOS>BOND
     1    19    20    1
     2    20    21    1
     3    20     1    1
     4     1     2   ar
     5     2     3   ar
     6     3     4   ar
     7     4     5   ar
     8     5     6   ar
     9     5     7    1
    10     7    13    1
    11    13    14    1
    12    14    15    1
    13    15    16    1
    14    16    17    1
    15    17    18    1
    16     7     8    1
    17     8     9   am
    18     9    10    2
    19     9    22    1
    20    22    23    1
    21    23    25    1
    22    25    26    1
    23    26    27    1
    24    26    28    1
    25     8    11    1
    26    11    12    1
    27     6     1   ar
    28    18    13    1
    29    12     4    1
    30    23    24    1
    31    28    29    1
