@<TRIPOS>MOLECULE
*****
 29 32 0 0 0
SMALL
GASTEIGER

@<TRIPOS>ATOM
      1 C          -8.0252  -16.8730   21.8962 C.ar    1  UNL1        0.1361
      2 N          -6.8935  -17.7729   21.4970 N.ar    1  UNL1       -0.2131
      3 C          -7.1802  -19.1179   20.8979 C.ar    1  UNL1        0.1714
      4 N          -8.5986  -19.5629   20.6980 N.ar    1  UNL1       -0.2279
      5 C          -9.7304  -18.6630   21.0973 C.ar    1  UNL1        0.0854
      6 C         -11.1488  -19.1081   20.8974 C.ar    1  UNL1        0.0192
      7 C         -12.2805  -18.2082   21.2967 C.ar    1  UNL1        0.0015
      8 C         -11.9938  -16.8632   21.8958 C.ar    1  UNL1        0.0002
      9 C         -10.5754  -16.4182   22.0956 C.ar    1  UNL1        0.0043
     10 C          -9.4437  -17.3181   21.6964 C.ar    1  UNL1        0.0494
     11 C          -6.0484  -20.0178   20.4987 C.3     1  UNL1        0.1912
     12 O          -6.3265  -21.4293   20.0741 O.3     1  UNL1       -0.3730
     13 H          -7.2811  -21.5969   20.1143 H       1  UNL1        0.2113
     14 C          -4.6387  -19.5061   20.5240 C.ar    1  UNL1        0.0117
     15 C          -4.0748  -18.8017   19.3257 C.ar    1  UNL1        0.0008
     16 C          -2.6650  -18.2900   19.3510 C.ar    1  UNL1        0.0294
     17 C          -1.8190  -18.4828   20.5746 C.ar    1  UNL1        0.1401
     18 F          -0.4092  -17.9712   20.5999 F       1  UNL1       -0.2042
     19 C          -2.3828  -19.1873   21.7728 C.ar    1  UNL1        0.0294
     20 C          -3.7927  -19.6990   21.7475 C.ar    1  UNL1        0.0008
     21 N          -7.7384  -15.5281   22.4953 N.pl3   1  UNL1       -0.2819
     22 H          -7.7277  -14.7267   21.9236 H       1  UNL1        0.1551
     23 C          -8.2938  -15.7655   27.7409 C.3     1  UNL1        0.0515
     24 C          -7.7234  -15.5133   26.3766 C.ar    1  UNL1        0.0548
     25 C          -8.3953  -15.8164   25.0703 C.ar    1  UNL1        0.0502
     26 C          -7.4681  -15.4042   23.9655 C.ar    1  UNL1        0.1539
     27 N          -6.2232  -14.8462   24.5892 N.ar    1  UNL1       -0.1577
     28 N          -6.3810  -14.9136   26.0793 N.ar    1  UNL1       -0.2786
     29 H          -5.7196  -14.6164   26.7453 H       1  UNL1        0.1886
@<TRIPOS>BOND
     1    23    24    1
     2    24    25   ar
     3    25    26   ar
     4    26    21    1
     5    21     1    1
     6     1     2   ar
     7     2     3   ar
     8     3    11    1
     9    11    12    1
    10    11    14    1
    11    14    15   ar
    12    15    16   ar
    13    16    17   ar
    14    17    18    1
    15    17    19   ar
    16    19    20   ar
    17     3     4   ar
    18     4     5   ar
    19     5     6   ar
    20     6     7   ar
    21     7     8   ar
    22     8     9   ar
    23     9    10   ar
    24    26    27   ar
    25    27    28   ar
    26    28    24   ar
    27    10     1   ar
    28    20    14   ar
    29    10     5   ar
    30    21    22    1
    31    12    13    1
    32    28    29    1
@<TRIPOS>MOLECULE
*****
 29 32 0 0 0
SMALL
GASTEIGER

@<TRIPOS>ATOM
      1 C          -8.4967  -18.4265   22.7644 C.ar    1  UNL1        0.1361
      2 N          -7.6115  -19.2700   21.8955 N.ar    1  UNL1       -0.2131
      3 C          -6.1463  -18.9645   21.7971 C.ar    1  UNL1        0.1714
      4 N          -5.5662  -17.8157   22.5675 N.ar    1  UNL1       -0.2279
      5 C          -6.4514  -16.9722   23.4364 C.ar    1  UNL1        0.0854
      6 C          -5.8713  -15.8233   24.2069 C.ar    1  UNL1        0.0192
      7 C          -6.7564  -14.9799   25.0758 C.ar    1  UNL1        0.0015
      8 C          -8.2217  -15.2853   25.1742 C.ar    1  UNL1        0.0002
      9 C          -8.8018  -16.4342   24.4038 C.ar    1  UNL1        0.0043
     10 C          -7.9166  -17.2776   23.5349 C.ar    1  UNL1        0.0494
     11 C          -5.2611  -19.8081   20.9281 C.3     1  UNL1        0.1912
     12 O          -5.7593  -21.1206   20.4000 O.3     1  UNL1       -0.3730
     13 H          -6.6653  -21.2718   20.7120 H       1  UNL1        0.2113
     14 C          -3.8777  -19.3390   20.5873 C.ar    1  UNL1        0.0117
     15 C          -2.7427  -19.6011   21.5323 C.ar    1  UNL1        0.0008
     16 C          -1.3594  -19.1321   21.1914 C.ar    1  UNL1        0.0294
     17 C          -1.1109  -18.4007   19.9055 C.ar    1  UNL1        0.1401
     18 F           0.2724  -17.9316   19.5647 F       1  UNL1       -0.2042
     19 C          -2.2459  -18.1386   18.9605 C.ar    1  UNL1        0.0294
     20 C          -3.6293  -18.6077   19.3014 C.ar    1  UNL1        0.0008
     21 N          -9.9620  -18.7319   22.8629 N.pl3   1  UNL1       -0.2819
     22 H         -10.2821  -19.4072   23.5039 H       1  UNL1        0.1551
     23 C         -11.9975  -15.6081   19.1241 C.3     1  UNL1        0.0515
     24 C         -11.8752  -16.5727   20.2663 C.ar    1  UNL1        0.0548
     25 C         -10.5939  -17.0613   20.8744 C.ar    1  UNL1        0.0502
     26 C         -10.9396  -18.0086   21.9849 C.ar    1  UNL1        0.1539
     27 N         -12.4344  -18.1055   22.0631 N.ar    1  UNL1       -0.1577
     28 N         -13.0127  -17.2181   21.0010 N.ar    1  UNL1       -0.2786
     29 H         -13.9706  -17.0829   20.8182 H       1  UNL1        0.1886
@<TRIPOS>BOND
     1    23    24    1
     2    24    25   ar
     3    25    26   ar
     4    26    21    1
     5    21     1    1
     6     1     2   ar
     7     2     3   ar
     8     3    11    1
     9    11    12    1
    10    11    14    1
    11    14    15   ar
    12    15    16   ar
    13    16    17   ar
    14    17    18    1
    15    17    19   ar
    16    19    20   ar
    17     3     4   ar
    18     4     5   ar
    19     5     6   ar
    20     6     7   ar
    21     7     8   ar
    22     8     9   ar
    23     9    10   ar
    24    26    27   ar
    25    27    28   ar
    26    28    24   ar
    27    10     1   ar
    28    20    14   ar
    29    10     5   ar
    30    21    22    1
    31    12    13    1
    32    28    29    1
@<TRIPOS>MOLECULE
*****
 29 32 0 0 0
SMALL
GASTEIGER

@<TRIPOS>ATOM
      1 C          -8.6268  -17.9461   22.0794 C.ar    1  UNL1        0.1361
      2 N          -7.7247  -18.8560   21.2996 N.ar    1  UNL1       -0.2131
      3 C          -6.2408  -18.8038   21.5126 C.ar    1  UNL1        0.1714
      4 N          -5.6591  -17.8417   22.5054 N.ar    1  UNL1       -0.2279
      5 C          -6.5612  -16.9316   23.2853 C.ar    1  UNL1        0.0854
      6 C          -5.9794  -15.9695   24.2781 C.ar    1  UNL1        0.0192
      7 C          -6.8815  -15.0596   25.0579 C.ar    1  UNL1        0.0015
      8 C          -8.3654  -15.1118   24.8449 C.ar    1  UNL1        0.0002
      9 C          -8.9472  -16.0739   23.8521 C.ar    1  UNL1        0.0043
     10 C          -8.0451  -16.9839   23.0723 C.ar    1  UNL1        0.0494
     11 C          -5.3387  -19.7138   20.7327 C.3     1  UNL1        0.1912
     12 O          -5.8554  -21.0274   20.2253 O.3     1  UNL1       -0.3730
     13 H          -6.7837  -21.1323   20.4863 H       1  UNL1        0.2113
     14 C          -3.9200  -19.3102   20.4603 C.ar    1  UNL1        0.0117
     15 C          -2.8398  -19.6575   21.4415 C.ar    1  UNL1        0.0008
     16 C          -1.4211  -19.2539   21.1691 C.ar    1  UNL1        0.0294
     17 C          -1.0825  -18.5030   19.9154 C.ar    1  UNL1        0.1401
     18 F           0.3363  -18.0994   19.6430 F       1  UNL1       -0.2042
     19 C          -2.1626  -18.1557   18.9343 C.ar    1  UNL1        0.0294
     20 C          -3.5814  -18.5593   19.2067 C.ar    1  UNL1        0.0008
     21 N         -10.1107  -17.9983   21.8664 N.pl3   1  UNL1       -0.2819
     22 H         -10.4877  -17.8022   20.9784 H       1  UNL1        0.1551
     23 C         -14.3643  -18.3358   24.9766 C.3     1  UNL1        0.0515
     24 C         -12.9753  -18.5045   24.4360 C.ar    1  UNL1        0.0548
     25 C         -12.4538  -17.9326   23.1512 C.ar    1  UNL1        0.0502
     26 C         -11.0201  -18.3494   23.0064 C.ar    1  UNL1        0.1539
     27 N         -10.6556  -19.1790   24.2018 N.ar    1  UNL1       -0.1577
     28 N         -11.8640  -19.2749   25.0854 N.ar    1  UNL1       -0.2786
     29 H         -11.9182  -19.7585   25.9412 H       1  UNL1        0.1886
@<TRIPOS>BOND
     1    23    24    1
     2    24    25   ar
     3    25    26   ar
     4    26    21    1
     5    21     1    1
     6     1     2   ar
     7     2     3   ar
     8     3    11    1
     9    11    12    1
    10    11    14    1
    11    14    15   ar
    12    15    16   ar
    13    16    17   ar
    14    17    18    1
    15    17    19   ar
    16    19    20   ar
    17     3     4   ar
    18     4     5   ar
    19     5     6   ar
    20     6     7   ar
    21     7     8   ar
    22     8     9   ar
    23     9    10   ar
    24    26    27   ar
    25    27    28   ar
    26    28    24   ar
    27    10     1   ar
    28    20    14   ar
    29    10     5   ar
    30    21    22    1
    31    12    13    1
    32    28    29    1
@<TRIPOS>MOLECULE
*****
 29 32 0 0 0
SMALL
GASTEIGER

@<TRIPOS>ATOM
      1 C          -6.4175  -15.5048   23.6036 C.ar    1  UNL1        0.1361
      2 N          -7.3726  -15.8184   22.4904 N.ar    1  UNL1       -0.2131
      3 C          -8.7746  -16.2496   22.8041 C.ar    1  UNL1        0.1714
      4 N          -9.2215  -16.3672   24.2312 N.ar    1  UNL1       -0.2279
      5 C          -8.2663  -16.0537   25.3445 C.ar    1  UNL1        0.0854
      6 C          -8.7132  -16.1713   26.7715 C.ar    1  UNL1        0.0192
      7 C          -7.7580  -15.8577   27.8847 C.ar    1  UNL1        0.0015
      8 C          -6.3560  -15.4265   27.5710 C.ar    1  UNL1        0.0002
      9 C          -5.9092  -15.3089   26.1439 C.ar    1  UNL1        0.0043
     10 C          -6.8643  -15.6225   25.0307 C.ar    1  UNL1        0.0494
     11 C          -9.7298  -16.5632   21.6908 C.3     1  UNL1        0.1912
     12 O         -10.9130  -15.6746   21.4452 O.3     1  UNL1       -0.3730
     13 H         -10.9121  -14.9495   22.0896 H       1  UNL1        0.2113
     14 C          -9.5017  -17.7653   20.8232 C.ar    1  UNL1        0.0117
     15 C         -10.6089  -18.2842   19.9545 C.ar    1  UNL1        0.0008
     16 C         -10.3808  -19.4863   19.0868 C.ar    1  UNL1        0.0294
     17 C          -9.0454  -20.1696   19.0879 C.ar    1  UNL1        0.1401
     18 F          -8.8173  -21.3717   18.2203 F       1  UNL1       -0.2042
     19 C          -7.9382  -19.6506   19.9566 C.ar    1  UNL1        0.0294
     20 C          -8.1663  -18.4484   20.8243 C.ar    1  UNL1        0.0008
     21 N          -5.0155  -15.0736   23.2898 N.pl3   1  UNL1       -0.2819
     22 H          -4.7373  -14.1442   23.4570 H       1  UNL1        0.1551
     23 C          -2.6245  -19.6000   21.9955 C.3     1  UNL1        0.0515
     24 C          -2.9384  -18.1391   22.1263 C.ar    1  UNL1        0.0548
     25 C          -4.1196  -17.5515   22.8401 C.ar    1  UNL1        0.0502
     26 C          -4.0374  -16.0585   22.7212 C.ar    1  UNL1        0.1539
     27 N          -2.8054  -15.7233   21.9339 N.ar    1  UNL1       -0.1577
     28 N          -2.1261  -17.0091   21.5662 N.ar    1  UNL1       -0.2786
     29 H          -1.2934  -17.0962   21.0483 H       1  UNL1        0.1886
@<TRIPOS>BOND
     1    23    24    1
     2    24    25   ar
     3    25    26   ar
     4    26    21    1
     5    21     1    1
     6     1     2   ar
     7     2     3   ar
     8     3    11    1
     9    11    12    1
    10    11    14    1
    11    14    15   ar
    12    15    16   ar
    13    16    17   ar
    14    17    18    1
    15    17    19   ar
    16    19    20   ar
    17     3     4   ar
    18     4     5   ar
    19     5     6   ar
    20     6     7   ar
    21     7     8   ar
    22     8     9   ar
    23     9    10   ar
    24    26    27   ar
    25    27    28   ar
    26    28    24   ar
    27    10     1   ar
    28    20    14   ar
    29    10     5   ar
    30    21    22    1
    31    12    13    1
    32    28    29    1
@<TRIPOS>MOLECULE
*****
 29 32 0 0 0
SMALL
GASTEIGER

@<TRIPOS>ATOM
      1 C          -5.8604  -18.9947   21.7676 C.ar    1  UNL1        0.1361
      2 N          -7.2197  -19.3987   21.2787 N.ar    1  UNL1       -0.2131
      3 C          -8.4345  -18.6444   21.7317 C.ar    1  UNL1        0.1714
      4 N          -8.2900  -17.4860   22.6736 N.ar    1  UNL1       -0.2279
      5 C          -6.9307  -17.0819   23.1626 C.ar    1  UNL1        0.0854
      6 C          -6.7862  -15.9236   24.1045 C.ar    1  UNL1        0.0192
      7 C          -5.4270  -15.5195   24.5934 C.ar    1  UNL1        0.0015
      8 C          -4.2122  -16.2739   24.1405 C.ar    1  UNL1        0.0002
      9 C          -4.3566  -17.4323   23.1985 C.ar    1  UNL1        0.0043
     10 C          -5.7159  -17.8363   22.7096 C.ar    1  UNL1        0.0494
     11 C          -9.7938  -19.0485   21.2427 C.3     1  UNL1        0.1912
     12 O          -9.9363  -19.7736   19.9374 O.3     1  UNL1       -0.3730
     13 H          -9.0603  -19.9007   19.5408 H       1  UNL1        0.2113
     14 C         -11.0106  -18.7274   22.0591 C.ar    1  UNL1        0.0117
     15 C         -12.1718  -18.0184   21.4275 C.ar    1  UNL1        0.0008
     16 C         -13.3885  -17.6974   22.2439 C.ar    1  UNL1        0.0294
     17 C         -13.4441  -18.0853   23.6918 C.ar    1  UNL1        0.1401
     18 F         -14.6608  -17.7642   24.5081 F       1  UNL1       -0.2042
     19 C         -12.2828  -18.7943   24.3233 C.ar    1  UNL1        0.0294
     20 C         -11.0660  -19.1153   23.5069 C.ar    1  UNL1        0.0008
     21 N          -4.6456  -19.7491   21.3146 N.pl3   1  UNL1       -0.2819
     22 H          -4.5566  -20.7078   21.5199 H       1  UNL1        0.1551
     23 C           0.0856  -17.9753   19.7818 C.3     1  UNL1        0.0515
     24 C          -1.3918  -18.2274   19.8443 C.ar    1  UNL1        0.0548
     25 C          -2.1005  -19.0671   20.8654 C.ar    1  UNL1        0.0502
     26 C          -3.5665  -19.0427   20.5489 C.ar    1  UNL1        0.1539
     27 N          -3.7638  -18.1880   19.3321 N.ar    1  UNL1       -0.1577
     28 N          -2.4198  -17.6840   18.8966 N.ar    1  UNL1       -0.2786
     29 H          -2.2434  -17.0994   18.1244 H       1  UNL1        0.1886
@<TRIPOS>BOND
     1    23    24    1
     2    24    25   ar
     3    25    26   ar
     4    26    21    1
     5    21     1    1
     6     1     2   ar
     7     2     3   ar
     8     3    11    1
     9    11    12    1
    10    11    14    1
    11    14    15   ar
    12    15    16   ar
    13    16    17   ar
    14    17    18    1
    15    17    19   ar
    16    19    20   ar
    17     3     4   ar
    18     4     5   ar
    19     5     6   ar
    20     6     7   ar
    21     7     8   ar
    22     8     9   ar
    23     9    10   ar
    24    26    27   ar
    25    27    28   ar
    26    28    24   ar
    27    10     1   ar
    28    20    14   ar
    29    10     5   ar
    30    21    22    1
    31    12    13    1
    32    28    29    1
@<TRIPOS>MOLECULE
*****
 29 32 0 0 0
SMALL
GASTEIGER

@<TRIPOS>ATOM
      1 C          -6.0926  -15.6865   23.6598 C.ar    1  UNL1        0.1361
      2 N          -7.0337  -16.3469   22.6965 N.ar    1  UNL1       -0.2131
      3 C          -8.3871  -16.7980   23.1601 C.ar    1  UNL1        0.1714
      4 N          -8.7993  -16.5886   24.5870 N.ar    1  UNL1       -0.2279
      5 C          -7.8582  -15.9282   25.5504 C.ar    1  UNL1        0.0854
      6 C          -8.2704  -15.7188   26.9773 C.ar    1  UNL1        0.0192
      7 C          -7.3293  -15.0584   27.9407 C.ar    1  UNL1        0.0015
      8 C          -5.9759  -14.6073   27.4771 C.ar    1  UNL1        0.0002
      9 C          -5.5637  -14.8166   26.0502 C.ar    1  UNL1        0.0043
     10 C          -6.5048  -15.4771   25.0868 C.ar    1  UNL1        0.0494
     11 C          -9.3282  -17.4584   22.1966 C.3     1  UNL1        0.1912
     12 O          -8.8444  -17.8682   20.8372 O.3     1  UNL1       -0.3730
     13 H          -7.9073  -17.6358   20.7439 H       1  UNL1        0.2113
     14 C         -10.7531  -17.7091   22.5927 C.ar    1  UNL1        0.0117
     15 C         -11.8689  -17.3020   21.6766 C.ar    1  UNL1        0.0008
     16 C         -13.2937  -17.5527   22.0726 C.ar    1  UNL1        0.0294
     17 C         -13.6029  -18.2106   23.3848 C.ar    1  UNL1        0.1401
     18 F         -15.0277  -18.4613   23.7808 F       1  UNL1       -0.2042
     19 C         -12.4870  -18.6177   24.3009 C.ar    1  UNL1        0.0294
     20 C         -11.0621  -18.3670   23.9048 C.ar    1  UNL1        0.0008
     21 N          -4.7392  -15.2354   23.1962 N.pl3   1  UNL1       -0.2819
     22 H          -4.4861  -14.2865   23.2657 H       1  UNL1        0.1551
     23 C          -2.4534  -19.7862   21.8014 C.3     1  UNL1        0.0515
     24 C          -2.7208  -18.3217   21.9856 C.ar    1  UNL1        0.0548
     25 C          -3.9122  -17.7226   22.6725 C.ar    1  UNL1        0.0502
     26 C          -3.7715  -16.2300   22.6268 C.ar    1  UNL1        0.1539
     27 N          -2.4932  -15.9065   21.9116 N.ar    1  UNL1       -0.1577
     28 N          -1.8439  -17.1993   21.5154 N.ar    1  UNL1       -0.2786
     29 H          -0.9917  -17.2944   21.0316 H       1  UNL1        0.1886
@<TRIPOS>BOND
     1    23    24    1
     2    24    25   ar
     3    25    26   ar
     4    26    21    1
     5    21     1    1
     6     1     2   ar
     7     2     3   ar
     8     3    11    1
     9    11    12    1
    10    11    14    1
    11    14    15   ar
    12    15    16   ar
    13    16    17   ar
    14    17    18    1
    15    17    19   ar
    16    19    20   ar
    17     3     4   ar
    18     4     5   ar
    19     5     6   ar
    20     6     7   ar
    21     7     8   ar
    22     8     9   ar
    23     9    10   ar
    24    26    27   ar
    25    27    28   ar
    26    28    24   ar
    27    10     1   ar
    28    20    14   ar
    29    10     5   ar
    30    21    22    1
    31    12    13    1
    32    28    29    1
@<TRIPOS>MOLECULE
*****
 29 32 0 0 0
SMALL
GASTEIGER

@<TRIPOS>ATOM
      1 C         -12.5839   -3.7899   19.4876 C.ar    1  UNL1        0.1361
      2 N         -14.0674   -4.0001   19.5571 N.ar    1  UNL1       -0.2131
      3 C         -14.6447   -5.3613   19.3044 C.ar    1  UNL1        0.1714
      4 N         -13.7385   -6.5123   18.9822 N.ar    1  UNL1       -0.2279
      5 C         -12.2548   -6.3022   18.9128 C.ar    1  UNL1        0.0854
      6 C         -11.3486   -7.4532   18.5906 C.ar    1  UNL1        0.0192
      7 C          -9.8651   -7.2430   18.5212 C.ar    1  UNL1        0.0015
      8 C          -9.2877   -5.8818   18.7739 C.ar    1  UNL1        0.0002
      9 C         -10.1940   -4.7308   19.0960 C.ar    1  UNL1        0.0043
     10 C         -11.6775   -4.9410   19.1655 C.ar    1  UNL1        0.0494
     11 C         -16.1284   -5.5714   19.3738 C.3     1  UNL1        0.1912
     12 O         -17.0162   -4.4827   19.8996 O.3     1  UNL1       -0.3730
     13 H         -16.4757   -3.7169   20.1491 H       1  UNL1        0.2113
     14 C         -16.7240   -6.8702   18.9176 C.ar    1  UNL1        0.0117
     15 C         -16.9336   -7.9851   19.8990 C.ar    1  UNL1        0.0008
     16 C         -17.5293   -9.2839   19.4427 C.ar    1  UNL1        0.0294
     17 C         -17.9155   -9.4679   18.0050 C.ar    1  UNL1        0.1401
     18 F         -18.5112  -10.7667   17.5487 F       1  UNL1       -0.2042
     19 C         -17.7059   -8.3530   17.0235 C.ar    1  UNL1        0.0294
     20 C         -17.1102   -7.0542   17.4799 C.ar    1  UNL1        0.0008
     21 N         -12.0066   -2.4287   19.7403 N.pl3   1  UNL1       -0.2819
     22 H         -11.7601   -2.1606   20.6550 H       1  UNL1        0.1551
     23 C         -12.5299    1.7054   16.4976 C.3     1  UNL1        0.0515
     24 C         -12.0453    0.4242   17.1089 C.ar    1  UNL1        0.0548
     25 C         -12.5778   -0.2135   18.3578 C.ar    1  UNL1        0.0502
     26 C         -11.8048   -1.4761   18.5994 C.ar    1  UNL1        0.1539
     27 N         -10.7945   -1.6186   17.4999 N.ar    1  UNL1       -0.1577
     28 N         -10.9431   -0.4442   16.5786 N.ar    1  UNL1       -0.2786
     29 H         -10.4108   -0.2733   15.7683 H       1  UNL1        0.1886
@<TRIPOS>BOND
     1    23    24    1
     2    24    25   ar
     3    25    26   ar
     4    26    21    1
     5    21     1    1
     6     1     2   ar
     7     2     3   ar
     8     3    11    1
     9    11    12    1
    10    11    14    1
    11    14    15   ar
    12    15    16   ar
    13    16    17   ar
    14    17    18    1
    15    17    19   ar
    16    19    20   ar
    17     3     4   ar
    18     4     5   ar
    19     5     6   ar
    20     6     7   ar
    21     7     8   ar
    22     8     9   ar
    23     9    10   ar
    24    26    27   ar
    25    27    28   ar
    26    28    24   ar
    27    10     1   ar
    28    20    14   ar
    29    10     5   ar
    30    21    22    1
    31    12    13    1
    32    28    29    1
@<TRIPOS>MOLECULE
*****
 29 32 0 0 0
SMALL
GASTEIGER

@<TRIPOS>ATOM
      1 C         -13.8238   -6.3785   18.3106 C.ar    1  UNL1        0.1361
      2 N         -14.3827   -5.1786   19.0162 N.ar    1  UNL1       -0.2131
      3 C         -13.4604   -4.2142   19.7013 C.ar    1  UNL1        0.1714
      4 N         -11.9792   -4.4498   19.6808 N.ar    1  UNL1       -0.2279
      5 C         -11.4202   -5.6498   18.9753 C.ar    1  UNL1        0.0854
      6 C          -9.9390   -5.8853   18.9549 C.ar    1  UNL1        0.0192
      7 C          -9.3801   -7.0852   18.2493 C.ar    1  UNL1        0.0015
      8 C         -10.3024   -8.0496   17.5642 C.ar    1  UNL1        0.0002
      9 C         -11.7836   -7.8140   17.5847 C.ar    1  UNL1        0.0043
     10 C         -12.3425   -6.6141   18.2902 C.ar    1  UNL1        0.0494
     11 C         -14.0194   -3.0143   20.4068 C.3     1  UNL1        0.1912
     12 O         -14.2198   -3.0440   21.8931 O.3     1  UNL1       -0.3730
     13 H         -13.9401   -3.9056   22.2399 H       1  UNL1        0.2113
     14 C         -14.3778   -1.7847   19.6262 C.ar    1  UNL1        0.0117
     15 C         -15.6691   -1.0722   19.9002 C.ar    1  UNL1        0.0008
     16 C         -16.0276    0.1574   19.1195 C.ar    1  UNL1        0.0294
     17 C         -15.0948    0.6746   18.0647 C.ar    1  UNL1        0.1401
     18 F         -15.4533    1.9042   17.2840 F       1  UNL1       -0.2042
     19 C         -13.8035   -0.0379   17.7907 C.ar    1  UNL1        0.0294
     20 C         -13.4451   -1.2676   18.5714 C.ar    1  UNL1        0.0008
     21 N         -14.7461   -7.3428   17.6255 N.pl3   1  UNL1       -0.2819
     22 H         -14.7226   -7.4349   16.6456 H       1  UNL1        0.1551
     23 C         -19.0856   -8.9360   20.1773 C.3     1  UNL1        0.0515
     24 C         -17.6990   -8.8992   19.6063 C.ar    1  UNL1        0.0548
     25 C         -17.1090   -7.7843   18.7945 C.ar    1  UNL1        0.0502
     26 C         -15.7044   -8.1669   18.4334 C.ar    1  UNL1        0.1539
     27 N         -15.4261   -9.5183   19.0220 N.ar    1  UNL1       -0.1577
     28 N         -16.6589   -9.9709   19.7469 N.ar    1  UNL1       -0.2786
     29 H         -16.7664  -10.8219   20.2301 H       1  UNL1        0.1886
@<TRIPOS>BOND
     1    23    24    1
     2    24    25   ar
     3    25    26   ar
     4    26    21    1
     5    21     1    1
     6     1     2   ar
     7     2     3   ar
     8     3    11    1
     9    11    12    1
    10    11    14    1
    11    14    15   ar
    12    15    16   ar
    13    16    17   ar
    14    17    18    1
    15    17    19   ar
    16    19    20   ar
    17     3     4   ar
    18     4     5   ar
    19     5     6   ar
    20     6     7   ar
    21     7     8   ar
    22     8     9   ar
    23     9    10   ar
    24    26    27   ar
    25    27    28   ar
    26    28    24   ar
    27    10     1   ar
    28    20    14   ar
    29    10     5   ar
    30    21    22    1
    31    12    13    1
    32    28    29    1
@<TRIPOS>MOLECULE
*****
 29 32 0 0 0
SMALL
GASTEIGER

@<TRIPOS>ATOM
      1 C         -14.2396   -6.7841   19.0576 C.ar    1  UNL1        0.1361
      2 N         -14.0866   -5.2939   19.1337 N.ar    1  UNL1       -0.2131
      3 C         -15.2791   -4.4313   19.4232 C.ar    1  UNL1        0.1714
      4 N         -16.6246   -5.0589   19.6366 N.ar    1  UNL1       -0.2279
      5 C         -16.7777   -6.5491   19.5605 C.ar    1  UNL1        0.0854
      6 C         -18.1233   -7.1767   19.7739 C.ar    1  UNL1        0.0192
      7 C         -18.2763   -8.6669   19.6978 C.ar    1  UNL1        0.0015
      8 C         -17.0838   -9.5295   19.4082 C.ar    1  UNL1        0.0002
      9 C         -15.7383   -8.9019   19.1948 C.ar    1  UNL1        0.0043
     10 C         -15.5852   -7.4117   19.2710 C.ar    1  UNL1        0.0494
     11 C         -15.1260   -2.9410   19.4993 C.3     1  UNL1        0.1912
     12 O         -16.1705   -2.1140   20.1886 O.3     1  UNL1       -0.3730
     13 H         -16.8711   -2.6938   20.5262 H       1  UNL1        0.2113
     14 C         -13.9285   -2.2778   18.8862 C.ar    1  UNL1        0.0117
     15 C         -14.0708   -1.5066   17.6075 C.ar    1  UNL1        0.0008
     16 C         -12.8733   -0.8434   16.9944 C.ar    1  UNL1        0.0294
     17 C         -11.5333   -0.9513   17.6599 C.ar    1  UNL1        0.1401
     18 F         -10.3358   -0.2881   17.0467 F       1  UNL1       -0.2042
     19 C         -11.3909   -1.7225   18.9386 C.ar    1  UNL1        0.0294
     20 C         -12.5886   -2.3857   19.5517 C.ar    1  UNL1        0.0008
     21 N         -13.0471   -7.6467   18.7680 N.pl3   1  UNL1       -0.2819
     22 H         -13.1345   -8.6272   18.7794 H       1  UNL1        0.1551
     23 C          -9.3477   -4.4608   16.7568 C.3     1  UNL1        0.0515
     24 C         -10.0211   -5.5509   17.5367 C.ar    1  UNL1        0.0548
     25 C         -11.4916   -5.8468   17.5491 C.ar    1  UNL1        0.0502
     26 C         -11.7216   -7.0153   18.4611 C.ar    1  UNL1        0.1539
     27 N         -10.3932   -7.4416   19.0123 N.ar    1  UNL1       -0.1577
     28 N          -9.3422   -6.5366   18.4410 N.ar    1  UNL1       -0.2786
     29 H          -8.3765   -6.5816   18.6268 H       1  UNL1        0.1886
@<TRIPOS>BOND
     1    23    24    1
     2    24    25   ar
     3    25    26   ar
     4    26    21    1
     5    21     1    1
     6     1     2   ar
     7     2     3   ar
     8     3    11    1
     9    11    12    1
    10    11    14    1
    11    14    15   ar
    12    15    16   ar
    13    16    17   ar
    14    17    18    1
    15    17    19   ar
    16    19    20   ar
    17     3     4   ar
    18     4     5   ar
    19     5     6   ar
    20     6     7   ar
    21     7     8   ar
    22     8     9   ar
    23     9    10   ar
    24    26    27   ar
    25    27    28   ar
    26    28    24   ar
    27    10     1   ar
    28    20    14   ar
    29    10     5   ar
    30    21    22    1
    31    12    13    1
    32    28    29    1
