@<TRIPOS>MOLECULE
*****
 32 34 0 0 0
SMALL
GASTEIGER

@<TRIPOS>ATOM
      1 N          -8.3064  -17.1922   22.8578 N.pl3   1  UNL1       -0.3037
      2 C          -9.7374  -17.4979   23.1875 C.ar    1  UNL1        0.0490
      3 C         -10.0637  -18.5245   24.2313 C.ar    1  UNL1        0.0153
      4 C         -11.4948  -18.8302   24.5610 C.ar    1  UNL1        0.0124
      5 C         -12.5994  -18.1092   23.8470 C.ar    1  UNL1        0.0791
      6 C         -12.2731  -17.0825   22.8032 C.ar    1  UNL1        0.0685
      7 CL        -13.3778  -16.3616   22.0891 Cl      1  UNL1       -0.0815
      8 C         -10.8421  -16.7769   22.4734 C.ar    1  UNL1        0.0266
      9 C         -14.0305  -18.4149   24.1768 C.1     1  UNL1        0.1013
     10 N         -15.4615  -18.7205   24.5065 N.1     1  UNL1       -0.1908
     11 N          -5.5700  -19.4045   21.2195 N.3     1  UNL1       -0.1577
     12 C          -6.8176  -20.1008   20.7627 C.3     1  UNL1        0.0972
     13 C          -7.9945  -19.3568   21.3208 C.3     1  UNL1        0.0403
     14 C          -7.4742  -18.2007   22.1225 C.3     1  UNL1        0.0922
     15 C          -5.9758  -18.2302   22.0599 C.3     1  UNL1        0.1151
     16 S          -4.1636  -19.8110   20.8932 S.O2    1  UNL1        0.0439
     17 O          -3.6545  -18.9426   22.0053 O.2     1  UNL1       -0.1573
     18 O          -4.6725  -20.6794   19.7810 O.2     1  UNL1       -0.1573
     19 C          -2.7571  -20.2176   20.5668 C.3     1  UNL1        0.1691
     20 C          -1.8312  -18.2670   19.1217 C.3     1  UNL1        0.0019
     21 C          -1.7133  -19.1704   20.3134 C.3     1  UNL1        0.0270
     22 C          -7.7075  -15.8781   23.2632 C.3     1  UNL1        0.1176
     23 C          -7.3407  -15.6315   24.6966 C.ar    1  UNL1        0.0015
     24 C          -8.4167  -15.4339   25.7228 C.ar    1  UNL1       -0.0027
     25 C          -8.0499  -15.1872   27.1562 C.ar    1  UNL1       -0.0003
     26 C          -6.6072  -15.1381   27.5634 C.ar    1  UNL1       -0.0001
     27 C          -5.5310  -15.3358   26.5373 C.ar    1  UNL1        0.0036
     28 C          -5.8978  -15.5824   25.1039 C.ar    1  UNL1        0.0691
     29 C          -4.8218  -15.7800   24.0777 C.3     1  UNL1        0.4183
     30 F          -3.7457  -15.9776   23.0515 F       1  UNL1       -0.1659
     31 F          -4.4348  -17.0729   24.7324 F       1  UNL1       -0.1659
     32 F          -5.2087  -14.4872   23.4230 F       1  UNL1       -0.1659
@<TRIPOS>BOND
     1    20    21    1
     2    21    19    1
     3    19    16    1
     4    16    17    2
     5    16    18    2
     6    16    11    1
     7    11    12    1
     8    12    13    1
     9    13    14    1
    10    14     1    1
    11     1    22    1
    12    22    23    1
    13    23    24   ar
    14    24    25   ar
    15    25    26   ar
    16    26    27   ar
    17    27    28   ar
    18    28    29    1
    19    29    30    1
    20    29    31    1
    21    29    32    1
    22     1     2    1
    23     2     3   ar
    24     3     4   ar
    25     4     5   ar
    26     5     9    1
    27     9    10    3
    28     5     6   ar
    29     6     7    1
    30     6     8   ar
    31    14    15    1
    32    15    11    1
    33    28    23   ar
    34     8     2   ar
@<TRIPOS>MOLECULE
*****
 32 34 0 0 0
SMALL
GASTEIGER

@<TRIPOS>ATOM
      1 N          -8.0723  -18.8729   21.4716 N.pl3   1  UNL1       -0.3037
      2 C          -8.1889  -18.0660   22.7307 C.ar    1  UNL1        0.0490
      3 C          -8.7957  -18.6764   23.9592 C.ar    1  UNL1        0.0153
      4 C          -8.9123  -17.8694   25.2183 C.ar    1  UNL1        0.0124
      5 C          -8.4220  -16.4522   25.2489 C.ar    1  UNL1        0.0791
      6 C          -7.8152  -15.8418   24.0203 C.ar    1  UNL1        0.0685
      7 CL         -7.3249  -14.4245   24.0509 Cl      1  UNL1       -0.0815
      8 C          -7.6986  -16.6487   22.7613 C.ar    1  UNL1        0.0266
      9 C          -8.5386  -15.6453   26.5080 C.1     1  UNL1        0.1013
     10 N          -8.6551  -14.8383   27.7670 N.1     1  UNL1       -0.1908
     11 N          -4.3684  -19.4122   20.4442 N.3     1  UNL1       -0.1577
     12 C          -4.9501  -20.7635   20.1512 C.3     1  UNL1        0.0972
     13 C          -6.4085  -20.7259   20.5004 C.3     1  UNL1        0.0403
     14 C          -6.7279  -19.3514   21.0092 C.3     1  UNL1        0.0922
     15 C          -5.4671  -18.5396   20.9745 C.3     1  UNL1        0.1151
     16 S          -2.9389  -19.0051   20.2424 S.O2    1  UNL1        0.0439
     17 O          -2.5074  -20.0130   21.2661 O.2     1  UNL1       -0.1573
     18 O          -3.3704  -17.9972   19.2187 O.2     1  UNL1       -0.1573
     19 C          -1.5094  -18.5980   20.0405 C.3     1  UNL1        0.1691
     20 C          -1.7335  -16.4254   21.4476 C.3     1  UNL1        0.0019
     21 C          -1.0818  -17.1905   20.3340 C.3     1  UNL1        0.0270
     22 C          -9.3001  -19.2014   20.6749 C.3     1  UNL1        0.1176
     23 C         -10.4792  -18.2745   20.6978 C.ar    1  UNL1        0.0015
     24 C         -10.5578  -17.1366   19.7237 C.ar    1  UNL1       -0.0027
     25 C         -11.7369  -16.2097   19.7466 C.ar    1  UNL1       -0.0003
     26 C         -12.8374  -16.4207   20.7436 C.ar    1  UNL1       -0.0001
     27 C         -12.7589  -17.5586   21.7179 C.ar    1  UNL1        0.0036
     28 C         -11.5798  -18.4855   21.6950 C.ar    1  UNL1        0.0691
     29 C         -11.5012  -19.6233   22.6691 C.3     1  UNL1        0.4183
     30 F         -11.4227  -20.7612   23.6433 F       1  UNL1       -0.1659
     31 F         -11.2227  -20.5707   21.5401 F       1  UNL1       -0.1659
     32 F         -11.7797  -18.6760   23.7982 F       1  UNL1       -0.1659
@<TRIPOS>BOND
     1    20    21    1
     2    21    19    1
     3    19    16    1
     4    16    17    2
     5    16    18    2
     6    16    11    1
     7    11    12    1
     8    12    13    1
     9    13    14    1
    10    14     1    1
    11     1    22    1
    12    22    23    1
    13    23    24   ar
    14    24    25   ar
    15    25    26   ar
    16    26    27   ar
    17    27    28   ar
    18    28    29    1
    19    29    30    1
    20    29    31    1
    21    29    32    1
    22     1     2    1
    23     2     3   ar
    24     3     4   ar
    25     4     5   ar
    26     5     9    1
    27     9    10    3
    28     5     6   ar
    29     6     7    1
    30     6     8   ar
    31    14    15    1
    32    15    11    1
    33    28    23   ar
    34     8     2   ar
@<TRIPOS>MOLECULE
*****
 32 34 0 0 0
SMALL
GASTEIGER

@<TRIPOS>ATOM
      1 N          -8.3458  -18.2771   21.8612 N.pl3   1  UNL1       -0.3037
      2 C          -8.2757  -17.4716   23.1246 C.ar    1  UNL1        0.0490
      3 C          -7.6401  -16.1130   23.1135 C.ar    1  UNL1        0.0153
      4 C          -7.5699  -15.3074   24.3768 C.ar    1  UNL1        0.0124
      5 C          -8.1353  -15.8605   25.6514 C.ar    1  UNL1        0.0791
      6 C          -8.7709  -17.2192   25.6625 C.ar    1  UNL1        0.0685
      7 CL         -9.3363  -17.7722   26.9370 Cl      1  UNL1       -0.0815
      8 C          -8.8411  -18.0247   24.3991 C.ar    1  UNL1        0.0266
      9 C          -8.0651  -15.0549   26.9147 C.1     1  UNL1        0.1013
     10 N          -7.9949  -14.2494   28.1781 N.1     1  UNL1       -0.1908
     11 N          -4.7754  -19.3609   20.7920 N.3     1  UNL1       -0.1577
     12 C          -5.6118  -20.3969   20.1011 C.3     1  UNL1        0.0972
     13 C          -7.0512  -20.1169   20.4176 C.3     1  UNL1        0.0403
     14 C          -7.1042  -18.9080   21.3040 C.3     1  UNL1        0.0922
     15 C          -5.6978  -18.4408   21.5354 C.3     1  UNL1        0.1151
     16 S          -3.2794  -19.2623   20.7473 S.O2    1  UNL1        0.0439
     17 O          -3.3694  -17.7851   20.9917 O.2     1  UNL1       -0.1573
     18 O          -3.1893  -20.7395   20.5028 O.2     1  UNL1       -0.1573
     19 C          -1.7833  -19.1638   20.7026 C.3     1  UNL1        0.1691
     20 C           0.1399  -17.5452   20.0454 C.3     1  UNL1        0.0019
     21 C          -1.1199  -18.2778   19.6901 C.3     1  UNL1        0.0270
     22 C          -9.6576  -18.4518   21.1550 C.3     1  UNL1        0.1176
     23 C         -10.9363  -18.0794   21.8450 C.ar    1  UNL1        0.0015
     24 C         -11.4682  -18.9386   22.9535 C.ar    1  UNL1       -0.0027
     25 C         -12.7469  -18.5662   23.6435 C.ar    1  UNL1       -0.0003
     26 C         -13.4938  -17.3345   23.2251 C.ar    1  UNL1       -0.0001
     27 C         -12.9619  -16.4751   22.1166 C.ar    1  UNL1        0.0036
     28 C         -11.6831  -16.8476   21.4265 C.ar    1  UNL1        0.0691
     29 C         -11.1512  -15.9884   20.3181 C.3     1  UNL1        0.4183
     30 F         -10.6193  -15.1291   19.2096 F       1  UNL1       -0.1659
     31 F         -10.2731  -15.2680   21.2978 F       1  UNL1       -0.1659
     32 F         -12.0294  -16.7087   19.3383 F       1  UNL1       -0.1659
@<TRIPOS>BOND
     1    20    21    1
     2    21    19    1
     3    19    16    1
     4    16    17    2
     5    16    18    2
     6    16    11    1
     7    11    12    1
     8    12    13    1
     9    13    14    1
    10    14     1    1
    11     1    22    1
    12    22    23    1
    13    23    24   ar
    14    24    25   ar
    15    25    26   ar
    16    26    27   ar
    17    27    28   ar
    18    28    29    1
    19    29    30    1
    20    29    31    1
    21    29    32    1
    22     1     2    1
    23     2     3   ar
    24     3     4   ar
    25     4     5   ar
    26     5     9    1
    27     9    10    3
    28     5     6   ar
    29     6     7    1
    30     6     8   ar
    31    14    15    1
    32    15    11    1
    33    28    23   ar
    34     8     2   ar
@<TRIPOS>MOLECULE
*****
 32 34 0 0 0
SMALL
GASTEIGER

@<TRIPOS>ATOM
      1 N          -7.6419  -17.7854   22.8195 N.pl3   1  UNL1       -0.3037
      2 C          -8.0109  -18.5554   21.5862 C.ar    1  UNL1        0.0490
      3 C          -9.2510  -18.1979   20.8218 C.ar    1  UNL1        0.0153
      4 C          -9.6199  -18.9679   19.5885 C.ar    1  UNL1        0.0124
      5 C          -8.7488  -20.0953   19.1196 C.ar    1  UNL1        0.0791
      6 C          -7.5086  -20.4528   19.8840 C.ar    1  UNL1        0.0685
      7 CL         -6.6375  -21.5803   19.4150 Cl      1  UNL1       -0.0815
      8 C          -7.1396  -19.6828   21.1173 C.ar    1  UNL1        0.0266
      9 C          -9.1178  -20.8653   17.8863 C.1     1  UNL1        0.1013
     10 N          -9.4867  -21.6353   16.6530 N.1     1  UNL1       -0.1908
     11 N          -3.8838  -16.8275   22.6611 N.3     1  UNL1       -0.1577
     12 C          -4.3747  -15.8992   23.7323 C.3     1  UNL1        0.0972
     13 C          -5.8423  -16.1450   23.9220 C.3     1  UNL1        0.0403
     14 C          -6.2583  -17.2253   22.9680 C.3     1  UNL1        0.0922
     15 C          -5.0480  -17.6471   22.1888 C.3     1  UNL1        0.1151
     16 S          -2.4761  -16.9201   22.1518 S.O2    1  UNL1        0.0439
     17 O          -2.4048  -18.3472   22.6081 O.2     1  UNL1       -0.1573
     18 O          -2.5473  -15.4929   21.6954 O.2     1  UNL1       -0.1573
     19 C          -1.0682  -17.0126   21.6424 C.3     1  UNL1        0.1691
     20 C          -1.8867  -17.8547   19.3247 C.3     1  UNL1        0.0019
     21 C          -0.8127  -17.2571   20.1846 C.3     1  UNL1        0.0270
     22 C          -8.6565  -17.5755   23.9041 C.3     1  UNL1        0.1176
     23 C         -10.1154  -17.5039   23.5629 C.ar    1  UNL1        0.0015
     24 C         -10.7029  -16.2240   23.0466 C.ar    1  UNL1       -0.0027
     25 C         -12.1618  -16.1523   22.7053 C.ar    1  UNL1       -0.0003
     26 C         -13.0332  -17.3606   22.8803 C.ar    1  UNL1       -0.0001
     27 C         -12.4457  -18.6406   23.3966 C.ar    1  UNL1        0.0036
     28 C         -10.9868  -18.7122   23.7379 C.ar    1  UNL1        0.0691
     29 C         -10.3992  -19.9922   24.2542 C.3     1  UNL1        0.4183
     30 F          -9.8117  -21.2721   24.7705 F       1  UNL1       -0.1659
     31 F         -10.4094  -19.4350   25.6468 F       1  UNL1       -0.1659
     32 F         -10.3891  -20.5493   22.8616 F       1  UNL1       -0.1659
@<TRIPOS>BOND
     1    20    21    1
     2    21    19    1
     3    19    16    1
     4    16    17    2
     5    16    18    2
     6    16    11    1
     7    11    12    1
     8    12    13    1
     9    13    14    1
    10    14     1    1
    11     1    22    1
    12    22    23    1
    13    23    24   ar
    14    24    25   ar
    15    25    26   ar
    16    26    27   ar
    17    27    28   ar
    18    28    29    1
    19    29    30    1
    20    29    31    1
    21    29    32    1
    22     1     2    1
    23     2     3   ar
    24     3     4   ar
    25     4     5   ar
    26     5     9    1
    27     9    10    3
    28     5     6   ar
    29     6     7    1
    30     6     8   ar
    31    14    15    1
    32    15    11    1
    33    28    23   ar
    34     8     2   ar
@<TRIPOS>MOLECULE
*****
 32 34 0 0 0
SMALL
GASTEIGER

@<TRIPOS>ATOM
      1 N          -8.1548  -17.7286   22.3620 N.pl3   1  UNL1       -0.3037
      2 C          -7.9529  -16.9238   23.6116 C.ar    1  UNL1        0.0490
      3 C          -9.1215  -16.6083   24.4976 C.ar    1  UNL1        0.0153
      4 C          -8.9195  -15.8035   25.7472 C.ar    1  UNL1        0.0124
      5 C          -7.5491  -15.3142   26.1109 C.ar    1  UNL1        0.0791
      6 C          -6.3804  -15.6297   25.2249 C.ar    1  UNL1        0.0685
      7 CL         -5.0099  -15.1404   25.5886 Cl      1  UNL1       -0.0815
      8 C          -6.5824  -16.4345   23.9753 C.ar    1  UNL1        0.0266
      9 C          -7.3471  -14.5094   27.3605 C.1     1  UNL1        0.1013
     10 N          -7.1452  -13.7046   28.6101 N.1     1  UNL1       -0.1908
     11 N          -4.8109  -19.3147   21.1923 N.3     1  UNL1       -0.1577
     12 C          -5.7956  -20.3579   20.7537 C.3     1  UNL1        0.0972
     13 C          -7.1681  -19.8907   21.1385 C.3     1  UNL1        0.0403
     14 C          -7.0316  -18.5588   21.8149 C.3     1  UNL1        0.0922
     15 C          -5.5749  -18.2029   21.8482 C.3     1  UNL1        0.1151
     16 S          -3.3236  -19.3732   21.0075 S.O2    1  UNL1        0.0439
     17 O          -3.1925  -18.0163   21.6333 O.2     1  UNL1       -0.1573
     18 O          -3.4546  -20.7301   20.3817 O.2     1  UNL1       -0.1573
     19 C          -1.8362  -19.4317   20.8227 C.3     1  UNL1        0.1691
     20 C          -1.8337  -17.9386   18.6964 C.3     1  UNL1        0.0019
     21 C          -1.1507  -18.4341   19.9366 C.3     1  UNL1        0.0270
     22 C          -9.4799  -17.7033   21.6596 C.3     1  UNL1        0.1176
     23 C         -10.7506  -17.7921   22.4517 C.ar    1  UNL1        0.0015
     24 C         -11.7966  -16.7259   22.3135 C.ar    1  UNL1       -0.0027
     25 C         -13.0673  -16.8147   23.1056 C.ar    1  UNL1       -0.0003
     26 C         -13.2919  -17.9696   24.0360 C.ar    1  UNL1       -0.0001
     27 C         -12.2459  -19.0358   24.1743 C.ar    1  UNL1        0.0036
     28 C         -10.9752  -18.9471   23.3821 C.ar    1  UNL1        0.0691
     29 C          -9.9292  -20.0132   23.5204 C.3     1  UNL1        0.4183
     30 F          -8.8832  -21.0793   23.6586 F       1  UNL1       -0.1659
     31 F          -9.5760  -19.4902   24.8811 F       1  UNL1       -0.1659
     32 F         -10.2824  -20.5362   22.1596 F       1  UNL1       -0.1659
@<TRIPOS>BOND
     1    20    21    1
     2    21    19    1
     3    19    16    1
     4    16    17    2
     5    16    18    2
     6    16    11    1
     7    11    12    1
     8    12    13    1
     9    13    14    1
    10    14     1    1
    11     1    22    1
    12    22    23    1
    13    23    24   ar
    14    24    25   ar
    15    25    26   ar
    16    26    27   ar
    17    27    28   ar
    18    28    29    1
    19    29    30    1
    20    29    31    1
    21    29    32    1
    22     1     2    1
    23     2     3   ar
    24     3     4   ar
    25     4     5   ar
    26     5     9    1
    27     9    10    3
    28     5     6   ar
    29     6     7    1
    30     6     8   ar
    31    14    15    1
    32    15    11    1
    33    28    23   ar
    34     8     2   ar
@<TRIPOS>MOLECULE
*****
 32 34 0 0 0
SMALL
GASTEIGER

@<TRIPOS>ATOM
      1 N          -7.9825  -18.5942   21.6310 N.pl3   1  UNL1       -0.3037
      2 C          -6.5228  -18.6889   21.2986 C.ar    1  UNL1        0.0490
      3 C          -6.0923  -19.0501   19.9078 C.ar    1  UNL1        0.0153
      4 C          -4.6327  -19.1448   19.5754 C.ar    1  UNL1        0.0124
      5 C          -3.6036  -18.8784   20.6337 C.ar    1  UNL1        0.0791
      6 C          -4.0341  -18.5172   22.0245 C.ar    1  UNL1        0.0685
      7 CL         -3.0051  -18.2508   23.0828 Cl      1  UNL1       -0.0815
      8 C          -5.4938  -18.4225   22.3569 C.ar    1  UNL1        0.0266
      9 C          -2.1440  -18.9732   20.3013 C.1     1  UNL1        0.1013
     10 N          -0.6843  -19.0679   19.9688 N.1     1  UNL1       -0.1908
     11 N          -8.7146  -17.1266   25.1489 N.3     1  UNL1       -0.1577
     12 C          -9.4387  -18.4381   25.2256 C.3     1  UNL1        0.0972
     13 C          -9.2525  -19.1475   23.9170 C.3     1  UNL1        0.0403
     14 C          -8.4134  -18.2744   23.0317 C.3     1  UNL1        0.0922
     15 C          -8.0810  -17.0254   23.7931 C.3     1  UNL1        0.1151
     16 S          -8.6377  -16.0971   26.2370 S.O2    1  UNL1        0.0439
     17 O          -8.6362  -15.0075   25.2060 O.2     1  UNL1       -0.1573
     18 O          -8.6392  -17.1865   27.2681 O.2     1  UNL1       -0.1573
     19 C          -8.5608  -15.0675   27.3252 C.3     1  UNL1        0.1691
     20 C          -5.9750  -14.9656   27.0930 C.3     1  UNL1        0.0019
     21 C          -7.2256  -14.6291   27.8499 C.3     1  UNL1        0.0270
     22 C          -9.0111  -18.8192   20.5627 C.3     1  UNL1        0.1176
     23 C         -10.2699  -18.0036   20.5499 C.ar    1  UNL1        0.0015
     24 C         -10.2870  -16.6612   19.8810 C.ar    1  UNL1       -0.0027
     25 C         -11.5459  -15.8456   19.8682 C.ar    1  UNL1       -0.0003
     26 C         -12.7876  -16.3724   20.5243 C.ar    1  UNL1       -0.0001
     27 C         -12.7705  -17.7149   21.1933 C.ar    1  UNL1        0.0036
     28 C         -11.5117  -18.5305   21.2061 C.ar    1  UNL1        0.0691
     29 C         -11.4946  -19.8730   21.8750 C.3     1  UNL1        0.4183
     30 F         -11.4775  -21.2154   22.5440 F       1  UNL1       -0.1659
     31 F         -11.9902  -19.2466   23.1447 F       1  UNL1       -0.1659
     32 F         -10.9989  -20.4993   20.6054 F       1  UNL1       -0.1659
@<TRIPOS>BOND
     1    20    21    1
     2    21    19    1
     3    19    16    1
     4    16    17    2
     5    16    18    2
     6    16    11    1
     7    11    12    1
     8    12    13    1
     9    13    14    1
    10    14     1    1
    11     1    22    1
    12    22    23    1
    13    23    24   ar
    14    24    25   ar
    15    25    26   ar
    16    26    27   ar
    17    27    28   ar
    18    28    29    1
    19    29    30    1
    20    29    31    1
    21    29    32    1
    22     1     2    1
    23     2     3   ar
    24     3     4   ar
    25     4     5   ar
    26     5     9    1
    27     9    10    3
    28     5     6   ar
    29     6     7    1
    30     6     8   ar
    31    14    15    1
    32    15    11    1
    33    28    23   ar
    34     8     2   ar
@<TRIPOS>MOLECULE
*****
 32 34 0 0 0
SMALL
GASTEIGER

@<TRIPOS>ATOM
      1 N          -7.4858  -18.6426   22.4914 N.pl3   1  UNL1       -0.3037
      2 C          -7.9187  -19.2510   21.1905 C.ar    1  UNL1        0.0490
      3 C          -6.9904  -20.1614   20.4425 C.ar    1  UNL1        0.0153
      4 C          -7.4233  -20.7698   19.1416 C.ar    1  UNL1        0.0124
      5 C          -8.7845  -20.4679   18.5886 C.ar    1  UNL1        0.0791
      6 C          -9.7129  -19.5575   19.3365 C.ar    1  UNL1        0.0685
      7 CL        -11.0741  -19.2555   18.7835 Cl      1  UNL1       -0.0815
      8 C          -9.2800  -18.9490   20.6374 C.ar    1  UNL1        0.0266
      9 C          -9.2174  -21.0763   17.2877 C.1     1  UNL1        0.1013
     10 N          -9.6503  -21.6847   15.9867 N.1     1  UNL1       -0.1908
     11 N          -3.7371  -17.6580   22.2822 N.3     1  UNL1       -0.1577
     12 C          -4.1955  -16.8110   23.4322 C.3     1  UNL1        0.0972
     13 C          -5.6556  -17.0768   23.6506 C.3     1  UNL1        0.0403
     14 C          -6.0995  -18.0880   22.6355 C.3     1  UNL1        0.0922
     15 C          -4.9138  -18.4472   21.7898 C.3     1  UNL1        0.1151
     16 S          -2.3463  -17.7072   21.7229 S.O2    1  UNL1        0.0439
     17 O          -2.3249  -16.2094   21.6443 O.2     1  UNL1       -0.1573
     18 O          -2.3675  -19.2050   21.8013 O.2     1  UNL1       -0.1573
     19 C          -0.9553  -17.7563   21.1635 C.3     1  UNL1        0.1691
     20 C          -1.9267  -17.9509   18.7616 C.3     1  UNL1        0.0019
     21 C          -0.7459  -17.8456   19.6808 C.3     1  UNL1        0.0270
     22 C          -8.4391  -18.5888   23.6482 C.3     1  UNL1        0.1176
     23 C          -9.8330  -18.0723   23.4479 C.ar    1  UNL1        0.0015
     24 C         -10.9949  -19.0206   23.4721 C.ar    1  UNL1       -0.0027
     25 C         -12.3889  -18.5041   23.2718 C.ar    1  UNL1       -0.0003
     26 C         -12.6210  -17.0393   23.0474 C.ar    1  UNL1       -0.0001
     27 C         -11.4590  -16.0909   23.0233 C.ar    1  UNL1        0.0036
     28 C         -10.0651  -16.6074   23.2235 C.ar    1  UNL1        0.0691
     29 C          -8.9032  -15.6591   23.1994 C.3     1  UNL1        0.4183
     30 F          -7.7413  -14.7108   23.1752 F       1  UNL1       -0.1659
     31 F          -9.0336  -15.4616   24.6806 F       1  UNL1       -0.1659
     32 F          -8.7727  -15.8566   21.7182 F       1  UNL1       -0.1659
@<TRIPOS>BOND
     1    20    21    1
     2    21    19    1
     3    19    16    1
     4    16    17    2
     5    16    18    2
     6    16    11    1
     7    11    12    1
     8    12    13    1
     9    13    14    1
    10    14     1    1
    11     1    22    1
    12    22    23    1
    13    23    24   ar
    14    24    25   ar
    15    25    26   ar
    16    26    27   ar
    17    27    28   ar
    18    28    29    1
    19    29    30    1
    20    29    31    1
    21    29    32    1
    22     1     2    1
    23     2     3   ar
    24     3     4   ar
    25     4     5   ar
    26     5     9    1
    27     9    10    3
    28     5     6   ar
    29     6     7    1
    30     6     8   ar
    31    14    15    1
    32    15    11    1
    33    28    23   ar
    34     8     2   ar
@<TRIPOS>MOLECULE
*****
 32 34 0 0 0
SMALL
GASTEIGER

@<TRIPOS>ATOM
      1 N          -5.6115  -18.1312   22.7866 N.pl3   1  UNL1       -0.3037
      2 C          -5.8357  -17.1913   23.9339 C.ar    1  UNL1        0.0490
      3 C          -4.6952  -16.8232   24.8359 C.ar    1  UNL1        0.0153
      4 C          -4.9194  -15.8833   25.9831 C.ar    1  UNL1        0.0124
      5 C          -6.2842  -15.3115   26.2285 C.ar    1  UNL1        0.0791
      6 C          -7.4249  -15.6796   25.3265 C.ar    1  UNL1        0.0685
      7 CL         -8.7897  -15.1078   25.5718 Cl      1  UNL1       -0.0815
      8 C          -7.2007  -16.6195   24.1792 C.ar    1  UNL1        0.0266
      9 C          -6.5085  -14.3716   27.3758 C.1     1  UNL1        0.1013
     10 N          -6.7327  -13.4317   28.5231 N.1     1  UNL1       -0.1908
     11 N          -8.9041  -18.4388   20.7544 N.3     1  UNL1       -0.1577
     12 C          -8.0110  -19.3818   20.0037 C.3     1  UNL1        0.0972
     13 C          -6.6688  -19.3813   20.6737 C.3     1  UNL1        0.0403
     14 C          -6.7325  -18.4381   21.8383 C.3     1  UNL1        0.0922
     15 C          -8.1139  -17.8556   21.8882 C.3     1  UNL1        0.1151
     16 S         -10.3358  -18.1329   20.4284 S.O2    1  UNL1        0.0439
     17 O         -10.6062  -19.5965   20.2423 O.2     1  UNL1       -0.1573
     18 O         -10.0655  -16.6692   20.6145 O.2     1  UNL1       -0.1573
     19 C         -11.7676  -17.8269   20.1024 C.3     1  UNL1        0.1691
     20 C         -12.8550  -17.7286   22.4600 C.3     1  UNL1        0.0019
     21 C         -12.6314  -17.1224   21.1063 C.3     1  UNL1        0.0270
     22 C          -4.2663  -18.7643   22.5876 C.3     1  UNL1        0.1176
     23 C          -3.2070  -18.0448   21.8065 C.ar    1  UNL1        0.0015
     24 C          -2.5926  -16.7909   22.3545 C.ar    1  UNL1       -0.0027
     25 C          -1.5332  -16.0714   21.5734 C.ar    1  UNL1       -0.0003
     26 C          -1.0882  -16.6058   20.2443 C.ar    1  UNL1       -0.0001
     27 C          -1.7026  -17.8598   19.6963 C.ar    1  UNL1        0.0036
     28 C          -2.7620  -18.5793   20.4774 C.ar    1  UNL1        0.0691
     29 C          -3.3764  -19.8331   19.9295 C.3     1  UNL1        0.4183
     30 F          -3.9907  -21.0870   19.3815 F       1  UNL1       -0.1659
     31 F          -2.5505  -20.6518   20.8769 F       1  UNL1       -0.1659
     32 F          -4.2022  -19.0145   18.9821 F       1  UNL1       -0.1659
@<TRIPOS>BOND
     1    20    21    1
     2    21    19    1
     3    19    16    1
     4    16    17    2
     5    16    18    2
     6    16    11    1
     7    11    12    1
     8    12    13    1
     9    13    14    1
    10    14     1    1
    11     1    22    1
    12    22    23    1
    13    23    24   ar
    14    24    25   ar
    15    25    26   ar
    16    26    27   ar
    17    27    28   ar
    18    28    29    1
    19    29    30    1
    20    29    31    1
    21    29    32    1
    22     1     2    1
    23     2     3   ar
    24     3     4   ar
    25     4     5   ar
    26     5     9    1
    27     9    10    3
    28     5     6   ar
    29     6     7    1
    30     6     8   ar
    31    14    15    1
    32    15    11    1
    33    28    23   ar
    34     8     2   ar
@<TRIPOS>MOLECULE
*****
 32 34 0 0 0
SMALL
GASTEIGER

@<TRIPOS>ATOM
      1 N           4.2342   -1.9006   22.3925 N.pl3   1  UNL1       -0.3037
      2 C           3.7435   -1.1791   23.6126 C.ar    1  UNL1        0.0490
      3 C           2.7555   -0.0589   23.4749 C.ar    1  UNL1        0.0153
      4 C           2.2649    0.6626   24.6950 C.ar    1  UNL1        0.0124
      5 C           2.7622    0.2639   26.0528 C.ar    1  UNL1        0.0791
      6 C           3.7502   -0.8564   26.1906 C.ar    1  UNL1        0.0685
      7 CL          4.2476   -1.2550   27.5484 Cl      1  UNL1       -0.0815
      8 C           4.2409   -1.5779   24.9705 C.ar    1  UNL1        0.0266
      9 C           2.2715    0.9854   27.2730 C.1     1  UNL1        0.1013
     10 N           1.7809    1.7069   28.4931 N.1     1  UNL1       -0.1908
     11 N           7.6736   -3.6986   22.4496 N.3     1  UNL1       -0.1577
     12 C           8.0582   -2.3544   21.9061 C.3     1  UNL1        0.0972
     13 C           6.8165   -1.5172   21.8186 C.3     1  UNL1        0.0403
     14 C           5.6647   -2.3441   22.3080 C.3     1  UNL1        0.0922
     15 C           6.1943   -3.6922   22.6979 C.3     1  UNL1        0.1151
     16 S           8.6048   -4.8474   22.7006 S.O2    1  UNL1        0.0439
     17 O           8.1258   -5.5103   21.4431 O.2     1  UNL1       -0.1573
     18 O           9.0838   -4.1845   23.9580 O.2     1  UNL1       -0.1573
     19 C           9.5360   -5.9962   22.9516 C.3     1  UNL1        0.1691
     20 C           8.3463   -7.6021   24.6117 C.3     1  UNL1        0.0019
     21 C           8.9834   -7.3523   23.2769 C.3     1  UNL1        0.0270
     22 C           3.2944   -2.1787   21.2570 C.3     1  UNL1        0.1176
     23 C           3.5091   -1.5190   19.9270 C.ar    1  UNL1        0.0015
     24 C           3.1337   -0.0796   19.7345 C.ar    1  UNL1       -0.0027
     25 C           3.3485    0.5801   18.4046 C.ar    1  UNL1       -0.0003
     26 C           3.9385   -0.1997   17.2672 C.ar    1  UNL1       -0.0001
     27 C           4.3139   -1.6392   17.4596 C.ar    1  UNL1        0.0036
     28 C           4.0992   -2.2988   18.7896 C.ar    1  UNL1        0.0691
     29 C           4.4746   -3.7383   18.9821 C.3     1  UNL1        0.4183
     30 F           4.8499   -5.1777   19.1746 F       1  UNL1       -0.1659
     31 F           3.0435   -4.1387   18.7779 F       1  UNL1       -0.1659
     32 F           5.9056   -3.3378   19.1863 F       1  UNL1       -0.1659
@<TRIPOS>BOND
     1    20    21    1
     2    21    19    1
     3    19    16    1
     4    16    17    2
     5    16    18    2
     6    16    11    1
     7    11    12    1
     8    12    13    1
     9    13    14    1
    10    14     1    1
    11     1    22    1
    12    22    23    1
    13    23    24   ar
    14    24    25   ar
    15    25    26   ar
    16    26    27   ar
    17    27    28   ar
    18    28    29    1
    19    29    30    1
    20    29    31    1
    21    29    32    1
    22     1     2    1
    23     2     3   ar
    24     3     4   ar
    25     4     5   ar
    26     5     9    1
    27     9    10    3
    28     5     6   ar
    29     6     7    1
    30     6     8   ar
    31    14    15    1
    32    15    11    1
    33    28    23   ar
    34     8     2   ar
