@<TRIPOS>MOLECULE
*****
 27 28 0 0 0
SMALL
GASTEIGER

@<TRIPOS>ATOM
      1 C          -9.8826  -19.4255   21.3326 C.ar    1  UNL1       -0.0178
      2 C          -9.8229  -19.4235   19.8338 C.ar    1  UNL1       -0.0040
      3 C          -8.5064  -19.5944   19.1355 C.ar    1  UNL1        0.0028
      4 C          -7.2497  -19.7672   19.9360 C.ar    1  UNL1        0.0369
      5 C          -7.3094  -19.7692   21.4347 C.ar    1  UNL1        0.1382
      6 C          -8.6259  -19.5984   22.1331 C.ar    1  UNL1        0.0327
      7 C         -11.1992  -19.2547   22.0310 C.3     1  UNL1        0.0435
      8 C         -11.8348  -17.8985   22.1119 C.3     1  UNL1        0.0737
      9 N         -10.9772  -16.6679   22.1262 N.3     1  UNL1       -0.2895
     10 H         -10.3462  -16.7394   21.3281 H       1  UNL1        0.1237
     11 C         -10.1278  -16.3596   23.3235 C.3     1  UNL1        0.1552
     12 O          -8.0394  -16.1598   21.7910 O.2     1  UNL1       -0.2734
     13 C          -8.6554  -16.1263   23.1583 C.2     1  UNL1        0.2419
     14 N          -7.7988  -15.8594   24.3605 N.am    1  UNL1       -0.2733
     15 C          -8.4147  -15.8258   25.7278 C.3     1  UNL1        0.1255
     16 C          -7.5582  -15.5590   26.9299 C.3     1  UNL1        0.1636
     17 O          -6.0858  -15.3257   26.7647 O.3     1  UNL1       -0.3501
     18 C          -5.4698  -15.3592   25.3974 C.3     1  UNL1        0.1636
     19 C          -6.3263  -15.6261   24.1953 C.3     1  UNL1        0.1255
     20 O          -6.0527  -19.9420   22.2352 O.3     1  UNL1       -0.4755
     21 C          -5.0358  -18.8404   22.2820 C.3     1  UNL1        0.2057
     22 C          -3.5953  -19.1363   21.9866 C.3     1  UNL1        0.0561
     23 C          -3.2045  -19.7074   20.6557 C.3     1  UNL1        0.1072
     24 C          -2.7215  -18.8002   19.5630 C.3     1  UNL1        0.3979
     25 F          -2.2386  -17.8931   18.4704 F       1  UNL1       -0.1700
     26 F          -1.3068  -19.0070   20.0167 F       1  UNL1       -0.1700
     27 F          -4.1362  -18.5935   19.1093 F       1  UNL1       -0.1700
@<TRIPOS>BOND
     1    12    13    2
     2    13    11    1
     3    11     9    1
     4     9     8    1
     5     8     7    1
     6     7     1    1
     7     1     2   ar
     8     2     3   ar
     9     3     4   ar
    10     4     5   ar
    11     5    20    1
    12    20    21    1
    13    21    22    1
    14    22    23    1
    15    23    24    1
    16    24    25    1
    17    24    26    1
    18    24    27    1
    19     5     6   ar
    20    13    14   am
    21    14    15    1
    22    15    16    1
    23    16    17    1
    24    17    18    1
    25    18    19    1
    26     6     1   ar
    27    19    14    1
    28     9    10    1
@<TRIPOS>MOLECULE
*****
 27 28 0 0 0
SMALL
GASTEIGER

@<TRIPOS>ATOM
      1 C         -10.8764  -18.6768   20.3261 C.ar    1  UNL1       -0.0178
      2 C         -11.4794  -17.3215   20.1041 C.ar    1  UNL1       -0.0040
      3 C         -12.0324  -16.5476   21.2639 C.ar    1  UNL1        0.0028
      4 C         -11.9824  -17.1290   22.6457 C.ar    1  UNL1        0.0369
      5 C         -11.3793  -18.4844   22.8677 C.ar    1  UNL1        0.1382
      6 C         -10.8263  -19.2583   21.7079 C.ar    1  UNL1        0.0327
      7 C         -10.3233  -19.4508   19.1662 C.3     1  UNL1        0.0435
      8 C          -8.8825  -19.8680   19.1616 C.3     1  UNL1        0.0737
      9 N          -7.8527  -19.0157   19.8424 N.3     1  UNL1       -0.2895
     10 H          -7.2751  -18.6082   19.1071 H       1  UNL1        0.1237
     11 C          -6.9151  -19.6265   20.8412 C.3     1  UNL1        0.1552
     12 O          -6.9470  -17.8217   22.7098 O.2     1  UNL1       -0.2734
     13 C          -6.1826  -18.7515   21.8147 C.2     1  UNL1        0.2419
     14 N          -4.6856  -18.8064   21.8933 N.am    1  UNL1       -0.2733
     15 C          -3.9212  -19.7362   20.9982 C.3     1  UNL1        0.1255
     16 C          -2.4243  -19.7911   21.0767 C.3     1  UNL1        0.1636
     17 O          -1.6918  -18.9161   22.0502 O.3     1  UNL1       -0.3501
     18 C          -2.4562  -17.9863   22.9453 C.3     1  UNL1        0.1636
     19 C          -3.9531  -17.9314   22.8668 C.3     1  UNL1        0.1255
     20 O         -11.3293  -19.0658   24.2495 O.3     1  UNL1       -0.4755
     21 C         -10.0191  -19.1701   24.9723 C.3     1  UNL1        0.2057
     22 C          -9.5958  -18.0855   25.9181 C.3     1  UNL1        0.0561
     23 C          -8.9813  -16.8246   25.3865 C.3     1  UNL1        0.1072
     24 C          -8.3353  -15.8508   26.3269 C.3     1  UNL1        0.3979
     25 F          -7.6892  -14.8770   27.2674 F       1  UNL1       -0.1700
     26 F          -8.0708  -14.9197   25.1811 F       1  UNL1       -0.1700
     27 F          -8.5998  -16.7820   27.4728 F       1  UNL1       -0.1700
@<TRIPOS>BOND
     1    12    13    2
     2    13    11    1
     3    11     9    1
     4     9     8    1
     5     8     7    1
     6     7     1    1
     7     1     2   ar
     8     2     3   ar
     9     3     4   ar
    10     4     5   ar
    11     5    20    1
    12    20    21    1
    13    21    22    1
    14    22    23    1
    15    23    24    1
    16    24    25    1
    17    24    26    1
    18    24    27    1
    19     5     6   ar
    20    13    14   am
    21    14    15    1
    22    15    16    1
    23    16    17    1
    24    17    18    1
    25    18    19    1
    26     6     1   ar
    27    19    14    1
    28     9    10    1
@<TRIPOS>MOLECULE
*****
 27 28 0 0 0
SMALL
GASTEIGER

@<TRIPOS>ATOM
      1 C         -10.5650  -18.9562   21.6818 C.ar    1  UNL1       -0.0178
      2 C         -10.7681  -20.0429   22.6955 C.ar    1  UNL1       -0.0040
      3 C         -10.4905  -19.7773   24.1454 C.ar    1  UNL1        0.0028
      4 C         -10.0098  -18.4250   24.5816 C.ar    1  UNL1        0.0369
      5 C          -9.8067  -17.3383   23.5679 C.ar    1  UNL1        0.1382
      6 C         -10.0844  -17.6039   22.1179 C.ar    1  UNL1        0.0327
      7 C         -10.8426  -19.2217   20.2317 C.3     1  UNL1        0.0435
      8 C          -9.7605  -19.7689   19.3489 C.3     1  UNL1        0.0737
      9 N          -8.3908  -19.1577   19.3746 N.3     1  UNL1       -0.2895
     10 H          -8.1882  -18.8493   18.4237 H       1  UNL1        0.1237
     11 C          -7.2146  -19.9719   19.8257 C.3     1  UNL1        0.1552
     12 O          -7.2583  -19.7391   22.4129 O.2     1  UNL1       -0.2734
     13 C          -6.5192  -19.6365   21.1117 C.2     1  UNL1        0.2419
     14 N          -5.0847  -19.1983   21.0965 N.am    1  UNL1       -0.2733
     15 C          -4.3456  -19.0957   19.7953 C.3     1  UNL1        0.1255
     16 C          -2.9111  -18.6576   19.7800 C.3     1  UNL1        0.1636
     17 O          -2.2157  -18.3221   21.0660 O.3     1  UNL1       -0.3501
     18 C          -2.9548  -18.4247   22.3673 C.3     1  UNL1        0.1636
     19 C          -4.3893  -18.8628   22.3825 C.3     1  UNL1        0.1255
     20 O          -9.3261  -15.9860   24.0041 O.3     1  UNL1       -0.4755
     21 C          -7.9023  -15.5817   23.7607 C.3     1  UNL1        0.2057
     22 C          -6.8575  -15.8512   24.8027 C.3     1  UNL1        0.0561
     23 C          -6.9645  -15.2114   26.1552 C.3     1  UNL1        0.1072
     24 C          -7.8576  -15.8116   27.2003 C.3     1  UNL1        0.3979
     25 F          -8.7506  -16.4119   28.2453 F       1  UNL1       -0.1700
     26 F          -6.7354  -16.7002   27.6488 F       1  UNL1       -0.1700
     27 F          -8.9797  -14.9230   26.7517 F       1  UNL1       -0.1700
@<TRIPOS>BOND
     1    12    13    2
     2    13    11    1
     3    11     9    1
     4     9     8    1
     5     8     7    1
     6     7     1    1
     7     1     2   ar
     8     2     3   ar
     9     3     4   ar
    10     4     5   ar
    11     5    20    1
    12    20    21    1
    13    21    22    1
    14    22    23    1
    15    23    24    1
    16    24    25    1
    17    24    26    1
    18    24    27    1
    19     5     6   ar
    20    13    14   am
    21    14    15    1
    22    15    16    1
    23    16    17    1
    24    17    18    1
    25    18    19    1
    26     6     1   ar
    27    19    14    1
    28     9    10    1
@<TRIPOS>MOLECULE
*****
 27 28 0 0 0
SMALL
GASTEIGER

@<TRIPOS>ATOM
      1 C         -11.0677  -18.5645   20.5242 C.ar    1  UNL1       -0.0178
      2 C         -11.9509  -17.3603   20.3839 C.ar    1  UNL1       -0.0040
      3 C         -12.6491  -16.7981   21.5865 C.ar    1  UNL1        0.0028
      4 C         -12.4642  -17.4401   22.9295 C.ar    1  UNL1        0.0369
      5 C         -11.5809  -18.6443   23.0699 C.ar    1  UNL1        0.1382
      6 C         -10.8827  -19.2065   21.8672 C.ar    1  UNL1        0.0327
      7 C         -10.3694  -19.1268   19.3216 C.3     1  UNL1        0.0435
      8 C          -8.9856  -19.6904   19.4531 C.3     1  UNL1        0.0737
      9 N          -7.8764  -18.8372   19.9933 N.3     1  UNL1       -0.2895
     10 H          -7.9796  -17.9160   19.5678 H       1  UNL1        0.1237
     11 C          -6.4480  -19.2490   19.7933 C.3     1  UNL1        0.1552
     12 O          -6.0831  -19.7805   22.3101 O.2     1  UNL1       -0.2734
     13 C          -5.5323  -19.3778   20.9743 C.2     1  UNL1        0.2419
     14 N          -4.0656  -19.1039   20.8195 N.am    1  UNL1       -0.2733
     15 C          -3.5147  -18.7012   19.4837 C.3     1  UNL1        0.1255
     16 C          -2.0481  -18.4273   19.3289 C.3     1  UNL1        0.1636
     17 O          -1.1324  -18.5562   20.5099 O.3     1  UNL1       -0.3501
     18 C          -1.6832  -18.9589   21.8457 C.3     1  UNL1        0.1636
     19 C          -3.1498  -19.2328   22.0005 C.3     1  UNL1        0.1255
     20 O         -11.3959  -19.2863   24.4128 O.3     1  UNL1       -0.4755
     21 C         -10.0639  -19.2191   25.0992 C.3     1  UNL1        0.2057
     22 C          -9.5963  -17.9287   25.7044 C.3     1  UNL1        0.0561
     23 C          -8.6498  -17.0448   24.9474 C.3     1  UNL1        0.1072
     24 C          -9.0281  -16.5290   23.5906 C.3     1  UNL1        0.3979
     25 F          -9.4063  -16.0132   22.2338 F       1  UNL1       -0.1700
     26 F          -8.0150  -17.4393   22.9621 F       1  UNL1       -0.1700
     27 F         -10.0411  -15.6187   24.2191 F       1  UNL1       -0.1700
@<TRIPOS>BOND
     1    12    13    2
     2    13    11    1
     3    11     9    1
     4     9     8    1
     5     8     7    1
     6     7     1    1
     7     1     2   ar
     8     2     3   ar
     9     3     4   ar
    10     4     5   ar
    11     5    20    1
    12    20    21    1
    13    21    22    1
    14    22    23    1
    15    23    24    1
    16    24    25    1
    17    24    26    1
    18    24    27    1
    19     5     6   ar
    20    13    14   am
    21    14    15    1
    22    15    16    1
    23    16    17    1
    24    17    18    1
    25    18    19    1
    26     6     1   ar
    27    19    14    1
    28     9    10    1
@<TRIPOS>MOLECULE
*****
 27 28 0 0 0
SMALL
GASTEIGER

@<TRIPOS>ATOM
      1 C          -8.0344  -16.3294   25.0195 C.ar    1  UNL1       -0.0178
      2 C          -7.7155  -15.8681   26.4107 C.ar    1  UNL1       -0.0040
      3 C          -6.3467  -15.3460   26.7324 C.ar    1  UNL1        0.0028
      4 C          -5.2967  -15.2851   25.6629 C.ar    1  UNL1        0.0369
      5 C          -5.6155  -15.7463   24.2717 C.ar    1  UNL1        0.1382
      6 C          -6.9844  -16.2685   23.9500 C.ar    1  UNL1        0.0327
      7 C          -9.4033  -16.8516   24.6977 C.3     1  UNL1        0.0435
      8 C          -9.9428  -18.0436   25.4312 C.3     1  UNL1        0.0737
      9 N          -9.4059  -19.4127   25.1350 N.3     1  UNL1       -0.2895
     10 H          -8.3903  -19.3279   25.0929 H       1  UNL1        0.1237
     11 C          -9.8324  -20.1323   23.8900 C.3     1  UNL1        0.1552
     12 O          -8.1969  -19.7882   21.9008 O.2     1  UNL1       -0.2734
     13 C          -9.5303  -19.5447   22.5434 C.2     1  UNL1        0.2419
     14 N         -10.5617  -18.7137   21.8392 N.am    1  UNL1       -0.2733
     15 C         -11.8951  -18.4703   22.4817 C.3     1  UNL1        0.1255
     16 C         -12.9264  -17.6393   21.7776 C.3     1  UNL1        0.1636
     17 O         -12.6243  -17.0517   20.4309 O.3     1  UNL1       -0.3501
     18 C         -11.2909  -17.2951   19.7884 C.3     1  UNL1        0.1636
     19 C         -10.2596  -18.1261   20.4925 C.3     1  UNL1        0.1255
     20 O          -4.5656  -15.6854   23.2022 O.3     1  UNL1       -0.4755
     21 C          -3.5250  -16.7619   23.1106 C.3     1  UNL1        0.2057
     22 C          -3.9294  -18.2044   23.1859 C.3     1  UNL1        0.0561
     23 C          -4.7697  -18.8054   22.0983 C.3     1  UNL1        0.1072
     24 C          -4.1614  -19.7769   21.1308 C.3     1  UNL1        0.3979
     25 F          -3.5531  -20.7485   20.1633 F       1  UNL1       -0.1700
     26 F          -2.9657  -19.9190   22.0252 F       1  UNL1       -0.1700
     27 F          -5.3571  -19.6349   20.2363 F       1  UNL1       -0.1700
@<TRIPOS>BOND
     1    12    13    2
     2    13    11    1
     3    11     9    1
     4     9     8    1
     5     8     7    1
     6     7     1    1
     7     1     2   ar
     8     2     3   ar
     9     3     4   ar
    10     4     5   ar
    11     5    20    1
    12    20    21    1
    13    21    22    1
    14    22    23    1
    15    23    24    1
    16    24    25    1
    17    24    26    1
    18    24    27    1
    19     5     6   ar
    20    13    14   am
    21    14    15    1
    22    15    16    1
    23    16    17    1
    24    17    18    1
    25    18    19    1
    26     6     1   ar
    27    19    14    1
    28     9    10    1
@<TRIPOS>MOLECULE
*****
 27 28 0 0 0
SMALL
GASTEIGER

@<TRIPOS>ATOM
      1 C          -7.9920  -15.6763   24.0897 C.ar    1  UNL1       -0.0178
      2 C          -7.8388  -15.1936   22.6778 C.ar    1  UNL1       -0.0040
      3 C          -8.8846  -15.5241   21.6546 C.ar    1  UNL1        0.0028
      4 C         -10.0836  -16.3374   22.0432 C.ar    1  UNL1        0.0369
      5 C         -10.2368  -16.8200   23.4551 C.ar    1  UNL1        0.1382
      6 C          -9.1910  -16.4895   24.4783 C.ar    1  UNL1        0.0327
      7 C          -6.9462  -15.3457   25.1130 C.3     1  UNL1        0.0435
      8 C          -5.5069  -15.2348   24.7056 C.3     1  UNL1        0.0737
      9 N          -4.9927  -16.0320   23.5435 N.3     1  UNL1       -0.2895
     10 H          -5.8032  -16.2845   22.9781 H       1  UNL1        0.1237
     11 C          -4.2215  -17.2958   23.7836 C.3     1  UNL1        0.1552
     12 O          -2.0312  -17.5002   22.4013 O.2     1  UNL1       -0.2734
     13 C          -3.4455  -17.9249   22.6647 C.2     1  UNL1        0.2419
     14 N          -4.0838  -18.9787   21.8089 N.am    1  UNL1       -0.2733
     15 C          -5.4982  -19.4033   22.0723 C.3     1  UNL1        0.1255
     16 C          -6.1365  -20.4570   21.2166 C.3     1  UNL1        0.1636
     17 O          -5.3605  -21.0860   20.0977 O.3     1  UNL1       -0.3501
     18 C          -3.9462  -20.6614   19.8343 C.3     1  UNL1        0.1636
     19 C          -3.3079  -19.6077   20.6900 C.3     1  UNL1        0.1255
     20 O         -11.4358  -17.6332   23.8438 O.3     1  UNL1       -0.4755
     21 C         -11.2586  -19.0274   24.3680 C.3     1  UNL1        0.2057
     22 C         -10.6215  -20.0772   23.5066 C.3     1  UNL1        0.0561
     23 C         -10.9637  -20.1600   22.0484 C.3     1  UNL1        0.1072
     24 C         -10.0160  -19.6111   21.0234 C.3     1  UNL1        0.3979
     25 F          -9.0683  -19.0622   19.9983 F       1  UNL1       -0.1700
     26 F         -11.0794  -19.7368   19.9729 F       1  UNL1       -0.1700
     27 F          -8.9526  -19.4854   22.0738 F       1  UNL1       -0.1700
@<TRIPOS>BOND
     1    12    13    2
     2    13    11    1
     3    11     9    1
     4     9     8    1
     5     8     7    1
     6     7     1    1
     7     1     2   ar
     8     2     3   ar
     9     3     4   ar
    10     4     5   ar
    11     5    20    1
    12    20    21    1
    13    21    22    1
    14    22    23    1
    15    23    24    1
    16    24    25    1
    17    24    26    1
    18    24    27    1
    19     5     6   ar
    20    13    14   am
    21    14    15    1
    22    15    16    1
    23    16    17    1
    24    17    18    1
    25    18    19    1
    26     6     1   ar
    27    19    14    1
    28     9    10    1
@<TRIPOS>MOLECULE
*****
 27 28 0 0 0
SMALL
GASTEIGER

@<TRIPOS>ATOM
      1 C          -7.6039  -15.5977   24.5968 C.ar    1  UNL1       -0.0178
      2 C          -7.4543  -15.1575   23.1707 C.ar    1  UNL1       -0.0040
      3 C          -8.4234  -15.6385   22.1317 C.ar    1  UNL1        0.0028
      4 C          -9.5422  -16.5596   22.5188 C.ar    1  UNL1        0.0369
      5 C          -9.6918  -16.9998   23.9449 C.ar    1  UNL1        0.1382
      6 C          -8.7227  -16.5188   24.9839 C.ar    1  UNL1        0.0327
      7 C          -6.6348  -15.1168   25.6358 C.3     1  UNL1        0.0435
      8 C          -5.2309  -15.6446   25.6534 C.3     1  UNL1        0.0737
      9 N          -4.8787  -16.8658   24.8567 N.3     1  UNL1       -0.2895
     10 H          -4.2199  -17.4044   25.4191 H       1  UNL1        0.1237
     11 C          -4.2682  -16.7221   23.4941 C.3     1  UNL1        0.1552
     12 O          -4.4678  -19.2623   22.9868 O.2     1  UNL1       -0.2734
     13 C          -3.8052  -17.9380   22.7477 C.2     1  UNL1        0.2419
     14 N          -2.6796  -17.8296   21.7622 N.am    1  UNL1       -0.2733
     15 C          -2.0170  -16.5053   21.5230 C.3     1  UNL1        0.1255
     16 C          -0.8914  -16.3969   20.5375 C.3     1  UNL1        0.1636
     17 O          -0.4284  -17.6128   19.7911 O.3     1  UNL1       -0.3501
     18 C          -1.0910  -18.9371   20.0302 C.3     1  UNL1        0.1636
     19 C          -2.2166  -19.0455   21.0158 C.3     1  UNL1        0.1255
     20 O         -10.8106  -17.9209   24.3321 O.3     1  UNL1       -0.4755
     21 C         -10.6159  -19.4067   24.2655 C.3     1  UNL1        0.2057
     22 C         -10.1779  -20.0490   22.9828 C.3     1  UNL1        0.0561
     23 C         -11.1577  -20.2289   21.8613 C.3     1  UNL1        0.1072
     24 C         -11.1801  -19.2541   20.7214 C.3     1  UNL1        0.3979
     25 F         -11.2025  -18.2793   19.5815 F       1  UNL1       -0.1700
     26 F         -12.2359  -18.4547   21.4258 F       1  UNL1       -0.1700
     27 F         -10.1243  -20.0535   20.0170 F       1  UNL1       -0.1700
@<TRIPOS>BOND
     1    12    13    2
     2    13    11    1
     3    11     9    1
     4     9     8    1
     5     8     7    1
     6     7     1    1
     7     1     2   ar
     8     2     3   ar
     9     3     4   ar
    10     4     5   ar
    11     5    20    1
    12    20    21    1
    13    21    22    1
    14    22    23    1
    15    23    24    1
    16    24    25    1
    17    24    26    1
    18    24    27    1
    19     5     6   ar
    20    13    14   am
    21    14    15    1
    22    15    16    1
    23    16    17    1
    24    17    18    1
    25    18    19    1
    26     6     1   ar
    27    19    14    1
    28     9    10    1
@<TRIPOS>MOLECULE
*****
 27 28 0 0 0
SMALL
GASTEIGER

@<TRIPOS>ATOM
      1 C         -11.0457   -6.6862   17.3301 C.ar    1  UNL1       -0.0178
      2 C         -10.2782   -7.0822   18.5565 C.ar    1  UNL1       -0.0040
      3 C          -9.5372   -6.0437   19.3454 C.ar    1  UNL1        0.0028
      4 C          -9.5636   -4.6092   18.9078 C.ar    1  UNL1        0.0369
      5 C         -10.3311   -4.2131   17.6814 C.ar    1  UNL1        0.1382
      6 C         -11.0721   -5.2517   16.8926 C.ar    1  UNL1        0.0327
      7 C         -11.7868   -7.7247   16.5412 C.3     1  UNL1        0.0435
      8 C         -13.2292   -8.0065   16.8411 C.3     1  UNL1        0.0737
      9 N         -13.6712   -8.2299   18.2570 N.3     1  UNL1       -0.2895
     10 H         -13.8703   -9.2260   18.3496 H       1  UNL1        0.1237
     11 C         -14.8650   -7.4979   18.7944 C.3     1  UNL1        0.1552
     12 O         -15.8447   -9.7133   19.7337 O.2     1  UNL1       -0.2734
     13 C         -16.0118   -8.2642   19.3839 C.2     1  UNL1        0.2419
     14 N         -17.3258   -7.5815   19.6237 N.am    1  UNL1       -0.2733
     15 C         -17.4929   -6.1325   19.2739 C.3     1  UNL1        0.1255
     16 C         -18.8068   -5.4498   19.5136 C.3     1  UNL1        0.1636
     17 O         -19.9536   -6.2161   20.1031 O.3     1  UNL1       -0.3501
     18 C         -19.7865   -7.6651   20.4529 C.3     1  UNL1        0.1636
     19 C         -18.4726   -8.3479   20.2132 C.3     1  UNL1        0.1255
     20 O         -10.3575   -2.7786   17.2438 O.3     1  UNL1       -0.4755
     21 C         -11.5164   -1.9022   17.6162 C.3     1  UNL1        0.2057
     22 C         -12.0387   -1.9066   19.0223 C.3     1  UNL1        0.0561
     23 C         -13.3703   -2.5271   19.3258 C.3     1  UNL1        0.1072
     24 C         -13.4385   -3.8457   20.0374 C.3     1  UNL1        0.3979
     25 F         -13.5068   -5.1644   20.7491 F       1  UNL1       -0.1700
     26 F         -13.3464   -3.1384   21.3570 F       1  UNL1       -0.1700
     27 F         -13.5307   -4.5531   18.7179 F       1  UNL1       -0.1700
@<TRIPOS>BOND
     1    12    13    2
     2    13    11    1
     3    11     9    1
     4     9     8    1
     5     8     7    1
     6     7     1    1
     7     1     2   ar
     8     2     3   ar
     9     3     4   ar
    10     4     5   ar
    11     5    20    1
    12    20    21    1
    13    21    22    1
    14    22    23    1
    15    23    24    1
    16    24    25    1
    17    24    26    1
    18    24    27    1
    19     5     6   ar
    20    13    14   am
    21    14    15    1
    22    15    16    1
    23    16    17    1
    24    17    18    1
    25    18    19    1
    26     6     1   ar
    27    19    14    1
    28     9    10    1
@<TRIPOS>MOLECULE
*****
 27 28 0 0 0
SMALL
GASTEIGER

@<TRIPOS>ATOM
      1 C         -12.3204  -17.9752   22.2352 C.ar    1  UNL1       -0.0178
      2 C         -13.7287  -17.9259   22.7490 C.ar    1  UNL1       -0.0040
      3 C         -14.0130  -18.2352   24.1890 C.ar    1  UNL1        0.0028
      4 C         -12.8889  -18.5939   25.1151 C.ar    1  UNL1        0.0369
      5 C         -11.4805  -18.6433   24.6013 C.ar    1  UNL1        0.1382
      6 C         -11.1963  -18.3339   23.1614 C.ar    1  UNL1        0.0327
      7 C         -12.0361  -17.6659   20.7952 C.3     1  UNL1        0.0435
      8 C         -10.9889  -18.4429   20.0538 C.3     1  UNL1        0.0737
      9 N          -9.5407  -18.0817   20.2033 N.3     1  UNL1       -0.2895
     10 H          -9.1600  -17.9955   19.2609 H       1  UNL1        0.1237
     11 C          -8.6165  -18.9868   20.9626 C.3     1  UNL1        0.1552
     12 O          -7.7443  -20.4347   18.9896 O.2     1  UNL1       -0.2734
     13 C          -7.4847  -19.6691   20.2531 C.2     1  UNL1        0.2419
     14 N          -6.0932  -19.5859   20.8072 N.am    1  UNL1       -0.2733
     15 C          -5.8336  -18.8204   22.0708 C.3     1  UNL1        0.1255
     16 C          -4.4422  -18.7372   22.6249 C.3     1  UNL1        0.1636
     17 O          -3.3104  -19.4195   21.9154 O.3     1  UNL1       -0.3501
     18 C          -3.5700  -20.1851   20.6519 C.3     1  UNL1        0.1636
     19 C          -4.9614  -20.2683   20.0978 C.3     1  UNL1        0.1255
     20 O         -10.3564  -19.0020   25.5274 O.3     1  UNL1       -0.4755
     21 C          -9.1696  -18.0934   25.6535 C.3     1  UNL1        0.2057
     22 C          -9.0359  -17.1957   26.8477 C.3     1  UNL1        0.0561
     23 C          -8.0105  -16.1008   26.8518 C.3     1  UNL1        0.1072
     24 C          -7.7472  -15.3151   25.6015 C.3     1  UNL1        0.3979
     25 F          -7.4840  -14.5294   24.3511 F       1  UNL1       -0.1700
     26 F          -9.2063  -14.9810   25.5042 F       1  UNL1       -0.1700
     27 F          -6.2881  -15.6492   25.6987 F       1  UNL1       -0.1700
@<TRIPOS>BOND
     1    12    13    2
     2    13    11    1
     3    11     9    1
     4     9     8    1
     5     8     7    1
     6     7     1    1
     7     1     2   ar
     8     2     3   ar
     9     3     4   ar
    10     4     5   ar
    11     5    20    1
    12    20    21    1
    13    21    22    1
    14    22    23    1
    15    23    24    1
    16    24    25    1
    17    24    26    1
    18    24    27    1
    19     5     6   ar
    20    13    14   am
    21    14    15    1
    22    15    16    1
    23    16    17    1
    24    17    18    1
    25    18    19    1
    26     6     1   ar
    27    19    14    1
    28     9    10    1
