@<TRIPOS>MOLECULE
*****
 34 38 0 0 0
SMALL
GASTEIGER

@<TRIPOS>ATOM
      1 O           6.8973   -5.2335   29.5954 O.2     1  UNL1       -0.2526
      2 C           6.5234   -3.9591   28.8980 C.2     1  UNL1        0.3039
      3 N           6.1455   -2.7487   29.6992 N.am    1  UNL1       -0.2901
      4 N           6.5273   -3.8954   27.3994 N.am    1  UNL1       -0.2642
      5 C           6.9053   -5.1059   26.5982 C.3     1  UNL1        0.0954
      6 C           6.9092   -5.0421   25.0995 C.3     1  UNL1        0.0309
      7 C           6.5353   -3.7678   24.4021 C.3     1  UNL1        0.0827
      8 C           6.1574   -2.5573   25.2033 C.3     1  UNL1        0.0309
      9 C           6.1534   -2.6211   26.7019 C.3     1  UNL1        0.0954
     10 H           5.9001   -1.9123   29.2415 H       1  UNL1        0.1509
     11 C           6.5393   -3.7040   22.9035 C.ar    1  UNL1        0.2362
     12 N           6.0273   -2.5683   22.0679 N.ar    1  UNL1       -0.1908
     13 C           6.2275   -2.9271   20.6253 C.ar    1  UNL1        0.2032
     14 N           6.8633   -4.2846   20.5692 N.ar    1  UNL1       -0.0560
     15 O           7.0559   -4.7647   21.9772 O.2     1  UNL1       -0.3370
     16 C           5.8571   -2.0776   19.4459 C.ar    1  UNL1        0.0430
     17 C           6.7207   -0.9138   19.0591 C.ar    1  UNL1        0.0031
     18 C           6.3504   -0.0641   17.8797 C.ar    1  UNL1        0.0001
     19 C           5.1163   -0.3784   17.0870 C.ar    1  UNL1       -0.0001
     20 C           4.2526   -1.5423   17.4738 C.ar    1  UNL1        0.0040
     21 C           4.6231   -2.3919   18.6533 C.ar    1  UNL1        0.0745
     22 C           3.7594   -3.5557   19.0400 C.3     1  UNL1        0.4187
     23 F           2.8956   -4.7194   19.4268 F       1  UNL1       -0.1659
     24 F           4.6395   -4.4734   18.2443 F       1  UNL1       -0.1659
     25 F           2.8792   -2.6379   19.8357 F       1  UNL1       -0.1659
     26 C           6.1415   -2.8125   31.1978 C.3     1  UNL1        0.0774
     27 C           6.5059   -3.5208   32.4688 C.3     1  UNL1        0.0259
     28 C           5.7702   -2.2147   32.5225 C.3     1  UNL1        0.0420
     29 C           5.1310   -1.1154   33.3183 C.ar    1  UNL1       -0.0208
     30 C           4.0842   -0.2450   32.6888 C.ar    1  UNL1       -0.0042
     31 C           3.4451    0.8542   33.4845 C.ar    1  UNL1       -0.0003
     32 C           3.8529    1.0830   34.9098 C.ar    1  UNL1       -0.0000
     33 C           4.8998    0.2125   35.5393 C.ar    1  UNL1       -0.0003
     34 C           5.5389   -0.8867   34.7435 C.ar    1  UNL1       -0.0042
@<TRIPOS>BOND
     1     1     2    2
     2     2     3   am
     3     3    26    1
     4    26    27    1
     5    27    28    1
     6    28    29    1
     7    29    30   ar
     8    30    31   ar
     9    31    32   ar
    10    32    33   ar
    11    33    34   ar
    12     2     4   am
    13     4     5    1
    14     5     6    1
    15     6     7    1
    16     7    11    1
    17    11    12   ar
    18    12    13   ar
    19    13    16    1
    20    16    17   ar
    21    17    18   ar
    22    18    19   ar
    23    19    20   ar
    24    20    21   ar
    25    21    22    1
    26    22    23    1
    27    22    24    1
    28    22    25    1
    29    13    14   ar
    30    14    15   ar
    31     7     8    1
    32     8     9    1
    33    28    26    1
    34    34    29   ar
    35     9     4    1
    36    15    11   ar
    37    21    16   ar
    38     3    10    1
@<TRIPOS>MOLECULE
*****
 34 38 0 0 0
SMALL
GASTEIGER

@<TRIPOS>ATOM
      1 O          -1.6763    4.7432   19.6013 O.2     1  UNL1       -0.2526
      2 C          -1.5253    3.3638   20.1711 C.2     1  UNL1        0.3039
      3 N          -2.5414    2.8377   21.1410 N.am    1  UNL1       -0.2901
      4 N          -0.3583    2.5106   19.7710 N.am    1  UNL1       -0.2642
      5 C           0.6578    3.0368   18.8011 C.3     1  UNL1        0.0954
      6 C           1.8249    2.1837   18.4009 C.3     1  UNL1        0.0309
      7 C           1.9758    0.8043   18.9708 C.3     1  UNL1        0.0827
      8 C           0.9598    0.2782   19.9407 C.3     1  UNL1        0.0309
      9 C          -0.2073    1.1313   20.3408 C.3     1  UNL1        0.0954
     10 H          -2.4423    1.9324   21.5150 H       1  UNL1        0.1509
     11 C           3.1429   -0.0488   18.5707 C.ar    1  UNL1        0.2362
     12 N           4.2000   -0.5842   19.4903 N.ar    1  UNL1       -0.1908
     13 C           5.1682   -1.3827   18.6687 C.ar    1  UNL1        0.2032
     14 N           4.7095   -1.3408   17.2412 N.ar    1  UNL1       -0.0560
     15 O           3.4578   -0.5164   17.1806 O.2     1  UNL1       -0.3370
     16 C           6.3820   -2.0976   19.1841 C.ar    1  UNL1        0.0430
     17 C           7.7397   -1.4797   19.0262 C.ar    1  UNL1        0.0031
     18 C           8.9536   -2.1945   19.5415 C.ar    1  UNL1        0.0001
     19 C           8.8098   -3.5272   20.2148 C.ar    1  UNL1       -0.0001
     20 C           7.4521   -4.1450   20.3727 C.ar    1  UNL1        0.0040
     21 C           6.2382   -3.4301   19.8573 C.ar    1  UNL1        0.0745
     22 C           4.8805   -4.0481   20.0152 C.3     1  UNL1        0.4187
     23 F           3.5229   -4.6660   20.1731 F       1  UNL1       -0.1659
     24 F           4.7407   -3.3976   21.3596 F       1  UNL1       -0.1659
     25 F           5.0203   -4.6986   18.6708 F       1  UNL1       -0.1659
     26 C          -3.7084    3.6908   21.5412 C.3     1  UNL1        0.0774
     27 C          -4.9018    4.5184   21.1657 C.3     1  UNL1        0.0259
     28 C          -4.5364    4.3409   22.6097 C.3     1  UNL1        0.0420
     29 C          -4.8036    4.6138   24.0603 C.ar    1  UNL1       -0.0208
     30 C          -5.8292    5.6347   24.4549 C.ar    1  UNL1       -0.0042
     31 C          -6.0963    5.9075   25.9055 C.ar    1  UNL1       -0.0003
     32 C          -5.3377    5.1595   26.9614 C.ar    1  UNL1       -0.0000
     33 C          -4.3120    4.1387   26.5668 C.ar    1  UNL1       -0.0003
     34 C          -4.0450    3.8658   25.1162 C.ar    1  UNL1       -0.0042
@<TRIPOS>BOND
     1     1     2    2
     2     2     3   am
     3     3    26    1
     4    26    27    1
     5    27    28    1
     6    28    29    1
     7    29    30   ar
     8    30    31   ar
     9    31    32   ar
    10    32    33   ar
    11    33    34   ar
    12     2     4   am
    13     4     5    1
    14     5     6    1
    15     6     7    1
    16     7    11    1
    17    11    12   ar
    18    12    13   ar
    19    13    16    1
    20    16    17   ar
    21    17    18   ar
    22    18    19   ar
    23    19    20   ar
    24    20    21   ar
    25    21    22    1
    26    22    23    1
    27    22    24    1
    28    22    25    1
    29    13    14   ar
    30    14    15   ar
    31     7     8    1
    32     8     9    1
    33    28    26    1
    34    34    29   ar
    35     9     4    1
    36    15    11   ar
    37    21    16   ar
    38     3    10    1
@<TRIPOS>MOLECULE
*****
 34 38 0 0 0
SMALL
GASTEIGER

@<TRIPOS>ATOM
      1 O           2.9138    0.4609   22.7418 O.2     1  UNL1       -0.2526
      2 C           1.5854    0.9656   23.2222 C.2     1  UNL1        0.3039
      3 N           0.5142    1.3170   22.2327 N.am    1  UNL1       -0.2901
      4 N           1.3282    1.1189   24.6920 N.am    1  UNL1       -0.2642
      5 C           2.3995    0.7674   25.6814 C.3     1  UNL1        0.0954
      6 C           2.1424    0.9207   27.1513 C.3     1  UNL1        0.0309
      7 C           0.8140    1.4254   27.6316 C.3     1  UNL1        0.0827
      8 C          -0.2572    1.7768   26.6422 C.3     1  UNL1        0.0309
      9 C          -0.0001    1.6235   25.1724 C.3     1  UNL1        0.0954
     10 H          -0.3577    1.6483   22.5480 H       1  UNL1        0.1509
     11 C           0.5569    1.5786   29.1015 C.ar    1  UNL1        0.2362
     12 N           1.3904    2.3711   30.0645 N.ar    1  UNL1       -0.1908
     13 C           0.7697    2.2486   31.4245 C.ar    1  UNL1        0.2032
     14 N          -0.4474    1.3804   31.3021 N.ar    1  UNL1       -0.0560
     15 O          -0.5789    0.9664   29.8664 O.2     1  UNL1       -0.3370
     16 C           1.2771    2.8829   32.6856 C.ar    1  UNL1        0.0430
     17 C           2.1765    2.1103   33.6044 C.ar    1  UNL1        0.0031
     18 C           2.6840    2.7444   34.8655 C.ar    1  UNL1        0.0001
     19 C           2.2920    4.1513   35.2077 C.ar    1  UNL1       -0.0001
     20 C           1.3926    4.9239   34.2889 C.ar    1  UNL1        0.0040
     21 C           0.8852    4.2896   33.0278 C.ar    1  UNL1        0.0745
     22 C          -0.0142    5.0623   32.1090 C.3     1  UNL1        0.4187
     23 F          -0.9136    5.8350   31.1903 F       1  UNL1       -0.1659
     24 F           1.1737    5.4696   31.2886 F       1  UNL1       -0.1659
     25 F          -1.2021    4.6550   32.9295 F       1  UNL1       -0.1659
     26 C           0.7713    1.1638   20.7629 C.3     1  UNL1        0.0774
     27 C           0.4664    1.5438   19.3443 C.3     1  UNL1        0.0259
     28 C           1.5215    0.5182   19.6358 C.3     1  UNL1        0.0420
     29 C           2.5638   -0.4466   19.1533 C.ar    1  UNL1       -0.0208
     30 C           3.3153   -0.1670   17.8857 C.ar    1  UNL1       -0.0042
     31 C           4.3576   -1.1318   17.4033 C.ar    1  UNL1       -0.0003
     32 C           4.6483   -2.3763   18.1886 C.ar    1  UNL1       -0.0000
     33 C           3.8968   -2.6560   19.4562 C.ar    1  UNL1       -0.0003
     34 C           2.8546   -1.6911   19.9386 C.ar    1  UNL1       -0.0042
@<TRIPOS>BOND
     1     1     2    2
     2     2     3   am
     3     3    26    1
     4    26    27    1
     5    27    28    1
     6    28    29    1
     7    29    30   ar
     8    30    31   ar
     9    31    32   ar
    10    32    33   ar
    11    33    34   ar
    12     2     4   am
    13     4     5    1
    14     5     6    1
    15     6     7    1
    16     7    11    1
    17    11    12   ar
    18    12    13   ar
    19    13    16    1
    20    16    17   ar
    21    17    18   ar
    22    18    19   ar
    23    19    20   ar
    24    20    21   ar
    25    21    22    1
    26    22    23    1
    27    22    24    1
    28    22    25    1
    29    13    14   ar
    30    14    15   ar
    31     7     8    1
    32     8     9    1
    33    28    26    1
    34    34    29   ar
    35     9     4    1
    36    15    11   ar
    37    21    16   ar
    38     3    10    1
@<TRIPOS>MOLECULE
*****
 34 38 0 0 0
SMALL
GASTEIGER

@<TRIPOS>ATOM
      1 O           3.0898    0.4840   23.7343 O.2     1  UNL1       -0.2526
      2 C           3.4921   -0.5490   24.7449 C.2     1  UNL1        0.3039
      3 N           4.0440   -1.8677   24.2905 N.am    1  UNL1       -0.2901
      4 N           3.3424   -0.2633   26.2098 N.am    1  UNL1       -0.2642
      5 C           2.7904    1.0554   26.6641 C.3     1  UNL1        0.0954
      6 C           2.6407    1.3411   28.1290 C.3     1  UNL1        0.0309
      7 C           3.0429    0.3081   29.1396 C.3     1  UNL1        0.0827
      8 C           3.5949   -1.0106   28.6852 C.3     1  UNL1        0.0309
      9 C           3.7446   -1.2963   27.2203 C.3     1  UNL1        0.0954
     10 H           4.3080   -2.5457   24.9537 H       1  UNL1        0.1509
     11 C           2.8932    0.5938   30.6045 C.ar    1  UNL1        0.2362
     12 N           3.9505    0.4064   31.6519 N.ar    1  UNL1       -0.1908
     13 C           3.3706    0.8138   32.9740 C.ar    1  UNL1        0.2032
     14 N           1.9550    1.2531   32.7436 N.ar    1  UNL1       -0.0560
     15 O           1.6600    1.1171   31.2792 O.2     1  UNL1       -0.3370
     16 C           4.0816    0.7868   34.2945 C.ar    1  UNL1        0.0430
     17 C           3.9723    1.9548   35.2291 C.ar    1  UNL1        0.0031
     18 C           4.6833    1.9279   36.5497 C.ar    1  UNL1        0.0001
     19 C           5.5035    0.7328   36.9355 C.ar    1  UNL1       -0.0001
     20 C           5.6128   -0.4353   36.0009 C.ar    1  UNL1        0.0040
     21 C           4.9018   -0.4083   34.6803 C.ar    1  UNL1        0.0745
     22 C           5.0112   -1.5765   33.7456 C.3     1  UNL1        0.4187
     23 F           5.1206   -2.7445   32.8110 F       1  UNL1       -0.1659
     24 F           3.7702   -2.1707   34.3430 F       1  UNL1       -0.1659
     25 F           6.2522   -0.9822   33.1483 F       1  UNL1       -0.1659
     26 C           4.1937   -2.1534   22.8256 C.3     1  UNL1        0.0774
     27 C           4.8089   -2.9505   21.7138 C.3     1  UNL1        0.0259
     28 C           3.8379   -1.8511   21.4001 C.3     1  UNL1        0.0420
     29 C           3.0717   -1.0419   20.3960 C.ar    1  UNL1       -0.0208
     30 C           1.6352   -0.6941   20.6519 C.ar    1  UNL1       -0.0042
     31 C           0.8691    0.1151   19.6479 C.ar    1  UNL1       -0.0003
     32 C           1.5395    0.5766   18.3879 C.ar    1  UNL1       -0.0000
     33 C           2.9760    0.2288   18.1319 C.ar    1  UNL1       -0.0003
     34 C           3.7421   -0.5804   19.1360 C.ar    1  UNL1       -0.0042
@<TRIPOS>BOND
     1     1     2    2
     2     2     3   am
     3     3    26    1
     4    26    27    1
     5    27    28    1
     6    28    29    1
     7    29    30   ar
     8    30    31   ar
     9    31    32   ar
    10    32    33   ar
    11    33    34   ar
    12     2     4   am
    13     4     5    1
    14     5     6    1
    15     6     7    1
    16     7    11    1
    17    11    12   ar
    18    12    13   ar
    19    13    16    1
    20    16    17   ar
    21    17    18   ar
    22    18    19   ar
    23    19    20   ar
    24    20    21   ar
    25    21    22    1
    26    22    23    1
    27    22    24    1
    28    22    25    1
    29    13    14   ar
    30    14    15   ar
    31     7     8    1
    32     8     9    1
    33    28    26    1
    34    34    29   ar
    35     9     4    1
    36    15    11   ar
    37    21    16   ar
    38     3    10    1
@<TRIPOS>MOLECULE
*****
 34 38 0 0 0
SMALL
GASTEIGER

@<TRIPOS>ATOM
      1 O           2.9998    1.8726   22.7210 O.2     1  UNL1       -0.2526
      2 C           1.6397    1.5760   23.2797 C.2     1  UNL1        0.3039
      3 N           0.5308    1.1460   22.3656 N.am    1  UNL1       -0.2901
      4 N           1.3884    1.7094   24.7525 N.am    1  UNL1       -0.2642
      5 C           2.4973    2.1394   25.6666 C.3     1  UNL1        0.0954
      6 C           2.2461    2.2728   27.1393 C.3     1  UNL1        0.0309
      7 C           0.8859    1.9762   27.6980 C.3     1  UNL1        0.0827
      8 C          -0.2229    1.5462   26.7839 C.3     1  UNL1        0.0309
      9 C           0.0283    1.4128   25.3112 C.3     1  UNL1        0.0954
     10 H          -0.3618    0.9514   22.7323 H       1  UNL1        0.1509
     11 C           0.6346    2.1096   29.1708 C.ar    1  UNL1        0.2362
     12 N           0.8198    3.3540   29.9877 N.ar    1  UNL1       -0.1908
     13 C           0.4537    3.0355   31.4070 C.ar    1  UNL1        0.2032
     14 N           0.0423    1.5943   31.4674 N.ar    1  UNL1       -0.0560
     15 O           0.1541    1.0221   30.0853 O.2     1  UNL1       -0.3370
     16 C           0.4923    3.9906   32.5630 C.ar    1  UNL1        0.0430
     17 C          -0.5920    5.0140   32.7268 C.ar    1  UNL1        0.0031
     18 C          -0.5536    5.9691   33.8828 C.ar    1  UNL1        0.0001
     19 C           0.5693    5.9008   34.8750 C.ar    1  UNL1       -0.0001
     20 C           1.6536    4.8773   34.7113 C.ar    1  UNL1        0.0040
     21 C           1.6151    3.9222   33.5552 C.ar    1  UNL1        0.0745
     22 C           2.6994    2.8988   33.3915 C.3     1  UNL1        0.4187
     23 F           3.7837    1.8753   33.2279 F       1  UNL1       -0.1659
     24 F           3.4676    3.8512   32.5239 F       1  UNL1       -0.1659
     25 F           1.9313    1.9462   34.2592 F       1  UNL1       -0.1659
     26 C           0.7821    1.0126   20.8928 C.3     1  UNL1        0.0774
     27 C           0.4599    1.3993   19.4798 C.3     1  UNL1        0.0259
     28 C           1.5395    0.3950   19.7550 C.3     1  UNL1        0.0420
     29 C           2.6002   -0.5415   19.2569 C.ar    1  UNL1       -0.0208
     30 C           2.9920   -1.7351   20.0765 C.ar    1  UNL1       -0.0042
     31 C           4.0526   -2.6715   19.5784 C.ar    1  UNL1       -0.0003
     32 C           4.7215   -2.4143   18.2607 C.ar    1  UNL1       -0.0000
     33 C           4.3298   -1.2207   17.4411 C.ar    1  UNL1       -0.0003
     34 C           3.2692   -0.2843   17.9392 C.ar    1  UNL1       -0.0042
@<TRIPOS>BOND
     1     1     2    2
     2     2     3   am
     3     3    26    1
     4    26    27    1
     5    27    28    1
     6    28    29    1
     7    29    30   ar
     8    30    31   ar
     9    31    32   ar
    10    32    33   ar
    11    33    34   ar
    12     2     4   am
    13     4     5    1
    14     5     6    1
    15     6     7    1
    16     7    11    1
    17    11    12   ar
    18    12    13   ar
    19    13    16    1
    20    16    17   ar
    21    17    18   ar
    22    18    19   ar
    23    19    20   ar
    24    20    21   ar
    25    21    22    1
    26    22    23    1
    27    22    24    1
    28    22    25    1
    29    13    14   ar
    30    14    15   ar
    31     7     8    1
    32     8     9    1
    33    28    26    1
    34    34    29   ar
    35     9     4    1
    36    15    11   ar
    37    21    16   ar
    38     3    10    1
@<TRIPOS>MOLECULE
*****
 34 38 0 0 0
SMALL
GASTEIGER

@<TRIPOS>ATOM
      1 O           2.3906   -1.0061   30.9909 O.2     1  UNL1       -0.2526
      2 C           2.3419    0.4931   31.0074 C.2     1  UNL1        0.3039
      3 N           3.0980    1.2565   32.0540 N.am    1  UNL1       -0.2901
      4 N           1.5370    1.2287   29.9773 N.am    1  UNL1       -0.2642
      5 C           0.7809    0.4651   28.9307 C.3     1  UNL1        0.0954
      6 C          -0.0239    1.2008   27.9006 C.3     1  UNL1        0.0309
      7 C          -0.0726    2.6999   27.9171 C.3     1  UNL1        0.0827
      8 C           0.6835    3.4634   28.9637 C.3     1  UNL1        0.0309
      9 C           1.4883    2.7278   29.9938 C.3     1  UNL1        0.0954
     10 H           3.0660    2.2405   32.0648 H       1  UNL1        0.1509
     11 C          -0.8774    3.4356   26.8870 C.ar    1  UNL1        0.2362
     12 N          -2.2986    3.1445   26.5056 N.ar    1  UNL1       -0.1908
     13 C          -2.7019    4.1204   25.4403 C.ar    1  UNL1        0.2032
     14 N          -1.5300    5.0147   25.1633 N.ar    1  UNL1       -0.0560
     15 O          -0.4024    4.5914   26.0574 O.2     1  UNL1       -0.3370
     16 C          -4.0419    4.1899   24.7698 C.ar    1  UNL1        0.0430
     17 C          -4.2818    3.4389   23.4937 C.ar    1  UNL1        0.0031
     18 C          -5.6218    3.5083   22.8231 C.ar    1  UNL1        0.0001
     19 C          -6.7219    4.3287   23.4286 C.ar    1  UNL1       -0.0001
     20 C          -6.4819    5.0797   24.7047 C.ar    1  UNL1        0.0040
     21 C          -5.1419    5.0103   25.3753 C.ar    1  UNL1        0.0745
     22 C          -4.9021    5.7614   26.6514 C.3     1  UNL1        0.4187
     23 F          -4.6623    6.5124   27.9275 F       1  UNL1       -0.1659
     24 F          -4.6485    7.0142   25.8665 F       1  UNL1       -0.1659
     25 F          -5.1556    4.5085   27.4363 F       1  UNL1       -0.1659
     26 C           3.9028    0.5209   33.0841 C.3     1  UNL1        0.0774
     27 C           4.2357    0.2486   34.5211 C.3     1  UNL1        0.0259
     28 C           4.9638   -0.4809   33.4313 C.3     1  UNL1        0.0420
     29 C           5.9968   -1.4805   33.0025 C.ar    1  UNL1       -0.0208
     30 C           7.4541   -1.1344   33.0824 C.ar    1  UNL1       -0.0042
     31 C           8.4869   -2.1340   32.6537 C.ar    1  UNL1       -0.0003
     32 C           8.0625   -3.4798   32.1449 C.ar    1  UNL1       -0.0000
     33 C           6.6052   -3.8259   32.0649 C.ar    1  UNL1       -0.0003
     34 C           5.5724   -2.8263   32.4937 C.ar    1  UNL1       -0.0042
@<TRIPOS>BOND
     1     1     2    2
     2     2     3   am
     3     3    26    1
     4    26    27    1
     5    27    28    1
     6    28    29    1
     7    29    30   ar
     8    30    31   ar
     9    31    32   ar
    10    32    33   ar
    11    33    34   ar
    12     2     4   am
    13     4     5    1
    14     5     6    1
    15     6     7    1
    16     7    11    1
    17    11    12   ar
    18    12    13   ar
    19    13    16    1
    20    16    17   ar
    21    17    18   ar
    22    18    19   ar
    23    19    20   ar
    24    20    21   ar
    25    21    22    1
    26    22    23    1
    27    22    24    1
    28    22    25    1
    29    13    14   ar
    30    14    15   ar
    31     7     8    1
    32     8     9    1
    33    28    26    1
    34    34    29   ar
    35     9     4    1
    36    15    11   ar
    37    21    16   ar
    38     3    10    1
@<TRIPOS>MOLECULE
*****
 34 38 0 0 0
SMALL
GASTEIGER

@<TRIPOS>ATOM
      1 O           2.1654   -0.9363   30.9459 O.2     1  UNL1       -0.2526
      2 C           2.7628   -0.2563   29.7497 C.2     1  UNL1        0.3039
      3 N           4.2481   -0.2737   29.5410 N.am    1  UNL1       -0.2901
      4 N           1.8748    0.4410   28.7622 N.am    1  UNL1       -0.2642
      5 C           0.3894    0.4584   28.9709 C.3     1  UNL1        0.0954
      6 C          -0.4986    1.1557   27.9834 C.3     1  UNL1        0.0309
      7 C           0.0988    1.8357   26.7872 C.3     1  UNL1        0.0827
      8 C           1.5841    1.8183   26.5785 C.3     1  UNL1        0.0309
      9 C           2.4721    1.1210   27.5660 C.3     1  UNL1        0.0954
     10 H           4.6401    0.1726   28.7559 H       1  UNL1        0.1509
     11 C          -0.7892    2.5331   25.7997 C.ar    1  UNL1        0.2362
     12 N          -2.2680    2.7426   25.9381 N.ar    1  UNL1       -0.1908
     13 C          -2.7471    3.4823   24.7244 C.ar    1  UNL1        0.2032
     14 N          -1.5644    3.7300   23.8357 N.ar    1  UNL1       -0.0560
     15 O          -0.3543    3.1434   24.5003 O.2     1  UNL1       -0.3370
     16 C          -4.1607    3.9009   24.4478 C.ar    1  UNL1        0.0430
     17 C          -4.8579    3.4168   23.2111 C.ar    1  UNL1        0.0031
     18 C          -6.2716    3.8353   22.9344 C.ar    1  UNL1        0.0001
     19 C          -6.9880    4.7379   23.8946 C.ar    1  UNL1       -0.0001
     20 C          -6.2908    5.2220   25.1314 C.ar    1  UNL1        0.0040
     21 C          -4.8771    4.8035   25.4080 C.ar    1  UNL1        0.0745
     22 C          -4.1800    5.2876   26.6448 C.3     1  UNL1        0.4187
     23 F          -3.4829    5.7717   27.8816 F       1  UNL1       -0.1659
     24 F          -3.6350    6.4572   25.8798 F       1  UNL1       -0.1659
     25 F          -4.7251    4.1180   27.4097 F       1  UNL1       -0.1659
     26 C           5.1361   -0.9711   30.5285 C.3     1  UNL1        0.0774
     27 C           5.8375   -0.9948   31.8541 C.3     1  UNL1        0.0259
     28 C           5.9726   -2.1552   30.9133 C.3     1  UNL1        0.0420
     29 C           6.5336   -3.5088   30.5921 C.ar    1  UNL1       -0.0208
     30 C           6.8852   -4.4570   31.6999 C.ar    1  UNL1       -0.0042
     31 C           7.4461   -5.8105   31.3788 C.ar    1  UNL1       -0.0003
     32 C           7.6554   -6.2159   29.9499 C.ar    1  UNL1       -0.0000
     33 C           7.3038   -5.2677   28.8421 C.ar    1  UNL1       -0.0003
     34 C           6.7428   -3.9142   29.1632 C.ar    1  UNL1       -0.0042
@<TRIPOS>BOND
     1     1     2    2
     2     2     3   am
     3     3    26    1
     4    26    27    1
     5    27    28    1
     6    28    29    1
     7    29    30   ar
     8    30    31   ar
     9    31    32   ar
    10    32    33   ar
    11    33    34   ar
    12     2     4   am
    13     4     5    1
    14     5     6    1
    15     6     7    1
    16     7    11    1
    17    11    12   ar
    18    12    13   ar
    19    13    16    1
    20    16    17   ar
    21    17    18   ar
    22    18    19   ar
    23    19    20   ar
    24    20    21   ar
    25    21    22    1
    26    22    23    1
    27    22    24    1
    28    22    25    1
    29    13    14   ar
    30    14    15   ar
    31     7     8    1
    32     8     9    1
    33    28    26    1
    34    34    29   ar
    35     9     4    1
    36    15    11   ar
    37    21    16   ar
    38     3    10    1
@<TRIPOS>MOLECULE
*****
 34 38 0 0 0
SMALL
GASTEIGER

@<TRIPOS>ATOM
      1 O           2.1137   -0.9204   30.8336 O.2     1  UNL1       -0.2526
      2 C           2.1375    0.5764   30.7374 C.2     1  UNL1        0.3039
      3 N           2.9352    1.3786   31.7222 N.am    1  UNL1       -0.2901
      4 N           1.3635    1.2708   29.6563 N.am    1  UNL1       -0.2642
      5 C           0.5658    0.4684   28.6714 C.3     1  UNL1        0.0954
      6 C          -0.2081    1.1628   27.5903 C.3     1  UNL1        0.0309
      7 C          -0.1844    2.6596   27.4941 C.3     1  UNL1        0.0827
      8 C           0.6133    3.4618   28.4789 C.3     1  UNL1        0.0309
      9 C           1.3873    2.7674   29.5600 C.3     1  UNL1        0.0954
     10 H           2.9508    2.3610   31.6590 H       1  UNL1        0.1509
     11 C          -0.9583    3.3540   26.4130 C.ar    1  UNL1        0.2362
     12 N          -1.3159    2.7773   25.0752 N.ar    1  UNL1       -0.1908
     13 C          -2.0892    3.8139   24.3152 C.ar    1  UNL1        0.2032
     14 N          -2.2096    5.0312   25.1833 N.ar    1  UNL1       -0.0560
     15 O          -1.5107    4.7470   26.4798 O.2     1  UNL1       -0.3370
     16 C          -2.6445    3.6601   22.9303 C.ar    1  UNL1        0.0430
     17 C          -1.7155    3.5398   21.7589 C.ar    1  UNL1        0.0031
     18 C          -2.2708    3.3860   20.3739 C.ar    1  UNL1        0.0001
     19 C          -3.7551    3.3526   20.1605 C.ar    1  UNL1       -0.0001
     20 C          -4.6842    3.4729   21.3320 C.ar    1  UNL1        0.0040
     21 C          -4.1288    3.6267   22.7170 C.ar    1  UNL1        0.0745
     22 C          -5.0579    3.7470   23.8884 C.3     1  UNL1        0.4187
     23 F          -5.9870    3.8672   25.0599 F       1  UNL1       -0.1659
     24 F          -5.1090    5.2336   23.6954 F       1  UNL1       -0.1659
     25 F          -5.0068    2.2603   24.0815 F       1  UNL1       -0.1659
     26 C           3.7092    0.6842   32.8033 C.3     1  UNL1        0.0774
     27 C           3.9959    0.4643   34.2591 C.3     1  UNL1        0.0259
     28 C           4.7629   -0.2986   33.2200 C.3     1  UNL1        0.0420
     29 C           5.8141   -1.3065   32.8606 C.ar    1  UNL1       -0.0208
     30 C           7.2635   -0.9213   32.8891 C.ar    1  UNL1       -0.0042
     31 C           8.3146   -1.9292   32.5297 C.ar    1  UNL1       -0.0003
     32 C           7.9163   -3.3224   32.1419 C.ar    1  UNL1       -0.0000
     33 C           6.4670   -3.7077   32.1135 C.ar    1  UNL1       -0.0003
     34 C           5.4159   -2.6997   32.4728 C.ar    1  UNL1       -0.0042
@<TRIPOS>BOND
     1     1     2    2
     2     2     3   am
     3     3    26    1
     4    26    27    1
     5    27    28    1
     6    28    29    1
     7    29    30   ar
     8    30    31   ar
     9    31    32   ar
    10    32    33   ar
    11    33    34   ar
    12     2     4   am
    13     4     5    1
    14     5     6    1
    15     6     7    1
    16     7    11    1
    17    11    12   ar
    18    12    13   ar
    19    13    16    1
    20    16    17   ar
    21    17    18   ar
    22    18    19   ar
    23    19    20   ar
    24    20    21   ar
    25    21    22    1
    26    22    23    1
    27    22    24    1
    28    22    25    1
    29    13    14   ar
    30    14    15   ar
    31     7     8    1
    32     8     9    1
    33    28    26    1
    34    34    29   ar
    35     9     4    1
    36    15    11   ar
    37    21    16   ar
    38     3    10    1
@<TRIPOS>MOLECULE
*****
 34 38 0 0 0
SMALL
GASTEIGER

@<TRIPOS>ATOM
      1 O           6.8684   -4.8362   22.8655 O.2     1  UNL1       -0.2526
      2 C           6.1546   -3.8318   23.7210 C.2     1  UNL1        0.3039
      3 N           5.1184   -2.9321   23.1153 N.am    1  UNL1       -0.2901
      4 N           6.4770   -3.7273   25.1822 N.am    1  UNL1       -0.2642
      5 C           7.5132   -4.6271   25.7879 C.3     1  UNL1        0.0954
      6 C           7.8356   -4.5225   27.2491 C.3     1  UNL1        0.0309
      7 C           7.1218   -3.5182   28.1046 C.3     1  UNL1        0.0827
      8 C           6.0856   -2.6185   27.4990 C.3     1  UNL1        0.0309
      9 C           5.7632   -2.7230   26.0378 C.3     1  UNL1        0.0954
     10 H           4.6499   -2.2730   23.6769 H       1  UNL1        0.1509
     11 C           7.4442   -3.4137   29.5658 C.ar    1  UNL1        0.2362
     12 N           7.1915   -2.2223   30.4415 N.ar    1  UNL1       -0.1908
     13 C           7.6670   -2.5544   31.8248 C.ar    1  UNL1        0.2032
     14 N           8.2137   -3.9511   31.8041 N.ar    1  UNL1       -0.0560
     15 O           8.0759   -4.4821   30.4080 O.2     1  UNL1       -0.3370
     16 C           7.6065   -1.6489   33.0191 C.ar    1  UNL1        0.0430
     17 C           8.8692   -1.2559   33.7269 C.ar    1  UNL1        0.0031
     18 C           8.8088   -0.3503   34.9212 C.ar    1  UNL1        0.0001
     19 C           7.4857    0.1622   35.4076 C.ar    1  UNL1       -0.0001
     20 C           6.2230   -0.2308   34.6997 C.ar    1  UNL1        0.0040
     21 C           6.2834   -1.1364   33.5054 C.ar    1  UNL1        0.0745
     22 C           5.0206   -1.5294   32.7976 C.3     1  UNL1        0.4187
     23 F           3.7579   -1.9224   32.0898 F       1  UNL1       -0.1659
     24 F           5.0813   -0.2676   31.9887 F       1  UNL1       -0.1659
     25 F           4.9600   -2.7912   33.6065 F       1  UNL1       -0.1659
     26 C           4.7960   -3.0367   21.6541 C.3     1  UNL1        0.0774
     27 C           4.9295   -3.7517   20.3424 C.3     1  UNL1        0.0259
     28 C           4.1041   -2.5027   20.4351 C.3     1  UNL1        0.0420
     29 C           3.2281   -1.4732   19.7848 C.ar    1  UNL1       -0.0208
     30 C           1.9181   -1.0988   20.4123 C.ar    1  UNL1       -0.0042
     31 C           1.0421   -0.0694   19.7620 C.ar    1  UNL1       -0.0003
     32 C           1.4761    0.5857   18.4843 C.ar    1  UNL1       -0.0000
     33 C           2.7861    0.2113   17.8569 C.ar    1  UNL1       -0.0003
     34 C           3.6621   -0.8182   18.5071 C.ar    1  UNL1       -0.0042
@<TRIPOS>BOND
     1     1     2    2
     2     2     3   am
     3     3    26    1
     4    26    27    1
     5    27    28    1
     6    28    29    1
     7    29    30   ar
     8    30    31   ar
     9    31    32   ar
    10    32    33   ar
    11    33    34   ar
    12     2     4   am
    13     4     5    1
    14     5     6    1
    15     6     7    1
    16     7    11    1
    17    11    12   ar
    18    12    13   ar
    19    13    16    1
    20    16    17   ar
    21    17    18   ar
    22    18    19   ar
    23    19    20   ar
    24    20    21   ar
    25    21    22    1
    26    22    23    1
    27    22    24    1
    28    22    25    1
    29    13    14   ar
    30    14    15   ar
    31     7     8    1
    32     8     9    1
    33    28    26    1
    34    34    29   ar
    35     9     4    1
    36    15    11   ar
    37    21    16   ar
    38     3    10    1
