@<TRIPOS>MOLECULE
*****
 33 36 0 0 0
SMALL
GASTEIGER

@<TRIPOS>ATOM
      1 C          -9.5882  -17.3133   22.5368 C.ar    1  UNL1        0.1610
      2 C          -8.5495  -18.3667   22.2887 C.ar    1  UNL1        0.0754
      3 C          -8.6003  -19.1895   21.0356 C.ar    1  UNL1        0.1445
      4 C          -9.6898  -18.9591   20.0307 C.ar    1  UNL1        0.0676
      5 C         -10.7285  -17.9057   20.2788 C.ar    1  UNL1        0.1566
      6 F         -11.8179  -17.6753   19.2738 F       1  UNL1       -0.2031
      7 C         -10.6777  -17.0829   21.5319 C.ar    1  UNL1        0.1196
      8 CL        -11.7164  -16.0295   21.7801 Cl      1  UNL1       -0.0767
      9 O          -9.5374  -16.4904   23.7900 O.3     1  UNL1       -0.4524
     10 C          -5.6773  -15.6155   24.0794 C.ar    1  UNL1        0.0723
     11 C          -5.5666  -15.3023   25.5422 C.ar    1  UNL1        0.0219
     12 C          -6.7794  -15.3851   26.4209 C.ar    1  UNL1        0.0614
     13 CL         -6.6686  -15.0719   27.8836 Cl      1  UNL1       -0.0821
     14 C          -8.1030  -15.7811   25.8368 C.ar    1  UNL1        0.0489
     15 C          -8.2138  -16.0944   24.3741 C.ar    1  UNL1        0.1469
     16 C          -7.0010  -16.0116   23.4954 C.ar    1  UNL1        0.0478
     17 N          -3.2516  -15.4499   22.3220 N.1     1  UNL1       -0.1908
     18 C          -4.4644  -15.5327   23.2007 C.1     1  UNL1        0.1005
     19 O          -7.5616  -20.2428   20.7875 O.3     1  UNL1       -0.4687
     20 C          -6.2426  -19.8671   20.1797 C.3     1  UNL1        0.2527
     21 C          -5.0893  -19.4928   21.0627 C.ar    1  UNL1        0.1271
     22 N          -5.0469  -19.6158   22.5570 N.ar    1  UNL1       -0.1472
     23 N          -3.7073  -19.1288   23.0243 N.ar    1  UNL1       -0.1305
     24 C          -2.9218  -18.7048   21.8188 C.ar    1  UNL1        0.1641
     25 N          -1.5392  -18.1429   21.6683 N.ar    1  UNL1       -0.3262
     26 C          -1.0108  -17.8060   20.3056 C.ar    1  UNL1        0.1037
     27 N           0.3719  -17.2441   20.1551 N.pl3   1  UNL1       -0.3441
     28 C          -1.8650  -18.0310   19.0932 C.ar    1  UNL1        0.0321
     29 C          -3.2476  -18.5928   19.2436 C.ar    1  UNL1        0.0072
     30 C          -3.7760  -18.9298   20.6064 C.ar    1  UNL1        0.0547
     31 H          -0.9786  -17.9953   22.4640 H       1  UNL1        0.1686
     32 H           0.9325  -17.0965   20.9508 H       1  UNL1        0.1437
     33 H           0.7187  -17.0230   19.2606 H       1  UNL1        0.1437
@<TRIPOS>BOND
     1    17    18    3
     2    18    10    1
     3    10    11   ar
     4    11    12   ar
     5    12    13    1
     6    12    14   ar
     7    14    15   ar
     8    15     9    1
     9     9     1    1
    10     1     2   ar
    11     2     3   ar
    12     3    19    1
    13    19    20    1
    14    20    21    1
    15    21    22   ar
    16    22    23   ar
    17    23    24   ar
    18    24    25   ar
    19    25    26   ar
    20    26    27    1
    21    26    28   ar
    22    28    29   ar
    23    29    30   ar
    24     3     4   ar
    25     4     5   ar
    26     5     6    1
    27     5     7   ar
    28     7     8    1
    29    15    16   ar
    30    16    10   ar
    31     7     1   ar
    32    30    21   ar
    33    30    24    1
    34    25    31    1
    35    27    32    1
    36    27    33    1
@<TRIPOS>MOLECULE
*****
 33 36 0 0 0
SMALL
GASTEIGER

@<TRIPOS>ATOM
      1 C          -4.6031  -19.0064   21.2201 C.ar    1  UNL1        0.1610
      2 C          -4.9115  -18.3733   22.5445 C.ar    1  UNL1        0.0754
      3 C          -3.9331  -17.4218   23.1668 C.ar    1  UNL1        0.1445
      4 C          -2.6464  -17.1034   22.4648 C.ar    1  UNL1        0.0676
      5 C          -2.3379  -17.7365   21.1404 C.ar    1  UNL1        0.1566
      6 F          -1.0512  -17.4180   20.4384 F       1  UNL1       -0.2031
      7 C          -3.3163  -18.6880   20.5181 C.ar    1  UNL1        0.1196
      8 CL         -3.0080  -19.3211   19.1936 Cl      1  UNL1       -0.0767
      9 O          -5.5815  -19.9580   20.5976 O.3     1  UNL1       -0.4524
     10 C          -9.0027  -19.7417   22.5971 C.ar    1  UNL1        0.0723
     11 C          -9.9774  -19.5569   21.4721 C.ar    1  UNL1        0.0219
     12 C          -9.4869  -19.5058   20.0555 C.ar    1  UNL1        0.0614
     13 CL        -10.4616  -19.3210   18.9304 Cl      1  UNL1       -0.0821
     14 C          -8.0215  -19.6395   19.7640 C.ar    1  UNL1        0.0489
     15 C          -7.0468  -19.8243   20.8891 C.ar    1  UNL1        0.1469
     16 C          -7.5374  -19.8754   22.3057 C.ar    1  UNL1        0.0478
     17 N          -9.9840  -19.8440   25.4304 N.1     1  UNL1       -0.1908
     18 C          -9.4934  -19.7928   24.0138 C.1     1  UNL1        0.1005
     19 O          -4.2416  -16.7887   24.4912 O.3     1  UNL1       -0.4687
     20 C          -5.0709  -15.5401   24.5507 C.3     1  UNL1        0.2527
     21 C          -6.5274  -15.6231   24.8998 C.ar    1  UNL1        0.1271
     22 N          -7.1098  -15.5348   26.2793 N.ar    1  UNL1       -0.1472
     23 N          -8.5995  -15.6661   26.1627 N.ar    1  UNL1       -0.1305
     24 C          -8.9377  -15.8355   24.7112 C.ar    1  UNL1        0.1641
     25 N         -10.2464  -16.0106   23.9994 N.ar    1  UNL1       -0.3262
     26 C         -10.2744  -16.1591   22.5070 C.ar    1  UNL1        0.1037
     27 N         -11.5831  -16.3342   21.7951 N.pl3   1  UNL1       -0.3441
     28 C          -8.9937  -16.1326   21.7265 C.ar    1  UNL1        0.0321
     29 C          -7.6851  -15.9575   22.4383 C.ar    1  UNL1        0.0072
     30 C          -7.6571  -15.8090   23.9307 C.ar    1  UNL1        0.0547
     31 H         -11.0869  -16.0280   24.5117 H       1  UNL1        0.1686
     32 H         -12.4236  -16.3516   22.3074 H       1  UNL1        0.1437
     33 H         -11.6014  -16.4317   20.8156 H       1  UNL1        0.1437
@<TRIPOS>BOND
     1    17    18    3
     2    18    10    1
     3    10    11   ar
     4    11    12   ar
     5    12    13    1
     6    12    14   ar
     7    14    15   ar
     8    15     9    1
     9     9     1    1
    10     1     2   ar
    11     2     3   ar
    12     3    19    1
    13    19    20    1
    14    20    21    1
    15    21    22   ar
    16    22    23   ar
    17    23    24   ar
    18    24    25   ar
    19    25    26   ar
    20    26    27    1
    21    26    28   ar
    22    28    29   ar
    23    29    30   ar
    24     3     4   ar
    25     4     5   ar
    26     5     6    1
    27     5     7   ar
    28     7     8    1
    29    15    16   ar
    30    16    10   ar
    31     7     1   ar
    32    30    21   ar
    33    30    24    1
    34    25    31    1
    35    27    32    1
    36    27    33    1
@<TRIPOS>MOLECULE
*****
 33 36 0 0 0
SMALL
GASTEIGER

@<TRIPOS>ATOM
      1 C          -6.0241  -16.2124   23.9766 C.ar    1  UNL1        0.1610
      2 C          -6.8335  -16.0102   22.7300 C.ar    1  UNL1        0.0754
      3 C          -8.2241  -15.4553   22.8205 C.ar    1  UNL1        0.1445
      4 C          -8.8053  -15.1024   24.1575 C.ar    1  UNL1        0.0676
      5 C          -7.9959  -15.3046   25.4041 C.ar    1  UNL1        0.1566
      6 F          -8.5771  -14.9517   26.7412 F       1  UNL1       -0.2031
      7 C          -6.6053  -15.8595   25.3136 C.ar    1  UNL1        0.1196
      8 CL         -5.7958  -16.0617   26.5602 Cl      1  UNL1       -0.0767
      9 O          -4.6334  -16.7674   23.8861 O.3     1  UNL1       -0.4524
     10 C          -2.6012  -18.6922   21.0729 C.ar    1  UNL1        0.0723
     11 C          -3.6000  -19.7341   20.6643 C.ar    1  UNL1        0.0219
     12 C          -4.9433  -19.7871   21.3297 C.ar    1  UNL1        0.0614
     13 CL         -5.9421  -20.8289   20.9212 Cl      1  UNL1       -0.0821
     14 C          -5.2877  -18.7982   22.4036 C.ar    1  UNL1        0.0489
     15 C          -4.2889  -17.7563   22.8122 C.ar    1  UNL1        0.1469
     16 C          -2.9456  -17.7033   22.1468 C.ar    1  UNL1        0.0478
     17 N           0.0855  -18.5863   19.7420 N.1     1  UNL1       -0.1908
     18 C          -1.2578  -18.6393   20.4074 C.1     1  UNL1        0.1005
     19 O          -9.0334  -15.2531   21.5739 O.3     1  UNL1       -0.4687
     20 C         -10.0701  -16.2635   21.1806 C.3     1  UNL1        0.2527
     21 C         -10.7831  -17.0561   22.2358 C.ar    1  UNL1        0.1271
     22 N         -12.1265  -16.7363   22.8217 N.ar    1  UNL1       -0.1472
     23 N         -12.4515  -17.7902   23.8383 N.ar    1  UNL1       -0.1305
     24 C         -11.3091  -18.7614   23.8808 C.ar    1  UNL1        0.1641
     25 N         -11.0745  -20.0001   24.6934 N.ar    1  UNL1       -0.3262
     26 C          -9.8089  -20.7852   24.5156 C.ar    1  UNL1        0.1037
     27 N          -9.5743  -22.0241   25.3282 N.pl3   1  UNL1       -0.3441
     28 C          -8.7777  -20.3315   23.5252 C.ar    1  UNL1        0.0321
     29 C          -9.0123  -19.0927   22.7126 C.ar    1  UNL1        0.0072
     30 C         -10.2780  -18.3077   22.8904 C.ar    1  UNL1        0.0547
     31 H         -11.7513  -20.2979   25.3435 H       1  UNL1        0.1686
     32 H         -10.2510  -22.3219   25.9783 H       1  UNL1        0.1437
     33 H          -8.7435  -22.5394   25.2115 H       1  UNL1        0.1437
@<TRIPOS>BOND
     1    17    18    3
     2    18    10    1
     3    10    11   ar
     4    11    12   ar
     5    12    13    1
     6    12    14   ar
     7    14    15   ar
     8    15     9    1
     9     9     1    1
    10     1     2   ar
    11     2     3   ar
    12     3    19    1
    13    19    20    1
    14    20    21    1
    15    21    22   ar
    16    22    23   ar
    17    23    24   ar
    18    24    25   ar
    19    25    26   ar
    20    26    27    1
    21    26    28   ar
    22    28    29   ar
    23    29    30   ar
    24     3     4   ar
    25     4     5   ar
    26     5     6    1
    27     5     7   ar
    28     7     8    1
    29    15    16   ar
    30    16    10   ar
    31     7     1   ar
    32    30    21   ar
    33    30    24    1
    34    25    31    1
    35    27    32    1
    36    27    33    1
@<TRIPOS>MOLECULE
*****
 33 36 0 0 0
SMALL
GASTEIGER

@<TRIPOS>ATOM
      1 C          -5.6956  -16.4236   23.9519 C.ar    1  UNL1        0.1610
      2 C          -6.6037  -16.4636   22.7587 C.ar    1  UNL1        0.0754
      3 C          -8.0013  -15.9289   22.8616 C.ar    1  UNL1        0.1445
      4 C          -8.4909  -15.3542   24.1578 C.ar    1  UNL1        0.0676
      5 C          -7.5829  -15.3142   25.3510 C.ar    1  UNL1        0.1566
      6 F          -8.0725  -14.7395   26.6471 F       1  UNL1       -0.2031
      7 C          -6.1852  -15.8489   25.2480 C.ar    1  UNL1        0.1196
      8 CL         -5.2771  -15.8089   26.4413 Cl      1  UNL1       -0.0767
      9 O          -4.2978  -16.9583   23.8490 O.3     1  UNL1       -0.4524
     10 C          -2.2266  -18.6788   20.9337 C.ar    1  UNL1        0.0723
     11 C          -3.1929  -19.7343   20.4841 C.ar    1  UNL1        0.0219
     12 C          -4.5275  -19.8645   21.1562 C.ar    1  UNL1        0.0614
     13 CL         -5.4939  -20.9201   20.7067 Cl      1  UNL1       -0.0821
     14 C          -4.8959  -18.9392   22.2778 C.ar    1  UNL1        0.0489
     15 C          -3.9295  -17.8837   22.7274 C.ar    1  UNL1        0.1469
     16 C          -2.5949  -17.7534   22.0553 C.ar    1  UNL1        0.0478
     17 N           0.4428  -18.4185   19.5894 N.1     1  UNL1       -0.1908
     18 C          -0.8918  -18.5486   20.2615 C.1     1  UNL1        0.1005
     19 O          -8.9094  -15.9690   21.6684 O.3     1  UNL1       -0.4687
     20 C          -9.7129  -17.2021   21.3784 C.3     1  UNL1        0.2527
     21 C         -10.1227  -18.1110   22.4991 C.ar    1  UNL1        0.1271
     22 N          -9.3015  -19.2264   23.0748 N.ar    1  UNL1       -0.1472
     23 N         -10.0970  -19.8688   24.1723 N.ar    1  UNL1       -0.1305
     24 C         -11.4098  -19.1504   24.2749 C.ar    1  UNL1        0.1641
     25 N         -12.5928  -19.3451   25.1763 N.ar    1  UNL1       -0.3262
     26 C         -13.7916  -18.4534   25.0436 C.ar    1  UNL1        0.1037
     27 N         -14.9747  -18.6481   25.9451 N.pl3   1  UNL1       -0.3441
     28 C         -13.8075  -17.3670   24.0094 C.ar    1  UNL1        0.0321
     29 C         -12.6245  -17.1723   23.1080 C.ar    1  UNL1        0.0072
     30 C         -11.4257  -18.0640   23.2407 C.ar    1  UNL1        0.0547
     31 H         -12.5823  -20.0581   25.8551 H       1  UNL1        0.1686
     32 H         -14.9643  -19.3612   26.6238 H       1  UNL1        0.1437
     33 H         -15.7615  -18.0629   25.8579 H       1  UNL1        0.1437
@<TRIPOS>BOND
     1    17    18    3
     2    18    10    1
     3    10    11   ar
     4    11    12   ar
     5    12    13    1
     6    12    14   ar
     7    14    15   ar
     8    15     9    1
     9     9     1    1
    10     1     2   ar
    11     2     3   ar
    12     3    19    1
    13    19    20    1
    14    20    21    1
    15    21    22   ar
    16    22    23   ar
    17    23    24   ar
    18    24    25   ar
    19    25    26   ar
    20    26    27    1
    21    26    28   ar
    22    28    29   ar
    23    29    30   ar
    24     3     4   ar
    25     4     5   ar
    26     5     6    1
    27     5     7   ar
    28     7     8    1
    29    15    16   ar
    30    16    10   ar
    31     7     1   ar
    32    30    21   ar
    33    30    24    1
    34    25    31    1
    35    27    32    1
    36    27    33    1
@<TRIPOS>MOLECULE
*****
 33 36 0 0 0
SMALL
GASTEIGER

@<TRIPOS>ATOM
      1 C          -5.6640  -16.1830   23.9553 C.ar    1  UNL1        0.1610
      2 C          -6.5331  -16.2952   22.7379 C.ar    1  UNL1        0.0754
      3 C          -7.9857  -15.9297   22.8172 C.ar    1  UNL1        0.1445
      4 C          -8.5692  -15.4520   24.1138 C.ar    1  UNL1        0.0676
      5 C          -7.7002  -15.3397   25.3312 C.ar    1  UNL1        0.1566
      6 F          -8.2837  -14.8620   26.6278 F       1  UNL1       -0.2031
      7 C          -6.2476  -15.7053   25.2520 C.ar    1  UNL1        0.1196
      8 CL         -5.3784  -15.5930   26.4694 Cl      1  UNL1       -0.0767
      9 O          -4.2113  -16.5485   23.8761 O.3     1  UNL1       -0.4524
     10 C          -4.0654  -19.3934   21.1131 C.ar    1  UNL1        0.0723
     11 C          -2.7209  -19.1277   20.5033 C.ar    1  UNL1        0.0219
     12 C          -1.8732  -18.0023   21.0178 C.ar    1  UNL1        0.0614
     13 CL         -0.5287  -17.7366   20.4081 Cl      1  UNL1       -0.0821
     14 C          -2.3700  -17.1426   22.1421 C.ar    1  UNL1        0.0489
     15 C          -3.7145  -17.4083   22.7518 C.ar    1  UNL1        0.1469
     16 C          -4.5622  -18.5337   22.2373 C.ar    1  UNL1        0.0478
     17 N          -5.7608  -21.6444   20.0839 N.1     1  UNL1       -0.1908
     18 C          -4.9131  -20.5190   20.5985 C.1     1  UNL1        0.1005
     19 O          -8.8548  -16.0419   21.5997 O.3     1  UNL1       -0.4687
     20 C          -9.6236  -17.3037   21.3408 C.3     1  UNL1        0.2527
     21 C         -10.0463  -18.1732   22.4877 C.ar    1  UNL1        0.1271
     22 N          -9.2299  -19.2644   23.1145 N.ar    1  UNL1       -0.1472
     23 N         -10.0388  -19.8696   24.2233 N.ar    1  UNL1       -0.1305
     24 C         -11.3550  -19.1526   24.2817 C.ar    1  UNL1        0.1641
     25 N         -12.5498  -19.3188   25.1731 N.ar    1  UNL1       -0.3262
     26 C         -13.7493  -18.4367   24.9919 C.ar    1  UNL1        0.1037
     27 N         -14.9442  -18.6029   25.8833 N.pl3   1  UNL1       -0.3441
     28 C         -13.7539  -17.3882   23.9192 C.ar    1  UNL1        0.0321
     29 C         -12.5591  -17.2219   23.0278 C.ar    1  UNL1        0.0072
     30 C         -11.3596  -18.1041   23.2091 C.ar    1  UNL1        0.0547
     31 H         -12.5467  -20.0070   25.8772 H       1  UNL1        0.1686
     32 H         -14.9412  -19.2911   26.5873 H       1  UNL1        0.1437
     33 H         -15.7315  -18.0239   25.7643 H       1  UNL1        0.1437
@<TRIPOS>BOND
     1    17    18    3
     2    18    10    1
     3    10    11   ar
     4    11    12   ar
     5    12    13    1
     6    12    14   ar
     7    14    15   ar
     8    15     9    1
     9     9     1    1
    10     1     2   ar
    11     2     3   ar
    12     3    19    1
    13    19    20    1
    14    20    21    1
    15    21    22   ar
    16    22    23   ar
    17    23    24   ar
    18    24    25   ar
    19    25    26   ar
    20    26    27    1
    21    26    28   ar
    22    28    29   ar
    23    29    30   ar
    24     3     4   ar
    25     4     5   ar
    26     5     6    1
    27     5     7   ar
    28     7     8    1
    29    15    16   ar
    30    16    10   ar
    31     7     1   ar
    32    30    21   ar
    33    30    24    1
    34    25    31    1
    35    27    32    1
    36    27    33    1
@<TRIPOS>MOLECULE
*****
 33 36 0 0 0
SMALL
GASTEIGER

@<TRIPOS>ATOM
      1 C          -5.9857  -16.0638   24.1240 C.ar    1  UNL1        0.1610
      2 C          -6.7313  -15.8835   22.8350 C.ar    1  UNL1        0.0754
      3 C          -8.1578  -15.4202   22.8523 C.ar    1  UNL1        0.1445
      4 C          -8.8387  -15.1371   24.1585 C.ar    1  UNL1        0.0676
      5 C          -8.0931  -15.3173   25.4475 C.ar    1  UNL1        0.1566
      6 F          -8.7740  -15.0342   26.7537 F       1  UNL1       -0.2031
      7 C          -6.6666  -15.7807   25.4302 C.ar    1  UNL1        0.1196
      8 CL         -5.9209  -15.9609   26.7192 Cl      1  UNL1       -0.0767
      9 O          -4.5590  -16.5271   24.1068 O.3     1  UNL1       -0.4524
     10 C          -4.4045  -19.3106   21.2823 C.ar    1  UNL1        0.0723
     11 C          -3.0513  -19.0421   20.6935 C.ar    1  UNL1        0.0219
     12 C          -2.2007  -17.9353   21.2423 C.ar    1  UNL1        0.0614
     13 CL         -0.8475  -17.6668   20.6535 Cl      1  UNL1       -0.0821
     14 C          -2.7033  -17.0970   22.3802 C.ar    1  UNL1        0.0489
     15 C          -4.0565  -17.3655   22.9690 C.ar    1  UNL1        0.1469
     16 C          -4.9071  -18.4723   22.4201 C.ar    1  UNL1        0.0478
     17 N          -6.1058  -21.5243   20.1844 N.1     1  UNL1       -0.1908
     18 C          -5.2552  -20.4175   20.7333 C.1     1  UNL1        0.1005
     19 O          -8.9034  -15.2400   21.5633 O.3     1  UNL1       -0.4687
     20 C          -9.9552  -16.2307   21.1603 C.3     1  UNL1        0.2527
     21 C         -10.6895  -17.0131   22.2086 C.ar    1  UNL1        0.1271
     22 N         -12.0315  -16.6716   22.7850 N.ar    1  UNL1       -0.1472
     23 N         -12.3820  -17.7218   23.7971 N.ar    1  UNL1       -0.1305
     24 C         -11.2566  -18.7123   23.8462 C.ar    1  UNL1        0.1641
     25 N         -11.0492  -19.9564   24.6580 N.ar    1  UNL1       -0.3262
     26 C          -9.7957  -20.7625   24.4881 C.ar    1  UNL1        0.1037
     27 N          -9.5883  -22.0067   25.2999 N.pl3   1  UNL1       -0.3441
     28 C          -8.7496  -20.3245   23.5063 C.ar    1  UNL1        0.0321
     29 C          -8.9570  -19.0804   22.6945 C.ar    1  UNL1        0.0072
     30 C         -10.2105  -18.2742   22.8644 C.ar    1  UNL1        0.0547
     31 H         -11.7358  -20.2438   25.3024 H       1  UNL1        0.1686
     32 H         -10.2748  -22.2942   25.9443 H       1  UNL1        0.1437
     33 H          -8.7655  -22.5358   25.1884 H       1  UNL1        0.1437
@<TRIPOS>BOND
     1    17    18    3
     2    18    10    1
     3    10    11   ar
     4    11    12   ar
     5    12    13    1
     6    12    14   ar
     7    14    15   ar
     8    15     9    1
     9     9     1    1
    10     1     2   ar
    11     2     3   ar
    12     3    19    1
    13    19    20    1
    14    20    21    1
    15    21    22   ar
    16    22    23   ar
    17    23    24   ar
    18    24    25   ar
    19    25    26   ar
    20    26    27    1
    21    26    28   ar
    22    28    29   ar
    23    29    30   ar
    24     3     4   ar
    25     4     5   ar
    26     5     6    1
    27     5     7   ar
    28     7     8    1
    29    15    16   ar
    30    16    10   ar
    31     7     1   ar
    32    30    21   ar
    33    30    24    1
    34    25    31    1
    35    27    32    1
    36    27    33    1
@<TRIPOS>MOLECULE
*****
 33 36 0 0 0
SMALL
GASTEIGER

@<TRIPOS>ATOM
      1 C          -6.3779  -15.9655   24.6001 C.ar    1  UNL1        0.1610
      2 C          -7.6570  -16.7332   24.4430 C.ar    1  UNL1        0.0754
      3 C          -8.6072  -16.8515   25.5975 C.ar    1  UNL1        0.1445
      4 C          -8.2785  -16.2021   26.9091 C.ar    1  UNL1        0.0676
      5 C          -6.9994  -15.4345   27.0662 C.ar    1  UNL1        0.1566
      6 F          -6.6707  -14.7851   28.3778 F       1  UNL1       -0.2031
      7 C          -6.0492  -15.3161   25.9117 C.ar    1  UNL1        0.1196
      8 CL         -4.7701  -14.5484   26.0687 Cl      1  UNL1       -0.0767
      9 O          -5.4276  -15.8471   23.4455 O.3     1  UNL1       -0.4524
     10 C          -2.9364  -18.3346   21.6135 C.ar    1  UNL1        0.0723
     11 C          -3.7993  -19.5545   21.4824 C.ar    1  UNL1        0.0219
     12 C          -5.2050  -19.5387   22.0057 C.ar    1  UNL1        0.0614
     13 CL         -6.0679  -20.7586   21.8747 Cl      1  UNL1       -0.0821
     14 C          -5.7477  -18.3028   22.6601 C.ar    1  UNL1        0.0489
     15 C          -4.8848  -17.0829   22.7911 C.ar    1  UNL1        0.1469
     16 C          -3.4792  -17.0987   22.2679 C.ar    1  UNL1        0.0478
     17 N          -0.1250  -18.3663   20.5669 N.1     1  UNL1       -0.1908
     18 C          -1.5307  -18.3504   21.0902 C.1     1  UNL1        0.1005
     19 O          -9.8863  -17.6192   25.4404 O.3     1  UNL1       -0.4687
     20 C          -9.9022  -18.8975   24.6557 C.3     1  UNL1        0.2527
     21 C          -9.8742  -18.8577   23.1565 C.ar    1  UNL1        0.1271
     22 N          -9.0706  -19.7577   22.2654 N.ar    1  UNL1       -0.1472
     23 N          -9.3447  -19.3670   20.8434 N.ar    1  UNL1       -0.1305
     24 C         -10.3177  -18.2255   20.8556 C.ar    1  UNL1        0.1641
     25 N         -10.9480  -17.4320   19.7497 N.ar    1  UNL1       -0.3262
     26 C         -11.9056  -16.3237   20.0733 C.ar    1  UNL1        0.1037
     27 N         -12.5359  -15.5302   18.9674 N.pl3   1  UNL1       -0.3441
     28 C         -12.2328  -16.0089   21.5030 C.ar    1  UNL1        0.0321
     29 C         -11.6026  -16.8024   22.6089 C.ar    1  UNL1        0.0072
     30 C         -10.6450  -17.9107   22.2852 C.ar    1  UNL1        0.0547
     31 H         -10.7332  -17.6386   18.8114 H       1  UNL1        0.1686
     32 H         -12.3211  -15.7368   18.0291 H       1  UNL1        0.1437
     33 H         -13.1644  -14.8028   19.1798 H       1  UNL1        0.1437
@<TRIPOS>BOND
     1    17    18    3
     2    18    10    1
     3    10    11   ar
     4    11    12   ar
     5    12    13    1
     6    12    14   ar
     7    14    15   ar
     8    15     9    1
     9     9     1    1
    10     1     2   ar
    11     2     3   ar
    12     3    19    1
    13    19    20    1
    14    20    21    1
    15    21    22   ar
    16    22    23   ar
    17    23    24   ar
    18    24    25   ar
    19    25    26   ar
    20    26    27    1
    21    26    28   ar
    22    28    29   ar
    23    29    30   ar
    24     3     4   ar
    25     4     5   ar
    26     5     6    1
    27     5     7   ar
    28     7     8    1
    29    15    16   ar
    30    16    10   ar
    31     7     1   ar
    32    30    21   ar
    33    30    24    1
    34    25    31    1
    35    27    32    1
    36    27    33    1
@<TRIPOS>MOLECULE
*****
 33 36 0 0 0
SMALL
GASTEIGER

@<TRIPOS>ATOM
      1 C          -9.7682  -18.3469   22.4351 C.ar    1  UNL1        0.1610
      2 C          -8.7920  -19.2230   21.7074 C.ar    1  UNL1        0.0754
      3 C          -8.8874  -19.3765   20.2184 C.ar    1  UNL1        0.1445
      4 C          -9.9589  -18.6539   19.4570 C.ar    1  UNL1        0.0676
      5 C         -10.9351  -17.7777   20.1847 C.ar    1  UNL1        0.1566
      6 F         -12.0066  -17.0551   19.4233 F       1  UNL1       -0.2031
      7 C         -10.8397  -17.6243   21.6737 C.ar    1  UNL1        0.1196
      8 CL        -11.8158  -16.7481   22.4015 Cl      1  UNL1       -0.0767
      9 O          -9.6728  -18.1933   23.9243 O.3     1  UNL1       -0.4524
     10 C          -6.6781  -15.6220   24.3357 C.ar    1  UNL1        0.0723
     11 C          -6.9724  -15.0592   25.6946 C.ar    1  UNL1        0.0219
     12 C          -8.1668  -15.5411   26.4635 C.ar    1  UNL1        0.0614
     13 CL         -8.4610  -14.9783   27.8224 Cl      1  UNL1       -0.0821
     14 C          -9.0669  -16.5858   25.8733 C.ar    1  UNL1        0.0489
     15 C          -8.7727  -17.1486   24.5144 C.ar    1  UNL1        0.1469
     16 C          -7.5783  -16.6667   23.7456 C.ar    1  UNL1        0.0478
     17 N          -4.2892  -14.6580   22.7981 N.1     1  UNL1       -0.1908
     18 C          -5.4836  -15.1400   23.5669 C.1     1  UNL1        0.1005
     19 O          -7.9113  -20.2526   19.4907 O.3     1  UNL1       -0.4687
     20 C          -6.8972  -21.0461   20.2603 C.3     1  UNL1        0.2527
     21 C          -5.4486  -20.6601   20.2114 C.ar    1  UNL1        0.1271
     22 N          -4.4626  -21.0676   19.1570 N.ar    1  UNL1       -0.1472
     23 N          -3.1363  -20.4581   19.5023 N.ar    1  UNL1       -0.1305
     24 C          -3.3024  -19.6739   20.7701 C.ar    1  UNL1        0.1641
     25 N          -2.3371  -18.8623   21.5821 N.ar    1  UNL1       -0.3262
     26 C          -2.8008  -18.1755   22.8323 C.ar    1  UNL1        0.1037
     27 N          -1.8355  -17.3638   23.6444 N.pl3   1  UNL1       -0.3441
     28 C          -4.2299  -18.3003   23.2706 C.ar    1  UNL1        0.0321
     29 C          -5.1953  -19.1119   22.4586 C.ar    1  UNL1        0.0072
     30 C          -4.7315  -19.7987   21.2084 C.ar    1  UNL1        0.0547
     31 H          -1.3991  -18.7804   21.2944 H       1  UNL1        0.1686
     32 H          -0.8975  -17.2819   23.3567 H       1  UNL1        0.1437
     33 H          -2.1399  -16.9130   24.4650 H       1  UNL1        0.1437
@<TRIPOS>BOND
     1    17    18    3
     2    18    10    1
     3    10    11   ar
     4    11    12   ar
     5    12    13    1
     6    12    14   ar
     7    14    15   ar
     8    15     9    1
     9     9     1    1
    10     1     2   ar
    11     2     3   ar
    12     3    19    1
    13    19    20    1
    14    20    21    1
    15    21    22   ar
    16    22    23   ar
    17    23    24   ar
    18    24    25   ar
    19    25    26   ar
    20    26    27    1
    21    26    28   ar
    22    28    29   ar
    23    29    30   ar
    24     3     4   ar
    25     4     5   ar
    26     5     6    1
    27     5     7   ar
    28     7     8    1
    29    15    16   ar
    30    16    10   ar
    31     7     1   ar
    32    30    21   ar
    33    30    24    1
    34    25    31    1
    35    27    32    1
    36    27    33    1
@<TRIPOS>MOLECULE
*****
 33 36 0 0 0
SMALL
GASTEIGER

@<TRIPOS>ATOM
      1 C          -4.5474  -16.7288   24.3974 C.ar    1  UNL1        0.1610
      2 C          -5.4655  -16.0389   23.4324 C.ar    1  UNL1        0.0754
      3 C          -6.6687  -15.3006   23.9394 C.ar    1  UNL1        0.1445
      4 C          -6.9539  -15.2520   25.4112 C.ar    1  UNL1        0.0676
      5 C          -6.0357  -15.9419   26.3762 C.ar    1  UNL1        0.1566
      6 F          -6.3209  -15.8934   27.8480 F       1  UNL1       -0.2031
      7 C          -4.8325  -16.6802   25.8692 C.ar    1  UNL1        0.1196
      8 CL         -3.9143  -17.3701   26.8342 Cl      1  UNL1       -0.0767
      9 O          -3.3440  -17.4672   23.8905 O.3     1  UNL1       -0.4524
     10 C          -4.2956  -19.6689   20.7288 C.ar    1  UNL1        0.0723
     11 C          -3.3259  -19.1409   19.7134 C.ar    1  UNL1        0.0219
     12 C          -2.3623  -18.0550   20.0904 C.ar    1  UNL1        0.0614
     13 CL         -1.3926  -17.5270   19.0751 Cl      1  UNL1       -0.0821
     14 C          -2.3683  -17.4971   21.4828 C.ar    1  UNL1        0.0489
     15 C          -3.3380  -18.0251   22.4981 C.ar    1  UNL1        0.1469
     16 C          -4.3017  -19.1110   22.1212 C.ar    1  UNL1        0.0478
     17 N          -6.2230  -21.8407   19.9747 N.1     1  UNL1       -0.1908
     18 C          -5.2593  -20.7548   20.3517 C.1     1  UNL1        0.1005
     19 O          -7.5868  -14.6107   22.9744 O.3     1  UNL1       -0.4687
     20 C          -8.3621  -15.4136   21.9721 C.3     1  UNL1        0.2527
     21 C          -8.2840  -16.9115   21.9891 C.ar    1  UNL1        0.1271
     22 N          -7.5666  -17.7684   20.9887 N.ar    1  UNL1       -0.1472
     23 N          -7.7488  -19.2020   21.3909 N.ar    1  UNL1       -0.1305
     24 C          -8.5789  -19.2310   22.6400 C.ar    1  UNL1        0.1641
     25 N          -9.0763  -20.3635   23.4884 N.ar    1  UNL1       -0.3262
     26 C          -9.9044  -20.0805   24.7066 C.ar    1  UNL1        0.1037
     27 N         -10.4018  -21.2130   25.5552 N.pl3   1  UNL1       -0.3441
     28 C         -10.2351  -18.6649   25.0764 C.ar    1  UNL1        0.0321
     29 C          -9.7378  -17.5323   24.2279 C.ar    1  UNL1        0.0072
     30 C          -8.9096  -17.8154   23.0097 C.ar    1  UNL1        0.0547
     31 H          -8.8592  -21.2926   23.2458 H       1  UNL1        0.1686
     32 H         -10.1848  -22.1421   25.3125 H       1  UNL1        0.1437
     33 H         -10.9454  -21.0272   26.3547 H       1  UNL1        0.1437
@<TRIPOS>BOND
     1    17    18    3
     2    18    10    1
     3    10    11   ar
     4    11    12   ar
     5    12    13    1
     6    12    14   ar
     7    14    15   ar
     8    15     9    1
     9     9     1    1
    10     1     2   ar
    11     2     3   ar
    12     3    19    1
    13    19    20    1
    14    20    21    1
    15    21    22   ar
    16    22    23   ar
    17    23    24   ar
    18    24    25   ar
    19    25    26   ar
    20    26    27    1
    21    26    28   ar
    22    28    29   ar
    23    29    30   ar
    24     3     4   ar
    25     4     5   ar
    26     5     6    1
    27     5     7   ar
    28     7     8    1
    29    15    16   ar
    30    16    10   ar
    31     7     1   ar
    32    30    21   ar
    33    30    24    1
    34    25    31    1
    35    27    32    1
    36    27    33    1
