@<TRIPOS>MOLECULE
*****
 37 40 0 0 0
SMALL
GASTEIGER

@<TRIPOS>ATOM
      1 C          -6.1159  -19.1559   21.8951 C.ar    1  UNL1        0.0596
      2 C          -7.3327  -18.5098   22.4883 C.ar    1  UNL1        0.0373
      3 C          -7.2004  -17.2354   23.2682 C.ar    1  UNL1        0.0782
      4 N          -5.8513  -16.6070   23.4549 N.ar    1  UNL1       -0.2479
      5 C          -4.6344  -17.2530   22.8617 C.ar    1  UNL1        0.0833
      6 C          -3.2852  -16.6247   23.0484 C.ar    1  UNL1        0.0192
      7 C          -2.0684  -17.2707   22.4552 C.ar    1  UNL1        0.0038
      8 C          -2.2007  -18.5452   21.6753 C.ar    1  UNL1        0.0297
      9 C          -3.5499  -19.1736   21.4886 C.ar    1  UNL1        0.1417
     10 F          -3.6822  -20.4480   20.7087 F       1  UNL1       -0.2041
     11 C          -4.7667  -18.5275   22.0818 C.ar    1  UNL1        0.0495
     12 C          -8.6820  -19.1382   22.3016 C.ar    1  UNL1        0.0826
     13 C          -9.3372  -19.8603   23.4415 C.ar    1  UNL1        0.0192
     14 C         -10.6863  -20.4887   23.2548 C.ar    1  UNL1        0.0031
     15 C         -11.3803  -20.3950   21.9283 C.ar    1  UNL1        0.0207
     16 C         -10.7250  -19.6729   20.7885 C.ar    1  UNL1        0.0988
     17 N          -9.3759  -19.0445   20.9751 N.ar    1  UNL1       -0.2438
     18 C          -6.8893  -21.6714   18.9246 C.3     1  UNL1        0.1109
     19 N          -6.7570  -20.3970   19.7045 N.am    1  UNL1       -0.2992
     20 C          -6.2482  -20.4304   21.1152 C.2     1  UNL1        0.2461
     21 O          -5.8718  -21.7382   21.7460 O.2     1  UNL1       -0.2701
     22 H          -7.0040  -19.5386   19.2905 H       1  UNL1        0.1498
     23 C          -8.4173  -16.5893   23.8614 C.3     1  UNL1        0.1110
     24 C          -8.8213  -16.9035   25.2714 C.3     1  UNL1        0.0278
     25 N          -9.2302  -15.6291   23.0446 N.pl3   1  UNL1       -0.3141
     26 H          -8.9269  -14.6993   22.9318 H       1  UNL1        0.1485
     27 C         -10.5052  -16.0856   22.3997 C.ar    1  UNL1        0.1429
     28 N         -11.4331  -17.0033   23.1392 N.ar    1  UNL1       -0.2084
     29 C         -12.7081  -17.4597   22.4943 C.ar    1  UNL1        0.2012
     30 N         -13.0552  -16.9985   21.1098 N.ar    1  UNL1       -0.2087
     31 C         -12.1274  -16.0809   20.3703 C.ar    1  UNL1        0.1396
     32 N         -12.4745  -15.6197   18.9858 N.pl3   1  UNL1       -0.3420
     33 C         -10.8523  -15.6244   21.0152 C.ar    1  UNL1        0.1308
     34 H         -13.3114  -15.9193   18.5625 H       1  UNL1        0.1437
     35 H         -11.8655  -15.0174   18.5004 H       1  UNL1        0.1437
     36 C          -9.9245  -14.7067   20.2757 C.1     1  UNL1        0.1061
     37 N          -8.9966  -13.7891   19.5361 N.1     1  UNL1       -0.1906
@<TRIPOS>BOND
     1    18    19    1
     2    19    20   am
     3    20    21    2
     4    20     1    1
     5     1     2   ar
     6     2    12    1
     7    12    13   ar
     8    13    14   ar
     9    14    15   ar
    10    15    16   ar
    11    16    17   ar
    12     2     3   ar
    13     3    23    1
    14    23    24    1
    15    23    25    1
    16    25    27    1
    17    27    28   ar
    18    28    29   ar
    19    29    30   ar
    20    30    31   ar
    21    31    32    1
    22    31    33   ar
    23    33    36    1
    24    36    37    3
    25     3     4   ar
    26     4     5   ar
    27     5     6   ar
    28     6     7   ar
    29     7     8   ar
    30     8     9   ar
    31     9    10    1
    32     9    11   ar
    33    11     1   ar
    34    17    12   ar
    35    33    27   ar
    36    11     5   ar
    37    19    22    1
    38    25    26    1
    39    32    34    1
    40    32    35    1
@<TRIPOS>MOLECULE
*****
 37 40 0 0 0
SMALL
GASTEIGER

@<TRIPOS>ATOM
      1 C         -14.0269   -6.7442   18.2581 C.ar    1  UNL1        0.0596
      2 C         -13.9608   -5.2908   18.6231 C.ar    1  UNL1        0.0373
      3 C         -15.0767   -4.6621   19.4038 C.ar    1  UNL1        0.0782
      4 N         -16.2587   -5.4866   19.8194 N.ar    1  UNL1       -0.2479
      5 C         -16.3249   -6.9401   19.4544 C.ar    1  UNL1        0.0833
      6 C         -17.5070   -7.7647   19.8700 C.ar    1  UNL1        0.0192
      7 C         -17.5731   -9.2180   19.5049 C.ar    1  UNL1        0.0038
      8 C         -16.4572   -9.8468   18.7243 C.ar    1  UNL1        0.0297
      9 C         -15.2752   -9.0222   18.3087 C.ar    1  UNL1        0.1417
     10 F         -14.1593   -9.6510   17.5280 F       1  UNL1       -0.2041
     11 C         -15.2090   -7.5689   18.6737 C.ar    1  UNL1        0.0495
     12 C         -12.7787   -4.4662   18.2075 C.ar    1  UNL1        0.0826
     13 C         -12.8400   -3.6464   16.9529 C.ar    1  UNL1        0.0192
     14 C         -11.6580   -2.8217   16.5373 C.ar    1  UNL1        0.0031
     15 C         -10.4147   -2.8169   17.3763 C.ar    1  UNL1        0.0207
     16 C         -10.3533   -3.6367   18.6309 C.ar    1  UNL1        0.0988
     17 N         -11.5353   -4.4614   19.0465 N.ar    1  UNL1       -0.2438
     18 C         -10.5014   -8.3392   17.3768 C.3     1  UNL1        0.1109
     19 N         -11.6173   -7.7104   18.1575 N.am    1  UNL1       -0.2992
     20 C         -12.9110   -7.3730   17.4775 C.2     1  UNL1        0.2461
     21 O         -13.0889   -7.6644   16.0169 O.2     1  UNL1       -0.2701
     22 H         -11.5005   -7.5191   19.1162 H       1  UNL1        0.1498
     23 C         -15.0104   -3.2086   19.7688 C.3     1  UNL1        0.1110
     24 C         -14.2223   -2.7717   20.9680 C.3     1  UNL1        0.0278
     25 N         -15.7323   -2.1922   18.9347 N.pl3   1  UNL1       -0.3141
     26 H         -16.5283   -2.4548   18.4183 H       1  UNL1        0.1485
     27 C         -15.2414   -0.7756   18.8875 C.ar    1  UNL1        0.1429
     28 N         -13.9314   -0.4573   18.2297 N.ar    1  UNL1       -0.2084
     29 C         -13.4405    0.9592   18.1824 C.ar    1  UNL1        0.2012
     30 N         -14.2596    2.0576   18.7929 N.ar    1  UNL1       -0.2087
     31 C         -15.5696    1.7394   19.4507 C.ar    1  UNL1        0.1396
     32 N         -16.3886    2.8378   20.0612 N.pl3   1  UNL1       -0.3420
     33 C         -16.0605    0.3228   19.4980 C.ar    1  UNL1        0.1308
     34 H         -16.0664    3.7675   20.0301 H       1  UNL1        0.1437
     35 H         -17.2484    2.6289   20.4929 H       1  UNL1        0.1437
     36 C         -17.3705    0.0045   20.1558 C.1     1  UNL1        0.1061
     37 N         -18.6804   -0.3137   20.8135 N.1     1  UNL1       -0.1906
@<TRIPOS>BOND
     1    18    19    1
     2    19    20   am
     3    20    21    2
     4    20     1    1
     5     1     2   ar
     6     2    12    1
     7    12    13   ar
     8    13    14   ar
     9    14    15   ar
    10    15    16   ar
    11    16    17   ar
    12     2     3   ar
    13     3    23    1
    14    23    24    1
    15    23    25    1
    16    25    27    1
    17    27    28   ar
    18    28    29   ar
    19    29    30   ar
    20    30    31   ar
    21    31    32    1
    22    31    33   ar
    23    33    36    1
    24    36    37    3
    25     3     4   ar
    26     4     5   ar
    27     5     6   ar
    28     6     7   ar
    29     7     8   ar
    30     8     9   ar
    31     9    10    1
    32     9    11   ar
    33    11     1   ar
    34    17    12   ar
    35    33    27   ar
    36    11     5   ar
    37    19    22    1
    38    25    26    1
    39    32    34    1
    40    32    35    1
@<TRIPOS>MOLECULE
*****
 37 40 0 0 0
SMALL
GASTEIGER

@<TRIPOS>ATOM
      1 C          -9.6332  -18.0168   22.4904 C.ar    1  UNL1        0.0596
      2 C          -8.3744  -17.5907   23.1859 C.ar    1  UNL1        0.0373
      3 C          -7.0421  -17.8339   22.5410 C.ar    1  UNL1        0.0782
      4 N          -6.9686  -18.5030   21.2006 N.ar    1  UNL1       -0.2479
      5 C          -8.2275  -18.9291   20.5050 C.ar    1  UNL1        0.0833
      6 C          -8.1540  -19.5983   19.1646 C.ar    1  UNL1        0.0192
      7 C          -9.4128  -20.0243   18.4690 C.ar    1  UNL1        0.0038
      8 C         -10.7451  -19.7812   19.1139 C.ar    1  UNL1        0.0297
      9 C         -10.8186  -19.1120   20.4543 C.ar    1  UNL1        0.1417
     10 F         -12.1509  -18.8689   21.0992 F       1  UNL1       -0.2041
     11 C          -9.5598  -18.6860   21.1499 C.ar    1  UNL1        0.0495
     12 C          -8.4479  -16.9215   24.5264 C.ar    1  UNL1        0.0826
     13 C          -8.5160  -15.4257   24.6152 C.ar    1  UNL1        0.0192
     14 C          -8.5895  -14.7565   25.9555 C.ar    1  UNL1        0.0031
     15 C          -8.5948  -15.5831   27.2072 C.ar    1  UNL1        0.0207
     16 C          -8.5266  -17.0789   27.1184 C.ar    1  UNL1        0.0988
     17 N          -8.4532  -17.7481   25.7780 N.ar    1  UNL1       -0.2438
     18 C         -12.9039  -18.5774   24.6673 C.3     1  UNL1        0.1109
     19 N         -11.5716  -18.8205   24.0224 N.am    1  UNL1       -0.2992
     20 C         -10.9655  -17.7737   23.1352 C.2     1  UNL1        0.2461
     21 O         -11.6918  -16.4838   22.8930 O.2     1  UNL1       -0.2701
     22 H         -11.0949  -19.6671   24.1814 H       1  UNL1        0.1498
     23 C          -5.7833  -17.4078   23.2367 C.3     1  UNL1        0.1110
     24 C          -5.7838  -16.1856   24.1062 C.3     1  UNL1        0.0278
     25 N          -4.5240  -18.2039   23.0627 N.pl3   1  UNL1       -0.3141
     26 H          -4.4056  -19.0508   23.5505 H       1  UNL1        0.1485
     27 C          -3.4449  -17.7096   22.1455 C.ar    1  UNL1        0.1429
     28 N          -2.6600  -16.4825   22.5036 N.ar    1  UNL1       -0.2084
     29 C          -1.5810  -15.9882   21.5863 C.ar    1  UNL1        0.2012
     30 N          -1.2868  -16.7210   20.3110 N.ar    1  UNL1       -0.2087
     31 C          -2.0716  -17.9481   19.9529 C.ar    1  UNL1        0.1396
     32 N          -1.7774  -18.6809   18.6776 N.pl3   1  UNL1       -0.3420
     33 C          -3.1507  -18.4424   20.8701 C.ar    1  UNL1        0.1308
     34 H          -1.0692  -18.3564   18.0756 H       1  UNL1        0.1437
     35 H          -2.2926  -19.4862   18.4425 H       1  UNL1        0.1437
     36 C          -3.9356  -19.6695   20.5120 C.1     1  UNL1        0.1061
     37 N          -4.7204  -20.8965   20.1539 N.1     1  UNL1       -0.1906
@<TRIPOS>BOND
     1    18    19    1
     2    19    20   am
     3    20    21    2
     4    20     1    1
     5     1     2   ar
     6     2    12    1
     7    12    13   ar
     8    13    14   ar
     9    14    15   ar
    10    15    16   ar
    11    16    17   ar
    12     2     3   ar
    13     3    23    1
    14    23    24    1
    15    23    25    1
    16    25    27    1
    17    27    28   ar
    18    28    29   ar
    19    29    30   ar
    20    30    31   ar
    21    31    32    1
    22    31    33   ar
    23    33    36    1
    24    36    37    3
    25     3     4   ar
    26     4     5   ar
    27     5     6   ar
    28     6     7   ar
    29     7     8   ar
    30     8     9   ar
    31     9    10    1
    32     9    11   ar
    33    11     1   ar
    34    17    12   ar
    35    33    27   ar
    36    11     5   ar
    37    19    22    1
    38    25    26    1
    39    32    34    1
    40    32    35    1
@<TRIPOS>MOLECULE
*****
 37 40 0 0 0
SMALL
GASTEIGER

@<TRIPOS>ATOM
      1 C          -6.0814  -18.9492   22.1485 C.ar    1  UNL1        0.0596
      2 C          -7.2912  -18.2676   22.7156 C.ar    1  UNL1        0.0373
      3 C          -7.1659  -16.9035   23.3268 C.ar    1  UNL1        0.0782
      4 N          -5.8309  -16.2211   23.3709 N.ar    1  UNL1       -0.2479
      5 C          -4.6210  -16.9027   22.8037 C.ar    1  UNL1        0.0833
      6 C          -3.2860  -16.2203   22.8478 C.ar    1  UNL1        0.0192
      7 C          -2.0762  -16.9020   22.2807 C.ar    1  UNL1        0.0038
      8 C          -2.2015  -18.2661   21.6695 C.ar    1  UNL1        0.0297
      9 C          -3.5365  -18.9485   21.6254 C.ar    1  UNL1        0.1417
     10 F          -3.6617  -20.3126   21.0142 F       1  UNL1       -0.2041
     11 C          -4.7463  -18.2668   22.1925 C.ar    1  UNL1        0.0495
     12 C          -8.6263  -18.9500   22.6715 C.ar    1  UNL1        0.0826
     13 C          -9.2826  -19.2292   21.3520 C.ar    1  UNL1        0.0192
     14 C         -10.6177  -19.9116   21.3078 C.ar    1  UNL1        0.0031
     15 C         -11.2964  -20.3147   22.5833 C.ar    1  UNL1        0.0207
     16 C         -10.6400  -20.0354   23.9029 C.ar    1  UNL1        0.0988
     17 N          -9.3050  -19.3531   23.9470 N.ar    1  UNL1       -0.2438
     18 C          -6.5092  -21.8216   19.4435 C.3     1  UNL1        0.1109
     19 N          -6.3840  -20.4575   20.0547 N.am    1  UNL1       -0.2992
     20 C          -6.2066  -20.3133   21.5372 C.2     1  UNL1        0.2461
     21 O          -6.1545  -21.5332   22.4085 O.2     1  UNL1       -0.2701
     22 H          -6.4182  -19.6568   19.4829 H       1  UNL1        0.1498
     23 C          -8.3758  -16.2218   23.8939 C.3     1  UNL1        0.1110
     24 C          -8.2657  -15.4341   25.1657 C.3     1  UNL1        0.0278
     25 N          -9.6957  -16.3279   23.1893 N.pl3   1  UNL1       -0.3141
     26 H         -10.4455  -16.8012   23.6172 H       1  UNL1        0.1485
     27 C          -9.8733  -15.7127   21.8329 C.ar    1  UNL1        0.1429
     28 N          -8.8003  -14.8338   21.2616 N.ar    1  UNL1       -0.2084
     29 C          -8.9779  -14.2186   19.9052 C.ar    1  UNL1        0.2012
     30 N         -10.2284  -14.4824   19.1199 N.ar    1  UNL1       -0.2087
     31 C         -11.3014  -15.3612   19.6911 C.ar    1  UNL1        0.1396
     32 N         -12.5519  -15.6250   18.9058 N.pl3   1  UNL1       -0.3420
     33 C         -11.1238  -15.9764   21.0476 C.ar    1  UNL1        0.1308
     34 H         -12.6684  -15.2212   18.0155 H       1  UNL1        0.1437
     35 H         -13.2561  -16.2018   19.2807 H       1  UNL1        0.1437
     36 C         -12.1968  -16.8553   21.6188 C.1     1  UNL1        0.1061
     37 N         -13.2697  -17.7342   22.1900 N.1     1  UNL1       -0.1906
@<TRIPOS>BOND
     1    18    19    1
     2    19    20   am
     3    20    21    2
     4    20     1    1
     5     1     2   ar
     6     2    12    1
     7    12    13   ar
     8    13    14   ar
     9    14    15   ar
    10    15    16   ar
    11    16    17   ar
    12     2     3   ar
    13     3    23    1
    14    23    24    1
    15    23    25    1
    16    25    27    1
    17    27    28   ar
    18    28    29   ar
    19    29    30   ar
    20    30    31   ar
    21    31    32    1
    22    31    33   ar
    23    33    36    1
    24    36    37    3
    25     3     4   ar
    26     4     5   ar
    27     5     6   ar
    28     6     7   ar
    29     7     8   ar
    30     8     9   ar
    31     9    10    1
    32     9    11   ar
    33    11     1   ar
    34    17    12   ar
    35    33    27   ar
    36    11     5   ar
    37    19    22    1
    38    25    26    1
    39    32    34    1
    40    32    35    1
@<TRIPOS>MOLECULE
*****
 37 40 0 0 0
SMALL
GASTEIGER

@<TRIPOS>ATOM
      1 C         -13.8774   -1.8276   18.2957 C.ar    1  UNL1        0.0596
      2 C         -14.3827   -3.2310   18.1371 C.ar    1  UNL1        0.0373
      3 C         -15.8379   -3.5317   18.3419 C.ar    1  UNL1        0.0782
      4 N         -16.7878   -2.4291   18.7052 N.ar    1  UNL1       -0.2479
      5 C         -16.2824   -1.0257   18.8638 C.ar    1  UNL1        0.0833
      6 C         -17.2323    0.0769   19.2271 C.ar    1  UNL1        0.0192
      7 C         -16.7270    1.4802   19.3856 C.ar    1  UNL1        0.0038
      8 C         -15.2718    1.7810   19.1808 C.ar    1  UNL1        0.0297
      9 C         -14.3219    0.6784   18.8175 C.ar    1  UNL1        0.1417
     10 F         -12.8667    0.9792   18.6128 F       1  UNL1       -0.2041
     11 C         -14.8272   -0.7249   18.6590 C.ar    1  UNL1        0.0495
     12 C         -13.4328   -4.3336   17.7738 C.ar    1  UNL1        0.0826
     13 C         -12.5831   -4.9709   18.8330 C.ar    1  UNL1        0.0192
     14 C         -11.6332   -6.0735   18.4697 C.ar    1  UNL1        0.0031
     15 C         -11.5332   -6.5389   17.0473 C.ar    1  UNL1        0.0207
     16 C         -12.3829   -5.9016   15.9881 C.ar    1  UNL1        0.0988
     17 N         -13.3328   -4.7990   16.3514 N.ar    1  UNL1       -0.2438
     18 C         -10.4565   -0.8876   16.5168 C.3     1  UNL1        0.1109
     19 N         -11.9117   -1.1883   16.7216 N.am    1  UNL1       -0.2992
     20 C         -12.4222   -1.5268   18.0909 C.2     1  UNL1        0.2461
     21 O         -11.4774   -1.5645   19.2554 O.2     1  UNL1       -0.2701
     22 H         -12.5318   -1.1636   15.9573 H       1  UNL1        0.1498
     23 C         -16.3432   -4.9352   18.1833 C.3     1  UNL1        0.1110
     24 C         -17.0471   -5.3409   16.9224 C.3     1  UNL1        0.0278
     25 N         -16.1447   -5.9328   19.2857 N.pl3   1  UNL1       -0.3141
     26 H         -16.1706   -5.6399   20.2252 H       1  UNL1        0.1485
     27 C         -15.9066   -7.3767   18.9565 C.ar    1  UNL1        0.1429
     28 N         -14.6083   -7.8004   18.3360 N.ar    1  UNL1       -0.2084
     29 C         -14.3702   -9.2443   18.0068 C.ar    1  UNL1        0.2012
     30 N         -15.4305  -10.2646   18.2980 N.ar    1  UNL1       -0.2087
     31 C         -16.7288   -9.8410   18.9184 C.ar    1  UNL1        0.1396
     32 N         -17.7891  -10.8614   19.2097 N.pl3   1  UNL1       -0.3420
     33 C         -16.9669   -8.3971   19.2477 C.ar    1  UNL1        0.1308
     34 H         -17.6328  -11.8091   18.9936 H       1  UNL1        0.1437
     35 H         -18.6412  -10.5833   19.6169 H       1  UNL1        0.1437
     36 C         -18.2652   -7.9735   19.8681 C.1     1  UNL1        0.1061
     37 N         -19.5635   -7.5499   20.4885 N.1     1  UNL1       -0.1906
@<TRIPOS>BOND
     1    18    19    1
     2    19    20   am
     3    20    21    2
     4    20     1    1
     5     1     2   ar
     6     2    12    1
     7    12    13   ar
     8    13    14   ar
     9    14    15   ar
    10    15    16   ar
    11    16    17   ar
    12     2     3   ar
    13     3    23    1
    14    23    24    1
    15    23    25    1
    16    25    27    1
    17    27    28   ar
    18    28    29   ar
    19    29    30   ar
    20    30    31   ar
    21    31    32    1
    22    31    33   ar
    23    33    36    1
    24    36    37    3
    25     3     4   ar
    26     4     5   ar
    27     5     6   ar
    28     6     7   ar
    29     7     8   ar
    30     8     9   ar
    31     9    10    1
    32     9    11   ar
    33    11     1   ar
    34    17    12   ar
    35    33    27   ar
    36    11     5   ar
    37    19    22    1
    38    25    26    1
    39    32    34    1
    40    32    35    1
@<TRIPOS>MOLECULE
*****
 37 40 0 0 0
SMALL
GASTEIGER

@<TRIPOS>ATOM
      1 C         -14.3350   -5.5804   18.5786 C.ar    1  UNL1        0.0596
      2 C         -14.6028   -4.1053   18.5334 C.ar    1  UNL1        0.0373
      3 C         -15.9614   -3.5784   18.8892 C.ar    1  UNL1        0.0782
      4 N         -17.0522   -4.5267   19.2901 N.ar    1  UNL1       -0.2479
      5 C         -16.7844   -6.0020   19.3353 C.ar    1  UNL1        0.0833
      6 C         -17.8752   -6.9503   19.7363 C.ar    1  UNL1        0.0192
      7 C         -17.6074   -8.4255   19.7815 C.ar    1  UNL1        0.0038
      8 C         -16.2488   -8.9523   19.4257 C.ar    1  UNL1        0.0297
      9 C         -15.1580   -8.0040   19.0248 C.ar    1  UNL1        0.1417
     10 F         -13.7994   -8.5309   18.6690 F       1  UNL1       -0.2041
     11 C         -15.4258   -6.5289   18.9796 C.ar    1  UNL1        0.0495
     12 C         -13.5120   -3.1569   18.1324 C.ar    1  UNL1        0.0826
     13 C         -12.6079   -2.5695   19.1754 C.ar    1  UNL1        0.0192
     14 C         -11.5171   -1.6212   18.7745 C.ar    1  UNL1        0.0031
     15 C         -11.3304   -1.2602   17.3306 C.ar    1  UNL1        0.0207
     16 C         -12.2345   -1.8475   16.2877 C.ar    1  UNL1        0.0988
     17 N         -13.3253   -2.7958   16.6886 N.ar    1  UNL1       -0.2438
     18 C         -10.5506   -6.7268   18.9172 C.3     1  UNL1        0.1109
     19 N         -11.9092   -6.1999   19.2730 N.am    1  UNL1       -0.2992
     20 C         -12.9764   -6.1073   18.2228 C.2     1  UNL1        0.2461
     21 O         -12.6848   -6.5415   16.8170 O.2     1  UNL1       -0.2701
     22 H         -12.1006   -5.9149   20.1957 H       1  UNL1        0.1498
     23 C         -16.2292   -2.1032   18.8439 C.3     1  UNL1        0.1110
     24 C         -16.7341   -1.4709   17.5808 C.3     1  UNL1        0.0278
     25 N         -15.9922   -1.2602   20.0618 N.pl3   1  UNL1       -0.3141
     26 H         -15.3283   -1.5402   20.7327 H       1  UNL1        0.1485
     27 C         -16.7666    0.0094   20.2575 C.ar    1  UNL1        0.1429
     28 N         -18.1054   -0.0253   20.9333 N.ar    1  UNL1       -0.2084
     29 C         -18.8798    1.2443   21.1290 C.ar    1  UNL1        0.2012
     30 N         -18.3156    2.5486   20.6488 N.ar    1  UNL1       -0.2087
     31 C         -16.9770    2.5833   19.9730 C.ar    1  UNL1        0.1396
     32 N         -16.4128    3.8876   19.4929 N.pl3   1  UNL1       -0.3420
     33 C         -16.2024    1.3137   19.7773 C.ar    1  UNL1        0.1308
     34 H         -16.9211    4.7208   19.6214 H       1  UNL1        0.1437
     35 H         -15.5342    3.9103   19.0494 H       1  UNL1        0.1437
     36 C         -14.8638    1.3484   19.1016 C.1     1  UNL1        0.1061
     37 N         -13.5251    1.3831   18.4258 N.1     1  UNL1       -0.1906
@<TRIPOS>BOND
     1    18    19    1
     2    19    20   am
     3    20    21    2
     4    20     1    1
     5     1     2   ar
     6     2    12    1
     7    12    13   ar
     8    13    14   ar
     9    14    15   ar
    10    15    16   ar
    11    16    17   ar
    12     2     3   ar
    13     3    23    1
    14    23    24    1
    15    23    25    1
    16    25    27    1
    17    27    28   ar
    18    28    29   ar
    19    29    30   ar
    20    30    31   ar
    21    31    32    1
    22    31    33   ar
    23    33    36    1
    24    36    37    3
    25     3     4   ar
    26     4     5   ar
    27     5     6   ar
    28     6     7   ar
    29     7     8   ar
    30     8     9   ar
    31     9    10    1
    32     9    11   ar
    33    11     1   ar
    34    17    12   ar
    35    33    27   ar
    36    11     5   ar
    37    19    22    1
    38    25    26    1
    39    32    34    1
    40    32    35    1
@<TRIPOS>MOLECULE
*****
 37 40 0 0 0
SMALL
GASTEIGER

@<TRIPOS>ATOM
      1 C          -5.8114  -17.4612   23.1186 C.ar    1  UNL1        0.0596
      2 C          -6.4621  -18.2868   22.0486 C.ar    1  UNL1        0.0373
      3 C          -7.9546  -18.2781   21.8982 C.ar    1  UNL1        0.0782
      4 N          -8.7962  -17.4438   22.8178 N.ar    1  UNL1       -0.2479
      5 C          -8.1454  -16.6182   23.8878 C.ar    1  UNL1        0.0833
      6 C          -8.9871  -15.7840   24.8074 C.ar    1  UNL1        0.0192
      7 C          -8.3363  -14.9584   25.8774 C.ar    1  UNL1        0.0038
      8 C          -6.8439  -14.9671   26.0278 C.ar    1  UNL1        0.0297
      9 C          -6.0022  -15.8014   25.1082 C.ar    1  UNL1        0.1417
     10 F          -4.5098  -15.8101   25.2587 F       1  UNL1       -0.2041
     11 C          -6.6530  -16.6269   24.0383 C.ar    1  UNL1        0.0495
     12 C          -5.6205  -19.1211   21.1290 C.ar    1  UNL1        0.0826
     13 C          -5.7885  -20.6114   21.1040 C.ar    1  UNL1        0.0192
     14 C          -4.9469  -21.4457   20.1844 C.ar    1  UNL1        0.0031
     15 C          -3.9374  -20.7897   19.2899 C.ar    1  UNL1        0.0207
     16 C          -3.7693  -19.2993   19.3149 C.ar    1  UNL1        0.0988
     17 N          -4.6109  -18.4650   20.2344 N.ar    1  UNL1       -0.2438
     18 C          -1.9729  -16.6855   22.4747 C.3     1  UNL1        0.1109
     19 N          -3.4653  -16.6768   22.3243 N.am    1  UNL1       -0.2992
     20 C          -4.3190  -17.4699   23.2690 C.2     1  UNL1        0.2461
     21 O          -3.6802  -18.2716   24.3641 O.2     1  UNL1       -0.2701
     22 H          -3.8846  -16.1507   21.6056 H       1  UNL1        0.1498
     23 C          -8.6053  -19.1037   20.8282 C.3     1  UNL1        0.1110
     24 C          -7.9876  -19.1847   19.4636 C.3     1  UNL1        0.0278
     25 N          -9.8737  -19.8482   21.1226 N.pl3   1  UNL1       -0.3141
     26 H          -9.9443  -20.8058   20.9051 H       1  UNL1        0.1485
     27 C         -11.0346  -19.1338   21.7485 C.ar    1  UNL1        0.1429
     28 N         -11.9138  -18.2535   20.9105 N.ar    1  UNL1       -0.2084
     29 C         -13.0747  -17.5391   21.5364 C.ar    1  UNL1        0.2012
     30 N         -13.3566  -17.7049   23.0004 N.ar    1  UNL1       -0.2087
     31 C         -12.4775  -18.5851   23.8384 C.ar    1  UNL1        0.1396
     32 N         -12.7593  -18.7510   25.3023 N.pl3   1  UNL1       -0.3420
     33 C         -11.3165  -19.2996   23.2125 C.ar    1  UNL1        0.1308
     34 H         -13.5213  -18.2821   25.7131 H       1  UNL1        0.1437
     35 H         -12.1823  -19.3287   25.8523 H       1  UNL1        0.1437
     36 C         -10.4374  -20.1799   24.0505 C.1     1  UNL1        0.1061
     37 N          -9.5583  -21.0601   24.8885 N.1     1  UNL1       -0.1906
@<TRIPOS>BOND
     1    18    19    1
     2    19    20   am
     3    20    21    2
     4    20     1    1
     5     1     2   ar
     6     2    12    1
     7    12    13   ar
     8    13    14   ar
     9    14    15   ar
    10    15    16   ar
    11    16    17   ar
    12     2     3   ar
    13     3    23    1
    14    23    24    1
    15    23    25    1
    16    25    27    1
    17    27    28   ar
    18    28    29   ar
    19    29    30   ar
    20    30    31   ar
    21    31    32    1
    22    31    33   ar
    23    33    36    1
    24    36    37    3
    25     3     4   ar
    26     4     5   ar
    27     5     6   ar
    28     6     7   ar
    29     7     8   ar
    30     8     9   ar
    31     9    10    1
    32     9    11   ar
    33    11     1   ar
    34    17    12   ar
    35    33    27   ar
    36    11     5   ar
    37    19    22    1
    38    25    26    1
    39    32    34    1
    40    32    35    1
@<TRIPOS>MOLECULE
*****
 37 40 0 0 0
SMALL
GASTEIGER

@<TRIPOS>ATOM
      1 C           4.4981   -1.5442   23.0531 C.ar    1  UNL1        0.0596
      2 C           4.2748   -1.8766   21.6075 C.ar    1  UNL1        0.0373
      3 C           4.8701   -3.1236   21.0240 C.ar    1  UNL1        0.0782
      4 N           5.6888   -4.0382   21.8860 N.ar    1  UNL1       -0.2479
      5 C           5.9122   -3.7059   23.3316 C.ar    1  UNL1        0.0833
      6 C           6.7309   -4.6205   24.1936 C.ar    1  UNL1        0.0192
      7 C           6.9543   -4.2881   25.6392 C.ar    1  UNL1        0.0038
      8 C           6.3589   -3.0411   26.2227 C.ar    1  UNL1        0.0297
      9 C           5.5402   -2.1265   25.3607 C.ar    1  UNL1        0.1417
     10 F           4.9449   -0.8794   25.9442 F       1  UNL1       -0.2041
     11 C           5.3169   -2.4588   23.9151 C.ar    1  UNL1        0.0495
     12 C           3.4560   -0.9619   20.7454 C.ar    1  UNL1        0.0826
     13 C           1.9748   -1.1679   20.6286 C.ar    1  UNL1        0.0192
     14 C           1.1561   -0.2533   19.7666 C.ar    1  UNL1        0.0031
     15 C           1.8186    0.8673   19.0214 C.ar    1  UNL1        0.0207
     16 C           3.2997    1.0733   19.1382 C.ar    1  UNL1        0.0988
     17 N           4.1185    0.1587   20.0003 N.ar    1  UNL1       -0.2438
     18 C           1.9488    0.9066   24.8543 C.3     1  UNL1        0.1109
     19 N           2.5441   -0.3404   24.2708 N.am    1  UNL1       -0.2992
     20 C           3.9028   -0.2971   23.6366 C.2     1  UNL1        0.2461
     21 O           4.6661    0.9931   23.5859 O.2     1  UNL1       -0.2701
     22 H           2.0431   -1.1872   24.3040 H       1  UNL1        0.1498
     23 C           4.6467   -3.4559   19.5784 C.3     1  UNL1        0.1110
     24 C           3.3046   -3.9444   19.1199 C.3     1  UNL1        0.0278
     25 N           5.7653   -3.2999   18.5914 N.pl3   1  UNL1       -0.3141
     26 H           6.1675   -4.0953   18.1733 H       1  UNL1        0.1485
     27 C           6.2712   -1.9319   18.2414 C.ar    1  UNL1        0.1429
     28 N           5.5537   -1.1069   17.2144 N.ar    1  UNL1       -0.2084
     29 C           6.0595    0.2611   16.8643 C.ar    1  UNL1        0.2012
     30 N           7.2830    0.8043   17.5413 N.ar    1  UNL1       -0.2087
     31 C           8.0005   -0.0206   18.5682 C.ar    1  UNL1        0.1396
     32 N           9.2239    0.5226   19.2451 N.pl3   1  UNL1       -0.3420
     33 C           7.4946   -1.3887   18.9183 C.ar    1  UNL1        0.1308
     34 H           9.5559    1.4204   19.0154 H       1  UNL1        0.1437
     35 H           9.6949   -0.0189   19.9192 H       1  UNL1        0.1437
     36 C           8.2122   -2.2136   19.9453 C.1     1  UNL1        0.1061
     37 N           8.9297   -3.0384   20.9722 N.1     1  UNL1       -0.1906
@<TRIPOS>BOND
     1    18    19    1
     2    19    20   am
     3    20    21    2
     4    20     1    1
     5     1     2   ar
     6     2    12    1
     7    12    13   ar
     8    13    14   ar
     9    14    15   ar
    10    15    16   ar
    11    16    17   ar
    12     2     3   ar
    13     3    23    1
    14    23    24    1
    15    23    25    1
    16    25    27    1
    17    27    28   ar
    18    28    29   ar
    19    29    30   ar
    20    30    31   ar
    21    31    32    1
    22    31    33   ar
    23    33    36    1
    24    36    37    3
    25     3     4   ar
    26     4     5   ar
    27     5     6   ar
    28     6     7   ar
    29     7     8   ar
    30     8     9   ar
    31     9    10    1
    32     9    11   ar
    33    11     1   ar
    34    17    12   ar
    35    33    27   ar
    36    11     5   ar
    37    19    22    1
    38    25    26    1
    39    32    34    1
    40    32    35    1
@<TRIPOS>MOLECULE
*****
 37 40 0 0 0
SMALL
GASTEIGER

@<TRIPOS>ATOM
      1 C           2.3294   -0.1248   22.2702 C.ar    1  UNL1        0.0596
      2 C           2.4248    0.2730   23.7133 C.ar    1  UNL1        0.0373
      3 C           3.3103   -0.4979   24.6469 C.ar    1  UNL1        0.0782
      4 N           4.1005   -1.6666   24.1373 N.ar    1  UNL1       -0.2479
      5 C           4.0051   -2.0645   22.6942 C.ar    1  UNL1        0.0833
      6 C           4.7952   -3.2333   22.1846 C.ar    1  UNL1        0.0192
      7 C           4.6999   -3.6311   20.7415 C.ar    1  UNL1        0.0038
      8 C           3.8144   -2.8602   19.8080 C.ar    1  UNL1        0.0297
      9 C           3.0242   -1.6914   20.3175 C.ar    1  UNL1        0.1417
     10 F           2.1387   -0.9205   19.3839 F       1  UNL1       -0.2041
     11 C           3.1196   -1.2936   21.7606 C.ar    1  UNL1        0.0495
     12 C           1.6346    1.4418   24.2229 C.ar    1  UNL1        0.0826
     13 C           0.3146    1.2172   24.8989 C.ar    1  UNL1        0.0192
     14 C          -0.4756    2.3859   25.4085 C.ar    1  UNL1        0.0031
     15 C           0.0543    3.7792   25.2421 C.ar    1  UNL1        0.0207
     16 C           1.3744    4.0039   24.5661 C.ar    1  UNL1        0.0988
     17 N           2.1646    2.8352   24.0565 N.ar    1  UNL1       -0.2438
     18 C           1.0544    2.6859   19.7753 C.3     1  UNL1        0.1109
     19 N           1.9399    1.9150   20.7089 N.am    1  UNL1       -0.2992
     20 C           1.4439    0.6461   21.3366 C.2     1  UNL1        0.2461
     21 O           0.0625    0.1482   21.0308 O.2     1  UNL1       -0.2701
     22 H           2.8467    2.2418   20.9097 H       1  UNL1        0.1498
     23 C           3.4057   -0.1000   26.0900 C.3     1  UNL1        0.1110
     24 C           4.1794    1.1241   26.4810 C.3     1  UNL1        0.0278
     25 N           2.7272   -0.9262   27.1422 N.pl3   1  UNL1       -0.3141
     26 H           2.6592   -1.9023   27.0336 H       1  UNL1        0.1485
     27 C           2.1525   -0.2652   28.3598 C.ar    1  UNL1        0.1429
     28 N           0.7957    0.3716   28.2976 N.ar    1  UNL1       -0.2084
     29 C           0.2209    1.0326   29.5152 C.ar    1  UNL1        0.2012
     30 N           1.0029    1.0569   30.7951 N.ar    1  UNL1       -0.2087
     31 C           2.3596    0.4203   30.8573 C.ar    1  UNL1        0.1396
     32 N           3.1415    0.4446   32.1371 N.pl3   1  UNL1       -0.3420
     33 C           2.9344   -0.2408   29.6397 C.ar    1  UNL1        0.1308
     34 H           2.7643    0.8785   32.9363 H       1  UNL1        0.1437
     35 H           4.0320    0.0267   32.1780 H       1  UNL1        0.1437
     36 C           4.2911   -0.8775   29.7019 C.1     1  UNL1        0.1061
     37 N           5.6478   -1.5142   29.7641 N.1     1  UNL1       -0.1906
@<TRIPOS>BOND
     1    18    19    1
     2    19    20   am
     3    20    21    2
     4    20     1    1
     5     1     2   ar
     6     2    12    1
     7    12    13   ar
     8    13    14   ar
     9    14    15   ar
    10    15    16   ar
    11    16    17   ar
    12     2     3   ar
    13     3    23    1
    14    23    24    1
    15    23    25    1
    16    25    27    1
    17    27    28   ar
    18    28    29   ar
    19    29    30   ar
    20    30    31   ar
    21    31    32    1
    22    31    33   ar
    23    33    36    1
    24    36    37    3
    25     3     4   ar
    26     4     5   ar
    27     5     6   ar
    28     6     7   ar
    29     7     8   ar
    30     8     9   ar
    31     9    10    1
    32     9    11   ar
    33    11     1   ar
    34    17    12   ar
    35    33    27   ar
    36    11     5   ar
    37    19    22    1
    38    25    26    1
    39    32    34    1
    40    32    35    1
