@<TRIPOS>MOLECULE
*****
 36 40 0 0 0
SMALL
GASTEIGER

@<TRIPOS>ATOM
      1 C         -12.1230   -2.4437   18.9488 C.ar    1  UNL1        0.1453
      2 C         -13.4296   -3.1319   18.6855 C.ar    1  UNL1        0.0375
      3 C         -13.4633   -4.6133   18.4525 C.ar    1  UNL1        0.0033
      4 C         -12.1906   -5.4065   18.4827 C.ar    1  UNL1        0.0046
      5 C         -12.2244   -6.8879   18.2496 C.ar    1  UNL1        0.0537
      6 C         -10.9516   -7.6811   18.2798 C.ar    1  UNL1        0.0045
      7 C          -9.6450   -6.9928   18.5431 C.ar    1  UNL1        0.0001
      8 C          -9.6113   -5.5114   18.7761 C.ar    1  UNL1        0.0001
      9 C         -10.8840   -4.7183   18.7459 C.ar    1  UNL1        0.0032
     10 C         -10.8503   -3.2368   18.9790 C.ar    1  UNL1        0.0375
     11 C         -13.5309   -7.5761   17.9863 C.2     1  UNL1        0.2495
     12 O         -13.8981   -7.9791   16.5889 O.2     1  UNL1       -0.2698
     13 N         -14.4701   -7.8614   19.1205 N.am    1  UNL1       -0.2804
     14 H         -14.2291   -7.5969   20.0376 H       1  UNL1        0.1552
     15 C         -15.7767   -8.5496   18.8573 C.ar    1  UNL1        0.0506
     16 C         -17.0597   -7.7756   18.9278 C.ar    1  UNL1        0.0155
     17 C         -18.3662   -8.4637   18.6646 C.ar    1  UNL1        0.0127
     18 C         -18.3898   -9.9259   18.3308 C.ar    1  UNL1        0.0578
     19 CL        -19.6964  -10.6141   18.0676 Cl      1  UNL1       -0.0822
     20 C         -17.1069  -10.6999   18.2603 C.ar    1  UNL1        0.0127
     21 C         -15.8004  -10.0117   18.5235 C.ar    1  UNL1        0.0155
     22 O         -12.0893   -0.9623   19.1819 O.3     1  UNL1       -0.4534
     23 C         -16.8846    1.3717   18.2834 C.ar    1  UNL1        0.1739
     24 C         -15.9803    1.8423   17.1832 C.ar    1  UNL1        0.0592
     25 C         -14.5553    1.3765   17.1327 C.ar    1  UNL1        0.0875
     26 N         -13.6509    1.8471   16.0325 N.ar    1  UNL1       -0.2435
     27 C         -12.2260    1.3812   15.9820 C.ar    1  UNL1        0.1020
     28 C         -11.7055    0.4448   17.0318 C.ar    1  UNL1        0.0581
     29 C         -12.6098   -0.0258   18.1321 C.ar    1  UNL1        0.1483
     30 C         -14.0347    0.4400   18.1825 C.ar    1  UNL1        0.0554
     31 C         -14.9392   -0.0306   19.2828 C.ar    1  UNL1        0.0446
     32 C         -16.3641    0.4353   19.3332 C.ar    1  UNL1        0.1726
     33 C         -19.3299    1.2309   17.4169 C.3     1  UNL1        0.2526
     34 O         -18.3096    1.8376   18.3339 O.3     1  UNL1       -0.4683
     35 O         -17.2686   -0.0354   20.4335 O.3     1  UNL1       -0.4684
     36 C         -18.2717   -1.1185   20.1681 C.3     1  UNL1        0.2526
@<TRIPOS>BOND
     1    33    34    1
     2    34    23    1
     3    23    24   ar
     4    24    25   ar
     5    25    26   ar
     6    26    27   ar
     7    27    28   ar
     8    28    29   ar
     9    29    22    1
    10    22     1    1
    11     1     2   ar
    12     2     3   ar
    13     3     4   ar
    14     4     5   ar
    15     5    11    1
    16    11    12    2
    17    11    13   am
    18    13    15    1
    19    15    16   ar
    20    16    17   ar
    21    17    18   ar
    22    18    19    1
    23    18    20   ar
    24    20    21   ar
    25     5     6   ar
    26     6     7   ar
    27     7     8   ar
    28     8     9   ar
    29     9    10   ar
    30    29    30   ar
    31    30    31   ar
    32    31    32   ar
    33    32    35    1
    34    35    36    1
    35    32    23   ar
    36    30    25   ar
    37    10     1   ar
    38     9     4   ar
    39    21    15   ar
    40    13    14    1
@<TRIPOS>MOLECULE
*****
 36 40 0 0 0
SMALL
GASTEIGER

@<TRIPOS>ATOM
      1 C         -15.6970    0.0503   18.6930 C.ar    1  UNL1        0.1453
      2 C         -16.3305   -1.2913   18.9143 C.ar    1  UNL1        0.0375
      3 C         -15.4754   -2.5213   18.9891 C.ar    1  UNL1        0.0033
      4 C         -13.9868   -2.4099   18.8426 C.ar    1  UNL1        0.0046
      5 C         -13.1317   -3.6401   18.9174 C.ar    1  UNL1        0.0537
      6 C         -11.6430   -3.5287   18.7709 C.ar    1  UNL1        0.0045
      7 C         -11.0094   -2.1872   18.5496 C.ar    1  UNL1        0.0001
      8 C         -11.8645   -0.9571   18.4748 C.ar    1  UNL1        0.0001
      9 C         -13.3532   -1.0685   18.6213 C.ar    1  UNL1        0.0032
     10 C         -14.2083    0.1617   18.5465 C.ar    1  UNL1        0.0375
     11 C         -13.7652   -4.9816   19.1387 C.2     1  UNL1        0.2495
     12 O         -13.6732   -5.6421   20.4823 O.2     1  UNL1       -0.2698
     13 N         -14.4908   -5.6626   18.0164 N.am    1  UNL1       -0.2804
     14 H         -14.5512   -5.2291   17.1345 H       1  UNL1        0.1552
     15 C         -15.1244   -7.0041   18.2376 C.ar    1  UNL1        0.0506
     16 C         -16.4226   -7.1068   18.9820 C.ar    1  UNL1        0.0155
     17 C         -17.0562   -8.4483   19.2033 C.ar    1  UNL1        0.0127
     18 C         -16.3917   -9.6870   18.6801 C.ar    1  UNL1        0.0578
     19 CL        -17.0253  -11.0286   18.9014 Cl      1  UNL1       -0.0822
     20 C         -15.0934   -9.5844   17.9357 C.ar    1  UNL1        0.0127
     21 C         -14.4598   -8.2429   17.7145 C.ar    1  UNL1        0.0155
     22 O         -16.5521    1.2804   18.6182 O.3     1  UNL1       -0.4534
     23 C         -16.5038    4.1306   23.2143 C.ar    1  UNL1        0.1739
     24 C         -15.7641    4.9571   22.2045 C.ar    1  UNL1        0.0592
     25 C         -15.5913    4.4512   20.8029 C.ar    1  UNL1        0.0875
     26 N         -14.8516    5.2777   19.7931 N.ar    1  UNL1       -0.2435
     27 C         -14.6788    4.7717   18.3916 C.ar    1  UNL1        0.1020
     28 C         -15.2456    3.4393   18.0000 C.ar    1  UNL1        0.0581
     29 C         -15.9853    2.6128   19.0098 C.ar    1  UNL1        0.1483
     30 C         -16.1581    3.1187   20.4113 C.ar    1  UNL1        0.0554
     31 C         -16.8978    2.2922   21.4212 C.ar    1  UNL1        0.0446
     32 C         -17.0706    2.7982   22.8227 C.ar    1  UNL1        0.1726
     33 C         -15.4727    4.9326   25.4601 C.3     1  UNL1        0.2526
     34 O         -16.6766    4.6365   24.6158 O.3     1  UNL1       -0.4683
     35 O         -17.8103    1.9717   23.8326 O.3     1  UNL1       -0.4684
     36 C         -19.2598    2.2430   24.1069 C.3     1  UNL1        0.2526
@<TRIPOS>BOND
     1    33    34    1
     2    34    23    1
     3    23    24   ar
     4    24    25   ar
     5    25    26   ar
     6    26    27   ar
     7    27    28   ar
     8    28    29   ar
     9    29    22    1
    10    22     1    1
    11     1     2   ar
    12     2     3   ar
    13     3     4   ar
    14     4     5   ar
    15     5    11    1
    16    11    12    2
    17    11    13   am
    18    13    15    1
    19    15    16   ar
    20    16    17   ar
    21    17    18   ar
    22    18    19    1
    23    18    20   ar
    24    20    21   ar
    25     5     6   ar
    26     6     7   ar
    27     7     8   ar
    28     8     9   ar
    29     9    10   ar
    30    29    30   ar
    31    30    31   ar
    32    31    32   ar
    33    32    35    1
    34    35    36    1
    35    32    23   ar
    36    30    25   ar
    37    10     1   ar
    38     9     4   ar
    39    21    15   ar
    40    13    14    1
@<TRIPOS>MOLECULE
*****
 36 40 0 0 0
SMALL
GASTEIGER

@<TRIPOS>ATOM
      1 C           7.1113   -3.8865   22.6653 C.ar    1  UNL1        0.1453
      2 C           6.4614   -3.3048   23.8857 C.ar    1  UNL1        0.0375
      3 C           6.6056   -3.9913   25.2115 C.ar    1  UNL1        0.0033
      4 C           7.3996   -5.2595   25.3171 C.ar    1  UNL1        0.0046
      5 C           7.5438   -5.9460   26.6430 C.ar    1  UNL1        0.0537
      6 C           8.3378   -7.2142   26.7485 C.ar    1  UNL1        0.0045
      7 C           8.9877   -7.7959   25.5281 C.ar    1  UNL1        0.0001
      8 C           8.8435   -7.1094   24.2023 C.ar    1  UNL1        0.0001
      9 C           8.0495   -5.8412   24.0968 C.ar    1  UNL1        0.0032
     10 C           7.9053   -5.1547   22.7708 C.ar    1  UNL1        0.0375
     11 C           6.8939   -5.3642   27.8633 C.2     1  UNL1        0.2495
     12 O           5.5029   -5.7786   28.2419 O.2     1  UNL1       -0.2698
     13 N           7.6351   -4.3682   28.7050 N.am    1  UNL1       -0.2804
     14 H           8.5480   -4.0963   28.4565 H       1  UNL1        0.1552
     15 C           6.9852   -3.7864   29.9254 C.ar    1  UNL1        0.0506
     16 C           7.0197   -4.5372   31.2235 C.ar    1  UNL1        0.0155
     17 C           6.3699   -3.9555   32.4439 C.ar    1  UNL1        0.0127
     18 C           5.6856   -2.6230   32.3661 C.ar    1  UNL1        0.0578
     19 CL          5.0357   -2.0412   33.5865 Cl      1  UNL1       -0.0822
     20 C           5.6511   -1.8722   31.0680 C.ar    1  UNL1        0.0127
     21 C           6.3009   -2.4539   29.8476 C.ar    1  UNL1        0.0155
     22 O           6.9671   -3.2000   21.3395 O.3     1  UNL1       -0.4534
     23 C           2.6484   -0.0392   20.5601 C.ar    1  UNL1        0.1739
     24 C           2.3967   -1.2895   19.7706 C.ar    1  UNL1        0.0592
     25 C           3.4135   -2.3923   19.7680 C.ar    1  UNL1        0.0875
     26 N           3.1618   -3.6426   18.9785 N.ar    1  UNL1       -0.2435
     27 C           4.1786   -4.7454   18.9760 C.ar    1  UNL1        0.1020
     28 C           5.4470   -4.5979   19.7630 C.ar    1  UNL1        0.0581
     29 C           5.6987   -3.3476   20.5525 C.ar    1  UNL1        0.1483
     30 C           4.6819   -2.2448   20.5550 C.ar    1  UNL1        0.0554
     31 C           4.9335   -0.9944   21.3445 C.ar    1  UNL1        0.0446
     32 C           3.9168    0.1084   21.3471 C.ar    1  UNL1        0.1726
     33 C           0.1701    0.7366   20.4782 C.3     1  UNL1        0.2526
     34 O           1.6316    1.0637   20.5627 O.3     1  UNL1       -0.4683
     35 O           4.1684    1.3588   22.1366 O.3     1  UNL1       -0.4684
     36 C           3.6556    1.4746   23.5415 C.3     1  UNL1        0.2526
@<TRIPOS>BOND
     1    33    34    1
     2    34    23    1
     3    23    24   ar
     4    24    25   ar
     5    25    26   ar
     6    26    27   ar
     7    27    28   ar
     8    28    29   ar
     9    29    22    1
    10    22     1    1
    11     1     2   ar
    12     2     3   ar
    13     3     4   ar
    14     4     5   ar
    15     5    11    1
    16    11    12    2
    17    11    13   am
    18    13    15    1
    19    15    16   ar
    20    16    17   ar
    21    17    18   ar
    22    18    19    1
    23    18    20   ar
    24    20    21   ar
    25     5     6   ar
    26     6     7   ar
    27     7     8   ar
    28     8     9   ar
    29     9    10   ar
    30    29    30   ar
    31    30    31   ar
    32    31    32   ar
    33    32    35    1
    34    35    36    1
    35    32    23   ar
    36    30    25   ar
    37    10     1   ar
    38     9     4   ar
    39    21    15   ar
    40    13    14    1
@<TRIPOS>MOLECULE
*****
 36 40 0 0 0
SMALL
GASTEIGER

@<TRIPOS>ATOM
      1 C           4.7868   -3.2594   22.3956 C.ar    1  UNL1        0.1453
      2 C           3.9751   -2.2877   23.1999 C.ar    1  UNL1        0.0375
      3 C           4.4311   -1.8835   24.5705 C.ar    1  UNL1        0.0033
      4 C           5.6989   -2.4510   25.1369 C.ar    1  UNL1        0.0046
      5 C           6.1549   -2.0468   26.5075 C.ar    1  UNL1        0.0537
      6 C           7.4227   -2.6143   27.0739 C.ar    1  UNL1        0.0045
      7 C           8.2344   -3.5860   26.2695 C.ar    1  UNL1        0.0001
      8 C           7.7784   -3.9902   24.8989 C.ar    1  UNL1        0.0001
      9 C           6.5106   -3.4227   24.3326 C.ar    1  UNL1        0.0032
     10 C           6.0546   -3.8269   22.9619 C.ar    1  UNL1        0.0375
     11 C           5.3432   -1.0751   27.3118 C.2     1  UNL1        0.2495
     12 O           5.8231    0.3346   27.4918 O.2     1  UNL1       -0.2698
     13 N           4.0516   -1.5131   27.9361 N.am    1  UNL1       -0.2804
     14 H           3.7366   -2.4384   27.8179 H       1  UNL1        0.1552
     15 C           3.2398   -0.5414   28.7404 C.ar    1  UNL1        0.0506
     16 C           2.2929    0.3959   28.0512 C.ar    1  UNL1        0.0155
     17 C           1.4812    1.3675   28.8554 C.ar    1  UNL1        0.0127
     18 C           1.6162    1.4019   30.3489 C.ar    1  UNL1        0.0578
     19 CL          0.8044    2.3736   31.1532 Cl      1  UNL1       -0.0822
     20 C           2.5630    0.4647   31.0381 C.ar    1  UNL1        0.0127
     21 C           3.3748   -0.5070   30.2339 C.ar    1  UNL1        0.0155
     22 O           4.3308   -3.6636   21.0249 O.3     1  UNL1       -0.4534
     23 C           1.9848    0.5201   18.5264 C.ar    1  UNL1        0.1739
     24 C           3.2523    0.2435   17.7736 C.ar    1  UNL1        0.0592
     25 C           4.1558   -0.8716   18.2100 C.ar    1  UNL1        0.0875
     26 N           5.4234   -1.1481   17.4572 N.ar    1  UNL1       -0.2435
     27 C           6.3268   -2.2632   17.8937 C.ar    1  UNL1        0.1020
     28 C           5.9626   -3.1017   19.0829 C.ar    1  UNL1        0.0581
     29 C           4.6950   -2.8251   19.8357 C.ar    1  UNL1        0.1483
     30 C           3.7916   -1.7101   19.3992 C.ar    1  UNL1        0.0554
     31 C           2.5240   -1.4335   20.1520 C.ar    1  UNL1        0.0446
     32 C           1.6206   -0.3184   19.7156 C.ar    1  UNL1        0.1726
     33 C           1.3101    3.0280   18.5974 C.3     1  UNL1        0.2526
     34 O           1.0813    1.6352   18.0899 O.3     1  UNL1       -0.4683
     35 O           0.3529   -0.0418   20.4684 O.3     1  UNL1       -0.4684
     36 C           0.3421    0.9754   21.5708 C.3     1  UNL1        0.2526
@<TRIPOS>BOND
     1    33    34    1
     2    34    23    1
     3    23    24   ar
     4    24    25   ar
     5    25    26   ar
     6    26    27   ar
     7    27    28   ar
     8    28    29   ar
     9    29    22    1
    10    22     1    1
    11     1     2   ar
    12     2     3   ar
    13     3     4   ar
    14     4     5   ar
    15     5    11    1
    16    11    12    2
    17    11    13   am
    18    13    15    1
    19    15    16   ar
    20    16    17   ar
    21    17    18   ar
    22    18    19    1
    23    18    20   ar
    24    20    21   ar
    25     5     6   ar
    26     6     7   ar
    27     7     8   ar
    28     8     9   ar
    29     9    10   ar
    30    29    30   ar
    31    30    31   ar
    32    31    32   ar
    33    32    35    1
    34    35    36    1
    35    32    23   ar
    36    30    25   ar
    37    10     1   ar
    38     9     4   ar
    39    21    15   ar
    40    13    14    1
@<TRIPOS>MOLECULE
*****
 36 40 0 0 0
SMALL
GASTEIGER

@<TRIPOS>ATOM
      1 C           2.2042   -0.8730   20.7369 C.ar    1  UNL1        0.1453
      2 C           2.7600   -0.9946   22.1248 C.ar    1  UNL1        0.0375
      3 C           2.2779   -0.0768   23.2088 C.ar    1  UNL1        0.0033
      4 C           1.2401    0.9627   22.9050 C.ar    1  UNL1        0.0046
      5 C           0.7581    1.8806   23.9891 C.ar    1  UNL1        0.0537
      6 C          -0.2798    2.9201   23.6853 C.ar    1  UNL1        0.0045
      7 C          -0.8356    3.0417   22.2973 C.ar    1  UNL1        0.0001
      8 C          -0.3535    2.1239   21.2133 C.ar    1  UNL1        0.0001
      9 C           0.6843    1.0844   21.5171 C.ar    1  UNL1        0.0032
     10 C           1.1663    0.1665   20.4330 C.ar    1  UNL1        0.0375
     11 C           1.3139    1.7590   25.3770 C.2     1  UNL1        0.2495
     12 O           2.5749    2.4826   25.7460 O.2     1  UNL1       -0.2698
     13 N           0.6087    0.9136   26.3958 N.am    1  UNL1       -0.2804
     14 H          -0.2189    0.4386   26.1536 H       1  UNL1        0.1552
     15 C           1.1645    0.7919   27.7838 C.ar    1  UNL1        0.0506
     16 C           0.7441    1.7621   28.8477 C.ar    1  UNL1        0.0155
     17 C           1.2998    1.6404   30.2356 C.ar    1  UNL1        0.0127
     18 C           2.2760    0.5486   30.5596 C.ar    1  UNL1        0.0578
     19 CL          2.8318    0.4269   31.9475 Cl      1  UNL1       -0.0822
     20 C           2.6964   -0.4216   29.4956 C.ar    1  UNL1        0.0127
     21 C           2.1406   -0.2999   28.1077 C.ar    1  UNL1        0.0155
     22 O           2.6862   -1.7908   19.6528 O.3     1  UNL1       -0.4534
     23 C           7.8984   -3.1215   20.2115 C.ar    1  UNL1        0.1739
     24 C           7.8227   -2.2340   19.0046 C.ar    1  UNL1        0.0592
     25 C           6.5007   -1.6795   18.5632 C.ar    1  UNL1        0.0875
     26 N           6.4250   -0.7920   17.3563 N.ar    1  UNL1       -0.2435
     27 C           5.1030   -0.2375   16.9149 C.ar    1  UNL1        0.1020
     28 C           3.8567   -0.5704   17.6804 C.ar    1  UNL1        0.0581
     29 C           3.9325   -1.4579   18.8873 C.ar    1  UNL1        0.1483
     30 C           5.2544   -2.0124   19.3287 C.ar    1  UNL1        0.0554
     31 C           5.3302   -2.8999   20.5356 C.ar    1  UNL1        0.0446
     32 C           6.6522   -3.4544   20.9770 C.ar    1  UNL1        0.1726
     33 C           9.4767   -5.1522   20.5794 C.3     1  UNL1        0.2526
     34 O           9.2204   -3.6761   20.6529 O.3     1  UNL1       -0.4683
     35 O           6.7279   -4.3419   22.1840 O.3     1  UNL1       -0.4684
     36 C           6.9426   -3.7436   23.5426 C.3     1  UNL1        0.2526
@<TRIPOS>BOND
     1    33    34    1
     2    34    23    1
     3    23    24   ar
     4    24    25   ar
     5    25    26   ar
     6    26    27   ar
     7    27    28   ar
     8    28    29   ar
     9    29    22    1
    10    22     1    1
    11     1     2   ar
    12     2     3   ar
    13     3     4   ar
    14     4     5   ar
    15     5    11    1
    16    11    12    2
    17    11    13   am
    18    13    15    1
    19    15    16   ar
    20    16    17   ar
    21    17    18   ar
    22    18    19    1
    23    18    20   ar
    24    20    21   ar
    25     5     6   ar
    26     6     7   ar
    27     7     8   ar
    28     8     9   ar
    29     9    10   ar
    30    29    30   ar
    31    30    31   ar
    32    31    32   ar
    33    32    35    1
    34    35    36    1
    35    32    23   ar
    36    30    25   ar
    37    10     1   ar
    38     9     4   ar
    39    21    15   ar
    40    13    14    1
@<TRIPOS>MOLECULE
*****
 36 40 0 0 0
SMALL
GASTEIGER

@<TRIPOS>ATOM
      1 C         -16.2850    0.8359   19.5407 C.ar    1  UNL1        0.1453
      2 C         -16.7814   -0.5391   19.8769 C.ar    1  UNL1        0.0375
      3 C         -15.8890   -1.7282   19.6779 C.ar    1  UNL1        0.0033
      4 C         -14.5001   -1.5423   19.1427 C.ar    1  UNL1        0.0046
      5 C         -13.6076   -2.7314   18.9437 C.ar    1  UNL1        0.0537
      6 C         -12.2187   -2.5455   18.4085 C.ar    1  UNL1        0.0045
      7 C         -11.7223   -1.1705   18.0723 C.ar    1  UNL1        0.0001
      8 C         -12.6148    0.0185   18.2713 C.ar    1  UNL1        0.0001
      9 C         -14.0036   -0.1674   18.8065 C.ar    1  UNL1        0.0032
     10 C         -14.8961    1.0218   19.0055 C.ar    1  UNL1        0.0375
     11 C         -14.1041   -4.1063   19.2799 C.2     1  UNL1        0.2495
     12 O         -13.6344   -4.7883   20.5306 O.2     1  UNL1       -0.2698
     13 N         -15.0702   -4.7993   18.3654 N.am    1  UNL1       -0.2804
     14 H         -15.3784   -4.3517   17.5445 H       1  UNL1        0.1552
     15 C         -15.5666   -6.1743   18.7015 C.ar    1  UNL1        0.0506
     16 C         -16.8832   -6.3465   19.3993 C.ar    1  UNL1        0.0155
     17 C         -17.3797   -7.7214   19.7355 C.ar    1  UNL1        0.0127
     18 C         -16.5597   -8.9241   19.3739 C.ar    1  UNL1        0.0578
     19 CL        -17.0561  -10.2991   19.7101 Cl      1  UNL1       -0.0822
     20 C         -15.2431   -8.7520   18.6761 C.ar    1  UNL1        0.0127
     21 C         -14.7465   -7.3770   18.3399 C.ar    1  UNL1        0.0155
     22 O         -17.1774    2.0250   19.7397 O.3     1  UNL1       -0.4534
     23 C         -15.3745    5.3086   23.6406 C.ar    1  UNL1        0.1739
     24 C         -16.6277    4.6793   24.1728 C.ar    1  UNL1        0.0592
     25 C         -17.3918    3.7010   23.3306 C.ar    1  UNL1        0.0875
     26 N         -18.6451    3.0717   23.8629 N.ar    1  UNL1       -0.2435
     27 C         -19.4091    2.0935   23.0207 C.ar    1  UNL1        0.1020
     28 C         -18.9199    1.7446   21.6463 C.ar    1  UNL1        0.0581
     29 C         -17.6667    2.3739   21.1141 C.ar    1  UNL1        0.1483
     30 C         -16.9026    3.3521   21.9563 C.ar    1  UNL1        0.0554
     31 C         -15.6493    3.9814   21.4241 C.ar    1  UNL1        0.0446
     32 C         -14.8852    4.9596   22.2662 C.ar    1  UNL1        0.1726
     33 C         -13.4539    5.8173   25.3148 C.3     1  UNL1        0.2526
     34 O         -14.6103    6.2868   24.4828 O.3     1  UNL1       -0.4683
     35 O         -13.6319    5.5890   21.7341 O.3     1  UNL1       -0.4684
     36 C         -13.6850    6.9487   21.1030 C.3     1  UNL1        0.2526
@<TRIPOS>BOND
     1    33    34    1
     2    34    23    1
     3    23    24   ar
     4    24    25   ar
     5    25    26   ar
     6    26    27   ar
     7    27    28   ar
     8    28    29   ar
     9    29    22    1
    10    22     1    1
    11     1     2   ar
    12     2     3   ar
    13     3     4   ar
    14     4     5   ar
    15     5    11    1
    16    11    12    2
    17    11    13   am
    18    13    15    1
    19    15    16   ar
    20    16    17   ar
    21    17    18   ar
    22    18    19    1
    23    18    20   ar
    24    20    21   ar
    25     5     6   ar
    26     6     7   ar
    27     7     8   ar
    28     8     9   ar
    29     9    10   ar
    30    29    30   ar
    31    30    31   ar
    32    31    32   ar
    33    32    35    1
    34    35    36    1
    35    32    23   ar
    36    30    25   ar
    37    10     1   ar
    38     9     4   ar
    39    21    15   ar
    40    13    14    1
@<TRIPOS>MOLECULE
*****
 36 40 0 0 0
SMALL
GASTEIGER

@<TRIPOS>ATOM
      1 C         -12.9147   -3.5486   19.6147 C.ar    1  UNL1        0.1453
      2 C         -14.2173   -2.9151   20.0047 C.ar    1  UNL1        0.0375
      3 C         -14.5460   -1.5278   19.5385 C.ar    1  UNL1        0.0033
      4 C         -13.5720   -0.7739   18.6823 C.ar    1  UNL1        0.0046
      5 C         -13.9007    0.6134   18.2160 C.ar    1  UNL1        0.0537
      6 C         -12.9267    1.3673   17.3598 C.ar    1  UNL1        0.0045
      7 C         -11.6241    0.7338   16.9698 C.ar    1  UNL1        0.0001
      8 C         -11.2955   -0.6534   17.4361 C.ar    1  UNL1        0.0001
      9 C         -12.2695   -1.4073   18.2923 C.ar    1  UNL1        0.0032
     10 C         -11.9408   -2.7947   18.7585 C.ar    1  UNL1        0.0375
     11 C         -15.2032    1.2468   18.6060 C.2     1  UNL1        0.2495
     12 O         -16.4555    0.9128   17.8508 O.2     1  UNL1       -0.2698
     13 N         -15.2535    2.2143   19.7512 N.am    1  UNL1       -0.2804
     14 H         -14.4316    2.4335   20.2469 H       1  UNL1        0.1552
     15 C         -16.5561    2.8477   20.1413 C.ar    1  UNL1        0.0506
     16 C         -16.9840    4.1363   19.5037 C.ar    1  UNL1        0.0155
     17 C         -18.2865    4.7698   19.8937 C.ar    1  UNL1        0.0127
     18 C         -19.1611    4.1147   20.9213 C.ar    1  UNL1        0.0578
     19 CL        -20.4637    4.7481   21.3113 Cl      1  UNL1       -0.0822
     20 C         -18.7332    2.8261   21.5588 C.ar    1  UNL1        0.0127
     21 C         -17.4307    2.1926   21.1688 C.ar    1  UNL1        0.0155
     22 O         -12.5861   -4.9359   20.0810 O.3     1  UNL1       -0.4534
     23 C         -16.1684   -8.4688   18.0971 C.ar    1  UNL1        0.1739
     24 C         -14.8596   -8.7889   17.4380 C.ar    1  UNL1        0.0592
     25 C         -13.6367   -7.9857   17.7692 C.ar    1  UNL1        0.0875
     26 N         -12.3279   -8.3059   17.1101 N.ar    1  UNL1       -0.2435
     27 C         -11.1052   -7.5027   17.4413 C.ar    1  UNL1        0.1020
     28 C         -11.1912   -6.3794   18.4316 C.ar    1  UNL1        0.0581
     29 C         -12.5001   -6.0592   19.0907 C.ar    1  UNL1        0.1483
     30 C         -13.7228   -6.8624   18.7595 C.ar    1  UNL1        0.0554
     31 C         -15.0317   -6.5422   19.4186 C.ar    1  UNL1        0.0446
     32 C         -16.2545   -7.3454   19.0874 C.ar    1  UNL1        0.1726
     33 C         -17.5323  -10.6720   18.2854 C.3     1  UNL1        0.2526
     34 O         -17.3912   -9.2720   17.7659 O.3     1  UNL1       -0.4683
     35 O         -17.5634   -7.0253   19.7464 O.3     1  UNL1       -0.4684
     36 C         -18.3011   -5.7718   19.3794 C.3     1  UNL1        0.2526
@<TRIPOS>BOND
     1    33    34    1
     2    34    23    1
     3    23    24   ar
     4    24    25   ar
     5    25    26   ar
     6    26    27   ar
     7    27    28   ar
     8    28    29   ar
     9    29    22    1
    10    22     1    1
    11     1     2   ar
    12     2     3   ar
    13     3     4   ar
    14     4     5   ar
    15     5    11    1
    16    11    12    2
    17    11    13   am
    18    13    15    1
    19    15    16   ar
    20    16    17   ar
    21    17    18   ar
    22    18    19    1
    23    18    20   ar
    24    20    21   ar
    25     5     6   ar
    26     6     7   ar
    27     7     8   ar
    28     8     9   ar
    29     9    10   ar
    30    29    30   ar
    31    30    31   ar
    32    31    32   ar
    33    32    35    1
    34    35    36    1
    35    32    23   ar
    36    30    25   ar
    37    10     1   ar
    38     9     4   ar
    39    21    15   ar
    40    13    14    1
@<TRIPOS>MOLECULE
*****
 36 40 0 0 0
SMALL
GASTEIGER

@<TRIPOS>ATOM
      1 C           3.8490   -1.1894   24.9929 C.ar    1  UNL1        0.1453
      2 C           2.8568   -0.1146   24.6602 C.ar    1  UNL1        0.0375
      3 C           2.3614    0.0392   23.2528 C.ar    1  UNL1        0.0033
      4 C           2.8582   -0.8817   22.1780 C.ar    1  UNL1        0.0046
      5 C           2.3627   -0.7278   20.7705 C.ar    1  UNL1        0.0537
      6 C           2.8594   -1.6487   19.6957 C.ar    1  UNL1        0.0045
      7 C           3.8516   -2.7235   20.0283 C.ar    1  UNL1        0.0001
      8 C           4.3470   -2.8773   21.4358 C.ar    1  UNL1        0.0001
      9 C           3.8503   -1.9564   22.5106 C.ar    1  UNL1        0.0032
     10 C           4.3457   -2.1103   23.9181 C.ar    1  UNL1        0.0375
     11 C           1.3706    0.3469   20.4379 C.2     1  UNL1        0.2495
     12 O          -0.0884    0.1315   20.7117 O.2     1  UNL1       -0.2698
     13 N           1.8375    1.6369   19.8315 N.am    1  UNL1       -0.2804
     14 H           2.7951    1.7782   19.6518 H       1  UNL1        0.1552
     15 C           0.8454    2.7117   19.4989 C.ar    1  UNL1        0.0506
     16 C           0.3545    2.8694   18.0903 C.ar    1  UNL1        0.0155
     17 C          -0.6375    3.9441   17.7576 C.ar    1  UNL1        0.0127
     18 C          -1.1388    4.8612   18.8335 C.ar    1  UNL1        0.0578
     19 CL         -2.1309    5.9360   18.5009 Cl      1  UNL1       -0.0822
     20 C          -0.6479    4.7035   20.2422 C.ar    1  UNL1        0.0127
     21 C           0.3442    3.6288   20.5748 C.ar    1  UNL1        0.0155
     22 O           4.3444   -1.3432   26.4003 O.3     1  UNL1       -0.4534
     23 C           1.6029    1.3181   30.2281 C.ar    1  UNL1        0.1739
     24 C           2.9006    2.0513   30.0599 C.ar    1  UNL1        0.0592
     25 C           3.9104    1.5693   29.0609 C.ar    1  UNL1        0.0875
     26 N           5.2081    2.3025   28.8928 N.ar    1  UNL1       -0.2435
     27 C           6.2179    1.8205   27.8938 C.ar    1  UNL1        0.1020
     28 C           5.9300    0.6053   27.0630 C.ar    1  UNL1        0.0581
     29 C           4.6323   -0.1280   27.2311 C.ar    1  UNL1        0.1483
     30 C           3.6225    0.3540   28.2301 C.ar    1  UNL1        0.0554
     31 C           2.3248   -0.3792   28.3983 C.ar    1  UNL1        0.0446
     32 C           1.3150    0.1028   29.3973 C.ar    1  UNL1        0.1726
     33 C           1.0372    2.5970   32.4177 C.3     1  UNL1        0.2526
     34 O           0.5930    1.8001   31.2271 O.3     1  UNL1       -0.4683
     35 O           0.0172   -0.6305   29.5655 O.3     1  UNL1       -0.4684
     36 C          -1.2069   -0.1662   28.8333 C.3     1  UNL1        0.2526
@<TRIPOS>BOND
     1    33    34    1
     2    34    23    1
     3    23    24   ar
     4    24    25   ar
     5    25    26   ar
     6    26    27   ar
     7    27    28   ar
     8    28    29   ar
     9    29    22    1
    10    22     1    1
    11     1     2   ar
    12     2     3   ar
    13     3     4   ar
    14     4     5   ar
    15     5    11    1
    16    11    12    2
    17    11    13   am
    18    13    15    1
    19    15    16   ar
    20    16    17   ar
    21    17    18   ar
    22    18    19    1
    23    18    20   ar
    24    20    21   ar
    25     5     6   ar
    26     6     7   ar
    27     7     8   ar
    28     8     9   ar
    29     9    10   ar
    30    29    30   ar
    31    30    31   ar
    32    31    32   ar
    33    32    35    1
    34    35    36    1
    35    32    23   ar
    36    30    25   ar
    37    10     1   ar
    38     9     4   ar
    39    21    15   ar
    40    13    14    1
@<TRIPOS>MOLECULE
*****
 36 40 0 0 0
SMALL
GASTEIGER

@<TRIPOS>ATOM
      1 C           5.7318   -2.0028   22.4818 C.ar    1  UNL1        0.1453
      2 C           4.4991   -1.4011   23.0890 C.ar    1  UNL1        0.0375
      3 C           3.4459   -0.7988   22.2071 C.ar    1  UNL1        0.0033
      4 C           3.6253   -0.7981   20.7178 C.ar    1  UNL1        0.0046
      5 C           2.5720   -0.1957   19.8359 C.ar    1  UNL1        0.0537
      6 C           2.7513   -0.1950   18.3466 C.ar    1  UNL1        0.0045
      7 C           3.9840   -0.7967   17.7394 C.ar    1  UNL1        0.0001
      8 C           5.0371   -1.3990   18.6213 C.ar    1  UNL1        0.0001
      9 C           4.8578   -1.3997   20.1106 C.ar    1  UNL1        0.0032
     10 C           5.9111   -2.0021   20.9925 C.ar    1  UNL1        0.0375
     11 C           1.3394    0.4060   20.4431 C.2     1  UNL1        0.2495
     12 O           0.1342   -0.4500   20.6975 O.2     1  UNL1       -0.2698
     13 N           1.3122    1.8636   20.7961 N.am    1  UNL1       -0.2804
     14 H           2.1032    2.4254   20.6291 H       1  UNL1        0.1552
     15 C           0.0796    2.4653   21.4034 C.ar    1  UNL1        0.0506
     16 C          -1.0840    2.8322   20.5307 C.ar    1  UNL1        0.0155
     17 C          -2.3165    3.4339   21.1379 C.ar    1  UNL1        0.0127
     18 C          -2.3855    3.6687   22.6178 C.ar    1  UNL1        0.0578
     19 CL         -3.6181    4.2704   23.2251 Cl      1  UNL1       -0.0822
     20 C          -1.2220    3.3017   23.4905 C.ar    1  UNL1        0.0127
     21 C           0.0106    2.7000   22.8832 C.ar    1  UNL1        0.0155
     22 O           6.7849   -2.6051   23.3637 O.3     1  UNL1       -0.4534
     23 C           7.5025   -7.3517   25.8547 C.ar    1  UNL1        0.1739
     24 C           8.1394   -7.4904   24.5037 C.ar    1  UNL1        0.0592
     25 C           8.1192   -6.3384   23.5432 C.ar    1  UNL1        0.0875
     26 N           8.7561   -6.4771   22.1922 N.ar    1  UNL1       -0.2435
     27 C           8.7359   -5.3251   21.2318 C.ar    1  UNL1        0.1020
     28 C           8.0788   -4.0345   21.6223 C.ar    1  UNL1        0.0581
     29 C           7.4420   -3.8958   22.9732 C.ar    1  UNL1        0.1483
     30 C           7.4622   -5.0477   23.9337 C.ar    1  UNL1        0.0554
     31 C           6.8253   -4.9091   25.2847 C.ar    1  UNL1        0.0446
     32 C           6.8455   -6.0610   26.2452 C.ar    1  UNL1        0.1726
     33 C           8.6989   -8.7011   27.7251 C.3     1  UNL1        0.2526
     34 O           7.5227   -8.5037   26.8153 O.3     1  UNL1       -0.4683
     35 O           6.2086   -5.9224   27.5963 O.3     1  UNL1       -0.4684
     36 C           7.0341   -5.4975   28.7744 C.3     1  UNL1        0.2526
@<TRIPOS>BOND
     1    33    34    1
     2    34    23    1
     3    23    24   ar
     4    24    25   ar
     5    25    26   ar
     6    26    27   ar
     7    27    28   ar
     8    28    29   ar
     9    29    22    1
    10    22     1    1
    11     1     2   ar
    12     2     3   ar
    13     3     4   ar
    14     4     5   ar
    15     5    11    1
    16    11    12    2
    17    11    13   am
    18    13    15    1
    19    15    16   ar
    20    16    17   ar
    21    17    18   ar
    22    18    19    1
    23    18    20   ar
    24    20    21   ar
    25     5     6   ar
    26     6     7   ar
    27     7     8   ar
    28     8     9   ar
    29     9    10   ar
    30    29    30   ar
    31    30    31   ar
    32    31    32   ar
    33    32    35    1
    34    35    36    1
    35    32    23   ar
    36    30    25   ar
    37    10     1   ar
    38     9     4   ar
    39    21    15   ar
    40    13    14    1
