@<TRIPOS>MOLECULE
*****
 40 44 0 0 0
SMALL
GASTEIGER

@<TRIPOS>ATOM
      1 C          -6.1552  -15.8927   23.9397 C.3     1  UNL1        0.1225
      2 O          -6.8655  -15.2718   25.1059 O.3     1  UNL1       -0.3559
      3 C          -8.3184  -15.5618   25.3400 C.3     1  UNL1        0.1441
      4 C          -9.0611  -16.4728   24.4080 C.3     1  UNL1        0.0589
      5 C          -8.3508  -17.0937   23.2419 C.3     1  UNL1        0.1466
      6 C          -9.0935  -18.0047   22.3099 C.ar    1  UNL1        0.0618
      7 C         -10.5464  -18.2947   22.5440 C.ar    1  UNL1        0.1407
      8 F         -11.5424  -17.8599   23.5781 F       1  UNL1       -0.2043
      9 C         -11.2890  -19.2056   21.6120 C.ar    1  UNL1        0.0319
     10 C         -10.5788  -19.8266   20.4459 C.ar    1  UNL1        0.0351
     11 C          -9.1259  -19.5366   20.2117 C.ar    1  UNL1        0.1737
     12 F          -8.4155  -20.1575   19.0455 F       1  UNL1       -0.2010
     13 C          -8.3832  -18.6256   21.1437 C.ar    1  UNL1        0.1655
     14 O          -6.9302  -18.3356   20.9095 O.3     1  UNL1       -0.4732
     15 C          -6.1875  -17.4247   21.8415 C.3     1  UNL1        0.2098
     16 C          -6.8979  -16.8037   23.0077 C.3     1  UNL1        0.0957
     17 S          -9.8037  -17.3837   23.4760 S.O2    1  UNL1        0.0094
     18 O          -9.9965  -18.0767   23.8197 O.2     1  UNL1       -0.1684
     19 O         -10.5065  -16.1705   22.9427 O.2     1  UNL1       -0.1684
     20 C         -11.2567  -17.6737   23.7101 C.ar    1  UNL1        0.1059
     21 C         -11.6635  -18.6768   24.7485 C.ar    1  UNL1        0.0192
     22 C         -13.1165  -18.9668   24.9826 C.ar    1  UNL1        0.0127
     23 C         -14.1627  -18.2536   24.1783 C.ar    1  UNL1        0.0578
     24 CL        -15.6156  -18.5436   24.4124 Cl      1  UNL1       -0.0822
     25 C         -13.7559  -17.2505   23.1399 C.ar    1  UNL1        0.0127
     26 C         -12.3029  -16.9605   22.9058 C.ar    1  UNL1        0.0192
     27 C          -4.7022  -15.6027   23.7055 C.3     1  UNL1        0.0550
     28 C          -3.7184  -16.7309   23.6085 C.3     1  UNL1        0.1534
     29 O          -3.2142  -15.4482   21.9960 O.2     1  UNL1       -0.1729
     30 S          -2.5896  -16.6590   22.6234 S.O2    1  UNL1       -0.0085
     31 O          -1.9650  -17.8698   23.2508 O.2     1  UNL1       -0.1729
     32 C          -1.4607  -16.5872   21.6383 C.3     1  UNL1        0.1681
     33 C          -1.3341  -17.6278   20.5654 C.3     1  UNL1        0.0978
     34 N          -2.4941  -18.5250   20.2504 N.3     1  UNL1       -0.2688
     35 C          -3.5595  -18.0674   19.2986 C.3     1  UNL1        0.0895
     36 C          -4.7195  -18.9647   18.9836 C.3     1  UNL1        0.0862
     37 N          -4.8142  -20.3196   19.6203 N.3     1  UNL1       -0.2951
     38 C          -3.7489  -20.7772   20.5719 C.3     1  UNL1        0.0862
     39 C          -2.5888  -19.8799   20.8870 C.3     1  UNL1        0.0895
     40 H          -4.8430  -21.0002   18.8611 H       1  UNL1        0.1233
@<TRIPOS>BOND
     1    29    30    2
     2    30    31    2
     3    30    28    1
     4    28    27    1
     5     1    27    1
     6     1     2    1
     7     2     3    1
     8     3     4    1
     9     4     5    1
    10     5    17    1
    11    17    18    2
    12    17    19    2
    13    17    20    1
    14    20    21   ar
    15    21    22   ar
    16    22    23   ar
    17    23    24    1
    18    23    25   ar
    19    25    26   ar
    20     5     6    1
    21     6     7   ar
    22     7     8    1
    23     7     9   ar
    24     9    10   ar
    25    10    11   ar
    26    11    12    1
    27    11    13   ar
    28    13    14    1
    29    14    15    1
    30    16    15    1
    31    30    32    1
    32    32    33    1
    33    33    34    1
    34    34    35    1
    35    35    36    1
    36    36    37    1
    37    37    38    1
    38    38    39    1
    39    16     1    1
    40    39    34    1
    41    16     5    1
    42    26    20   ar
    43    13     6   ar
    44    37    40    1
@<TRIPOS>MOLECULE
*****
 40 44 0 0 0
SMALL
GASTEIGER

@<TRIPOS>ATOM
      1 C          -1.0022    3.3128   20.4383 C.3     1  UNL1        0.1225
      2 O          -1.9764    3.8034   19.4087 O.3     1  UNL1       -0.3559
      3 C          -3.3205    4.3168   19.8326 C.3     1  UNL1        0.1441
      4 C          -3.6905    4.3394   21.2861 C.3     1  UNL1        0.0589
      5 C          -2.7163    3.8488   22.3157 C.3     1  UNL1        0.1466
      6 C          -3.0863    3.8714   23.7692 C.ar    1  UNL1        0.0618
      7 C          -4.4305    4.3848   24.1930 C.ar    1  UNL1        0.1407
      8 F          -5.6153    4.9358   23.4562 F       1  UNL1       -0.2043
      9 C          -4.8004    4.4074   25.6465 C.ar    1  UNL1        0.0319
     10 C          -3.8263    3.9168   26.6761 C.ar    1  UNL1        0.0351
     11 C          -2.4821    3.4034   26.2523 C.ar    1  UNL1        0.1737
     12 F          -1.5079    2.9127   27.2819 F       1  UNL1       -0.2010
     13 C          -2.1121    3.3807   24.7988 C.ar    1  UNL1        0.1655
     14 O          -0.7679    2.8674   24.3750 O.3     1  UNL1       -0.4732
     15 C          -0.3979    2.8447   22.9215 C.3     1  UNL1        0.2098
     16 C          -1.3722    3.3354   21.8918 C.3     1  UNL1        0.0957
     17 S          -4.0605    4.3621   22.7395 S.O2    1  UNL1        0.0094
     18 O          -4.1352    5.1429   22.8818 O.2     1  UNL1       -0.1684
     19 O          -4.9250    3.1365   22.7667 O.2     1  UNL1       -0.1684
     20 C          -5.4047    4.8754   23.1634 C.ar    1  UNL1        0.1059
     21 C          -6.5861    3.9516   23.1899 C.ar    1  UNL1        0.0192
     22 C          -7.9304    4.4649   23.6137 C.ar    1  UNL1        0.0127
     23 C          -8.0931    5.9021   24.0112 C.ar    1  UNL1        0.0578
     24 CL         -9.4372    6.4155   24.4350 Cl      1  UNL1       -0.0822
     25 C          -6.9116    6.8260   23.9847 C.ar    1  UNL1        0.0127
     26 C          -5.5675    6.3126   23.5609 C.ar    1  UNL1        0.0192
     27 C           0.3420    2.7994   20.0145 C.3     1  UNL1        0.0550
     28 C           0.4393    1.5832   19.1419 C.3     1  UNL1        0.1534
     29 O          -0.1528    0.1439   20.5833 O.2     1  UNL1       -0.1729
     30 S           1.0346    0.3173   19.6834 S.O2    1  UNL1       -0.0085
     31 O           2.2219    0.4907   18.7834 O.2     1  UNL1       -0.1729
     32 C           1.6299   -0.9486   20.2248 C.3     1  UNL1        0.1681
     33 C           3.0749   -0.9865   20.6253 C.3     1  UNL1        0.0978
     34 N           3.8893   -2.2217   20.3787 N.3     1  UNL1       -0.2688
     35 C           5.1415   -2.4645   21.1683 C.3     1  UNL1        0.0895
     36 C           5.9559   -3.6998   20.9217 C.3     1  UNL1        0.0862
     37 N           5.5183   -4.6922   19.8856 N.3     1  UNL1       -0.2951
     38 C           4.2662   -4.4495   19.0961 C.3     1  UNL1        0.0862
     39 C           3.4517   -3.2142   19.3426 C.3     1  UNL1        0.0895
     40 H           5.3956   -5.5840   20.3653 H       1  UNL1        0.1233
@<TRIPOS>BOND
     1    29    30    2
     2    30    31    2
     3    30    28    1
     4    28    27    1
     5     1    27    1
     6     1     2    1
     7     2     3    1
     8     3     4    1
     9     4     5    1
    10     5    17    1
    11    17    18    2
    12    17    19    2
    13    17    20    1
    14    20    21   ar
    15    21    22   ar
    16    22    23   ar
    17    23    24    1
    18    23    25   ar
    19    25    26   ar
    20     5     6    1
    21     6     7   ar
    22     7     8    1
    23     7     9   ar
    24     9    10   ar
    25    10    11   ar
    26    11    12    1
    27    11    13   ar
    28    13    14    1
    29    14    15    1
    30    16    15    1
    31    30    32    1
    32    32    33    1
    33    33    34    1
    34    34    35    1
    35    35    36    1
    36    36    37    1
    37    37    38    1
    38    38    39    1
    39    16     1    1
    40    39    34    1
    41    16     5    1
    42    26    20   ar
    43    13     6   ar
    44    37    40    1
@<TRIPOS>MOLECULE
*****
 40 44 0 0 0
SMALL
GASTEIGER

@<TRIPOS>ATOM
      1 C          -1.0913    3.4960   19.9698 C.3     1  UNL1        0.1225
      2 O          -0.7150    3.2216   18.5440 O.3     1  UNL1       -0.3559
      3 C           0.3618    2.2254   18.2309 C.3     1  UNL1        0.1441
      4 C           1.0622    1.5035   19.3437 C.3     1  UNL1        0.0589
      5 C           0.6859    1.7778   20.7695 C.3     1  UNL1        0.1466
      6 C           1.3863    1.0560   21.8823 C.ar    1  UNL1        0.0618
      7 C           2.4631    0.0597   21.5692 C.ar    1  UNL1        0.1407
      8 F           3.0766   -0.4466   20.2974 F       1  UNL1       -0.2043
      9 C           3.1635   -0.6622   22.6820 C.ar    1  UNL1        0.0319
     10 C           2.7872   -0.3878   24.1079 C.ar    1  UNL1        0.0351
     11 C           1.7104    0.6084   24.4209 C.ar    1  UNL1        0.1737
     12 F           1.3341    0.8828   25.8468 F       1  UNL1       -0.2010
     13 C           1.0100    1.3303   23.3081 C.ar    1  UNL1        0.1655
     14 O          -0.0668    2.3266   23.6213 O.3     1  UNL1       -0.4732
     15 C          -0.7672    3.0485   22.5085 C.3     1  UNL1        0.2098
     16 C          -0.3909    2.7741   21.0826 C.3     1  UNL1        0.0957
     17 S           1.7626    0.7816   20.4565 S.O2    1  UNL1        0.0094
     18 O           2.5192    1.0326   20.4661 O.2     1  UNL1       -0.1684
     19 O           1.0144   -0.4928   20.1992 O.2     1  UNL1       -0.1684
     20 C           2.8394   -0.2147   20.1434 C.ar    1  UNL1        0.1059
     21 C           2.4915   -1.6622   19.9598 C.ar    1  UNL1        0.0192
     22 C           3.5683   -2.6585   19.6467 C.ar    1  UNL1        0.0127
     23 C           4.9930   -2.2073   19.5172 C.ar    1  UNL1        0.0578
     24 CL          6.0697   -3.2035   19.2042 Cl      1  UNL1       -0.0822
     25 C           5.3408   -0.7597   19.7008 C.ar    1  UNL1        0.0127
     26 C           4.2641    0.2365   20.0139 C.ar    1  UNL1        0.0192
     27 C          -2.1681    4.4922   20.2830 C.3     1  UNL1        0.0550
     28 C          -3.6048    4.1517   20.0185 C.3     1  UNL1        0.1534
     29 O          -4.3171    2.5123   21.1609 O.2     1  UNL1       -0.1729
     30 S          -4.5608    3.9924   21.1634 S.O2    1  UNL1       -0.0085
     31 O          -4.8045    5.4724   21.1659 O.2     1  UNL1       -0.1729
     32 C          -5.5168    3.8330   22.3083 C.3     1  UNL1        0.1681
     33 C          -5.0337    3.2843   23.6180 C.3     1  UNL1        0.0978
     34 N          -5.1891    4.0918   24.8725 N.3     1  UNL1       -0.2688
     35 C          -4.1830    3.9620   25.9775 C.3     1  UNL1        0.0895
     36 C          -4.3384    4.7695   27.2320 C.3     1  UNL1        0.0862
     37 N          -5.4998    5.7068   27.3815 N.3     1  UNL1       -0.2951
     38 C          -6.5059    5.8366   26.2766 C.3     1  UNL1        0.0862
     39 C          -6.3506    5.0291   25.0220 C.3     1  UNL1        0.0895
     40 H          -5.1099    6.6367   27.5354 H       1  UNL1        0.1233
@<TRIPOS>BOND
     1    29    30    2
     2    30    31    2
     3    30    28    1
     4    28    27    1
     5     1    27    1
     6     1     2    1
     7     2     3    1
     8     3     4    1
     9     4     5    1
    10     5    17    1
    11    17    18    2
    12    17    19    2
    13    17    20    1
    14    20    21   ar
    15    21    22   ar
    16    22    23   ar
    17    23    24    1
    18    23    25   ar
    19    25    26   ar
    20     5     6    1
    21     6     7   ar
    22     7     8    1
    23     7     9   ar
    24     9    10   ar
    25    10    11   ar
    26    11    12    1
    27    11    13   ar
    28    13    14    1
    29    14    15    1
    30    16    15    1
    31    30    32    1
    32    32    33    1
    33    33    34    1
    34    34    35    1
    35    35    36    1
    36    36    37    1
    37    37    38    1
    38    38    39    1
    39    16     1    1
    40    39    34    1
    41    16     5    1
    42    26    20   ar
    43    13     6   ar
    44    37    40    1
@<TRIPOS>MOLECULE
*****
 40 44 0 0 0
SMALL
GASTEIGER

@<TRIPOS>ATOM
      1 C           3.0209    0.0039   31.6999 C.3     1  UNL1        0.1225
      2 O           3.9782   -0.6832   32.6280 O.3     1  UNL1       -0.3559
      3 C           4.2468   -0.1095   33.9876 C.3     1  UNL1        0.1441
      4 C           3.5581    1.1512   34.4192 C.3     1  UNL1        0.0589
      5 C           2.6008    1.8383   33.4910 C.3     1  UNL1        0.1466
      6 C           1.9121    3.0990   33.9225 C.ar    1  UNL1        0.0618
      7 C           2.1807    3.6727   35.2822 C.ar    1  UNL1        0.1407
      8 F           3.0509    3.2623   36.4331 F       1  UNL1       -0.2043
      9 C           1.4920    4.9335   35.7137 C.ar    1  UNL1        0.0319
     10 C           0.5347    5.6205   34.7856 C.ar    1  UNL1        0.0351
     11 C           0.2661    5.0469   33.4259 C.ar    1  UNL1        0.1737
     12 F          -0.6912    5.7340   32.4977 F       1  UNL1       -0.2010
     13 C           0.9548    3.7861   32.9944 C.ar    1  UNL1        0.1655
     14 O           0.6862    3.2124   31.6347 O.3     1  UNL1       -0.4732
     15 C           1.3749    1.9517   31.2032 C.3     1  UNL1        0.2098
     16 C           2.3322    1.2646   32.1314 C.3     1  UNL1        0.0957
     17 S           2.8694    2.4120   34.8507 S.O2    1  UNL1        0.0094
     18 O           2.3511    2.2501   35.4344 O.2     1  UNL1       -0.1684
     19 O           4.1449    3.1816   34.6744 O.2     1  UNL1       -0.1684
     20 C           3.1380    2.9857   36.2104 C.ar    1  UNL1        0.1059
     21 C           2.3428    2.5169   37.3927 C.ar    1  UNL1        0.0192
     22 C           2.6115    3.0907   38.7524 C.ar    1  UNL1        0.0127
     23 C           3.6754    4.1331   38.9297 C.ar    1  UNL1        0.0578
     24 CL          3.9440    4.7069   40.2893 Cl      1  UNL1       -0.0822
     25 C           4.4706    4.6019   37.7473 C.ar    1  UNL1        0.0127
     26 C           4.2019    4.0282   36.3877 C.ar    1  UNL1        0.0192
     27 C           2.7523   -0.5698   30.3401 C.3     1  UNL1        0.0550
     28 C           3.5525   -0.1063   29.1591 C.3     1  UNL1        0.1534
     29 O           5.6727   -0.1516   29.2056 O.2     1  UNL1       -0.1729
     30 S           4.6075   -0.9963   28.5720 S.O2    1  UNL1       -0.0085
     31 O           3.5422   -1.8411   27.9384 O.2     1  UNL1       -0.1729
     32 C           5.6625   -1.8865   27.9849 C.3     1  UNL1        0.1681
     33 C           6.8723   -2.2500   28.7937 C.3     1  UNL1        0.0978
     34 N           6.7522   -3.2284   29.9243 N.3     1  UNL1       -0.2688
     35 C           6.4266   -2.7421   31.3056 C.3     1  UNL1        0.0895
     36 C           6.3066   -3.7205   32.4362 C.3     1  UNL1        0.0862
     37 N           6.5121   -5.1851   32.1857 N.3     1  UNL1       -0.2951
     38 C           6.8377   -5.6713   30.8046 C.3     1  UNL1        0.0862
     39 C           6.9577   -4.6930   29.6738 C.3     1  UNL1        0.0895
     40 H           5.6524   -5.6556   32.4685 H       1  UNL1        0.1233
@<TRIPOS>BOND
     1    29    30    2
     2    30    31    2
     3    30    28    1
     4    28    27    1
     5     1    27    1
     6     1     2    1
     7     2     3    1
     8     3     4    1
     9     4     5    1
    10     5    17    1
    11    17    18    2
    12    17    19    2
    13    17    20    1
    14    20    21   ar
    15    21    22   ar
    16    22    23   ar
    17    23    24    1
    18    23    25   ar
    19    25    26   ar
    20     5     6    1
    21     6     7   ar
    22     7     8    1
    23     7     9   ar
    24     9    10   ar
    25    10    11   ar
    26    11    12    1
    27    11    13   ar
    28    13    14    1
    29    14    15    1
    30    16    15    1
    31    30    32    1
    32    32    33    1
    33    33    34    1
    34    34    35    1
    35    35    36    1
    36    36    37    1
    37    37    38    1
    38    38    39    1
    39    16     1    1
    40    39    34    1
    41    16     5    1
    42    26    20   ar
    43    13     6   ar
    44    37    40    1
@<TRIPOS>MOLECULE
*****
 40 44 0 0 0
SMALL
GASTEIGER

@<TRIPOS>ATOM
      1 C           6.5729   -3.3472   30.0059 C.3     1  UNL1        0.1225
      2 O           6.2174   -2.0012   29.4474 O.3     1  UNL1       -0.3559
      3 C           6.2690   -1.7662   27.9669 C.3     1  UNL1        0.1441
      4 C           6.6760   -2.8771   27.0449 C.3     1  UNL1        0.0589
      5 C           7.0315   -4.2231   27.6034 C.3     1  UNL1        0.1466
      6 C           7.4385   -5.3340   26.6813 C.ar    1  UNL1        0.0618
      7 C           7.4901   -5.0990   25.2008 C.ar    1  UNL1        0.1407
      8 F           7.2093   -3.9153   24.3232 F       1  UNL1       -0.2043
      9 C           7.8972   -6.2099   24.2788 C.ar    1  UNL1        0.0319
     10 C           8.2526   -7.5559   24.8373 C.ar    1  UNL1        0.0351
     11 C           8.2011   -7.7909   26.3178 C.ar    1  UNL1        0.1737
     12 F           8.5565   -9.1369   26.8764 F       1  UNL1       -0.2010
     13 C           7.7940   -6.6800   27.2399 C.ar    1  UNL1        0.1655
     14 O           7.7424   -6.9150   28.7205 O.3     1  UNL1       -0.4732
     15 C           7.3354   -5.8041   29.6425 C.3     1  UNL1        0.2098
     16 C           6.9799   -4.4581   29.0839 C.3     1  UNL1        0.0957
     17 S           7.0831   -3.9880   26.1228 S.O2    1  UNL1        0.0094
     18 O           6.5427   -4.3556   25.6664 O.2     1  UNL1       -0.1684
     19 O           8.2397   -3.0497   25.9444 O.2     1  UNL1       -0.1684
     20 C           7.1347   -3.7530   24.6422 C.ar    1  UNL1        0.1059
     21 C           5.8849   -3.8667   23.8207 C.ar    1  UNL1        0.0192
     22 C           5.9365   -3.6316   22.3401 C.ar    1  UNL1        0.0127
     23 C           7.2380   -3.2828   21.6811 C.ar    1  UNL1        0.0578
     24 CL          7.2897   -3.0478   20.2005 Cl      1  UNL1       -0.0822
     25 C           8.4879   -3.1691   22.5026 C.ar    1  UNL1        0.0127
     26 C           8.4363   -3.4042   23.9832 C.ar    1  UNL1        0.0192
     27 C           6.5213   -3.5822   31.4866 C.3     1  UNL1        0.0550
     28 C           6.7106   -2.4357   32.4350 C.3     1  UNL1        0.1534
     29 O           6.2147   -0.4130   32.8382 O.2     1  UNL1       -0.1729
     30 S           5.5167   -1.7300   33.0064 S.O2    1  UNL1       -0.0085
     31 O           4.8188   -3.0470   33.1746 O.2     1  UNL1       -0.1729
     32 C           4.3227   -1.0243   33.5778 C.3     1  UNL1        0.1681
     33 C           3.9533    0.3435   33.0854 C.3     1  UNL1        0.0978
     34 N           2.8935    0.5019   32.0358 N.3     1  UNL1       -0.2688
     35 C           1.9196    1.6397   32.1189 C.3     1  UNL1        0.0895
     36 C           0.8599    1.7981   31.0692 C.3     1  UNL1        0.0862
     37 N           0.7739    0.8186   29.9365 N.3     1  UNL1       -0.2951
     38 C           1.7478   -0.3192   29.8533 C.3     1  UNL1        0.0862
     39 C           2.8076   -0.4776   30.9030 C.3     1  UNL1        0.0895
     40 H           0.8740    1.3553   29.0749 H       1  UNL1        0.1233
@<TRIPOS>BOND
     1    29    30    2
     2    30    31    2
     3    30    28    1
     4    28    27    1
     5     1    27    1
     6     1     2    1
     7     2     3    1
     8     3     4    1
     9     4     5    1
    10     5    17    1
    11    17    18    2
    12    17    19    2
    13    17    20    1
    14    20    21   ar
    15    21    22   ar
    16    22    23   ar
    17    23    24    1
    18    23    25   ar
    19    25    26   ar
    20     5     6    1
    21     6     7   ar
    22     7     8    1
    23     7     9   ar
    24     9    10   ar
    25    10    11   ar
    26    11    12    1
    27    11    13   ar
    28    13    14    1
    29    14    15    1
    30    16    15    1
    31    30    32    1
    32    32    33    1
    33    33    34    1
    34    34    35    1
    35    35    36    1
    36    36    37    1
    37    37    38    1
    38    38    39    1
    39    16     1    1
    40    39    34    1
    41    16     5    1
    42    26    20   ar
    43    13     6   ar
    44    37    40    1
@<TRIPOS>MOLECULE
*****
 40 44 0 0 0
SMALL
GASTEIGER

@<TRIPOS>ATOM
      1 C           4.4663   -2.2200   19.2799 C.3     1  UNL1        0.1225
      2 O           4.6150   -1.8685   17.8293 O.3     1  UNL1       -0.3559
      3 C           3.9352   -0.6497   17.2794 C.3     1  UNL1        0.1441
      4 C           3.1067    0.2176   18.1801 C.3     1  UNL1        0.0589
      5 C           2.9579   -0.1339   19.6307 C.3     1  UNL1        0.1466
      6 C           2.1293    0.7334   20.5314 C.ar    1  UNL1        0.0618
      7 C           1.4495    1.9521   19.9816 C.ar    1  UNL1        0.1407
      8 F           1.3831    2.5847   18.6230 F       1  UNL1       -0.2043
      9 C           0.6210    2.8194   20.8823 C.ar    1  UNL1        0.0319
     10 C           0.4722    2.4679   22.3329 C.ar    1  UNL1        0.0351
     11 C           1.1520    1.2491   22.8828 C.ar    1  UNL1        0.1737
     12 F           1.0033    0.8976   24.3334 F       1  UNL1       -0.2010
     13 C           1.9806    0.3819   21.9820 C.ar    1  UNL1        0.1655
     14 O           2.6604   -0.8370   22.5320 O.3     1  UNL1       -0.4732
     15 C           3.4890   -1.7043   21.6313 C.3     1  UNL1        0.2098
     16 C           3.6377   -1.3527   20.1806 C.3     1  UNL1        0.0957
     17 S           2.2781    1.0849   19.0809 S.O2    1  UNL1        0.0094
     18 O           2.6307    1.7915   19.1899 O.2     1  UNL1       -0.1684
     19 O           1.0335    0.5476   18.4385 O.2     1  UNL1       -0.1684
     20 C           1.5982    2.3037   18.5309 C.ar    1  UNL1        0.1059
     21 C           2.3592    3.5889   18.3929 C.ar    1  UNL1        0.0192
     22 C           1.6793    4.8077   17.8430 C.ar    1  UNL1        0.0127
     23 C           0.2385    4.7412   17.4311 C.ar    1  UNL1        0.0578
     24 CL         -0.4414    5.9599   16.8812 Cl      1  UNL1       -0.0822
     25 C          -0.5225    3.4559   17.5692 C.ar    1  UNL1        0.0127
     26 C           0.1574    2.2372   18.1191 C.ar    1  UNL1        0.0192
     27 C           5.1461   -3.4388   19.8298 C.3     1  UNL1        0.0550
     28 C           6.6388   -3.4638   19.9748 C.3     1  UNL1        0.1534
     29 O           7.5515   -5.1425   20.8961 O.2     1  UNL1       -0.1729
     30 S           7.2579   -3.7323   21.3144 S.O2    1  UNL1       -0.0085
     31 O           6.9643   -2.3221   21.7327 O.2     1  UNL1       -0.1729
     32 C           7.8769   -4.0008   22.6541 C.3     1  UNL1        0.1681
     33 C           8.2293   -5.4041   23.0498 C.3     1  UNL1        0.0978
     34 N           7.7934   -5.9396   24.3814 N.3     1  UNL1       -0.2688
     35 C           7.0739   -5.0478   25.3495 C.3     1  UNL1        0.0895
     36 C           6.6380   -5.5834   26.6810 C.3     1  UNL1        0.0862
     37 N           6.9215   -7.0108   27.0446 N.3     1  UNL1       -0.2951
     38 C           7.6410   -7.9026   26.0766 C.3     1  UNL1        0.0862
     39 C           8.0769   -7.3670   24.7450 C.3     1  UNL1        0.0895
     40 H           6.0213   -7.4502   27.2365 H       1  UNL1        0.1233
@<TRIPOS>BOND
     1    29    30    2
     2    30    31    2
     3    30    28    1
     4    28    27    1
     5     1    27    1
     6     1     2    1
     7     2     3    1
     8     3     4    1
     9     4     5    1
    10     5    17    1
    11    17    18    2
    12    17    19    2
    13    17    20    1
    14    20    21   ar
    15    21    22   ar
    16    22    23   ar
    17    23    24    1
    18    23    25   ar
    19    25    26   ar
    20     5     6    1
    21     6     7   ar
    22     7     8    1
    23     7     9   ar
    24     9    10   ar
    25    10    11   ar
    26    11    12    1
    27    11    13   ar
    28    13    14    1
    29    14    15    1
    30    16    15    1
    31    30    32    1
    32    32    33    1
    33    33    34    1
    34    34    35    1
    35    35    36    1
    36    36    37    1
    37    37    38    1
    38    38    39    1
    39    16     1    1
    40    39    34    1
    41    16     5    1
    42    26    20   ar
    43    13     6   ar
    44    37    40    1
@<TRIPOS>MOLECULE
*****
 40 44 0 0 0
SMALL
GASTEIGER

@<TRIPOS>ATOM
      1 C          -1.5697    3.0548   24.9522 C.3     1  UNL1        0.1225
      2 O          -0.6660    2.8501   23.7727 O.3     1  UNL1       -0.3559
      3 C          -1.1624    3.1427   22.3878 C.3     1  UNL1        0.1441
      4 C          -2.5625    3.6400   22.1824 C.3     1  UNL1        0.0589
      5 C          -3.4663    3.8447   23.3619 C.3     1  UNL1        0.1466
      6 C          -4.8665    4.3420   23.1565 C.ar    1  UNL1        0.0618
      7 C          -5.3629    4.6345   21.7716 C.ar    1  UNL1        0.1407
      8 F          -4.7509    4.5463   20.4049 F       1  UNL1       -0.2043
      9 C          -6.7631    5.1318   21.5662 C.ar    1  UNL1        0.0319
     10 C          -7.6669    5.3365   22.7457 C.ar    1  UNL1        0.0351
     11 C          -7.1705    5.0440   24.1306 C.ar    1  UNL1        0.1737
     12 F          -8.0743    5.2487   25.3101 F       1  UNL1       -0.2010
     13 C          -5.7703    4.5467   24.3360 C.ar    1  UNL1        0.1655
     14 O          -5.2739    4.2541   25.7209 O.3     1  UNL1       -0.4732
     15 C          -3.8737    3.7568   25.9263 C.3     1  UNL1        0.2098
     16 C          -2.9699    3.5521   24.7468 C.3     1  UNL1        0.0957
     17 S          -3.9627    4.1373   21.9770 S.O2    1  UNL1        0.0094
     18 O          -3.9623    4.8957   21.7316 O.2     1  UNL1       -0.1684
     19 O          -4.3399    2.7905   21.4346 O.2     1  UNL1       -0.1684
     20 C          -4.4592    4.4298   20.5920 C.ar    1  UNL1        0.1059
     21 C          -4.2305    5.7815   19.9833 C.ar    1  UNL1        0.0192
     22 C          -4.7270    6.0740   18.5983 C.ar    1  UNL1        0.0127
     23 C          -5.4520    5.0148   17.8222 C.ar    1  UNL1        0.0578
     24 CL         -5.9485    5.3073   16.4373 Cl      1  UNL1       -0.0822
     25 C          -5.6807    3.6631   18.4310 C.ar    1  UNL1        0.0127
     26 C          -5.1842    3.3706   19.8159 C.ar    1  UNL1        0.0192
     27 C          -1.0734    2.7623   26.3371 C.3     1  UNL1        0.0550
     28 C           0.1010    1.8505   26.5359 C.3     1  UNL1        0.1534
     29 O          -1.2383    1.3012   28.0866 O.2     1  UNL1       -0.1729
     30 S           0.2026    1.0187   27.7800 S.O2    1  UNL1       -0.0085
     31 O           1.6434    0.7361   27.4734 O.2     1  UNL1       -0.1729
     32 C           0.3042    0.1868   29.0241 C.3     1  UNL1        0.1681
     33 C           1.6500   -0.1361   29.6025 C.3     1  UNL1        0.0978
     34 N           2.0330    0.3944   30.9522 N.3     1  UNL1       -0.2688
     35 C           3.1083   -0.2848   31.7476 C.3     1  UNL1        0.0895
     36 C           3.4914    0.2457   33.0973 C.3     1  UNL1        0.0862
     37 N           2.7993    1.4554   33.6517 N.3     1  UNL1       -0.2951
     38 C           1.7240    2.1347   32.8565 C.3     1  UNL1        0.0862
     39 C           1.3409    1.6041   31.5067 C.3     1  UNL1        0.0895
     40 H           3.5218    2.1538   33.8266 H       1  UNL1        0.1233
@<TRIPOS>BOND
     1    29    30    2
     2    30    31    2
     3    30    28    1
     4    28    27    1
     5     1    27    1
     6     1     2    1
     7     2     3    1
     8     3     4    1
     9     4     5    1
    10     5    17    1
    11    17    18    2
    12    17    19    2
    13    17    20    1
    14    20    21   ar
    15    21    22   ar
    16    22    23   ar
    17    23    24    1
    18    23    25   ar
    19    25    26   ar
    20     5     6    1
    21     6     7   ar
    22     7     8    1
    23     7     9   ar
    24     9    10   ar
    25    10    11   ar
    26    11    12    1
    27    11    13   ar
    28    13    14    1
    29    14    15    1
    30    16    15    1
    31    30    32    1
    32    32    33    1
    33    33    34    1
    34    34    35    1
    35    35    36    1
    36    36    37    1
    37    37    38    1
    38    38    39    1
    39    16     1    1
    40    39    34    1
    41    16     5    1
    42    26    20   ar
    43    13     6   ar
    44    37    40    1
@<TRIPOS>MOLECULE
*****
 40 44 0 0 0
SMALL
GASTEIGER

@<TRIPOS>ATOM
      1 C           1.3399    4.4132   34.7850 C.3     1  UNL1        0.1225
      2 O           0.3420    5.2525   34.0436 O.3     1  UNL1       -0.3559
      3 C          -0.0620    4.8796   32.6481 C.3     1  UNL1        0.1441
      4 C           0.5319    3.6674   31.9939 C.3     1  UNL1        0.0589
      5 C           1.5298    2.8281   32.7353 C.3     1  UNL1        0.1466
      6 C           2.1237    1.6160   32.0812 C.ar    1  UNL1        0.0618
      7 C           1.7197    1.2430   30.6856 C.ar    1  UNL1        0.1407
      8 F           0.7778    1.8359   29.6798 F       1  UNL1       -0.2043
      9 C           2.3136    0.0309   30.0315 C.ar    1  UNL1        0.0319
     10 C           3.3115   -0.8084   30.7729 C.ar    1  UNL1        0.0351
     11 C           3.7156   -0.4355   32.1684 C.ar    1  UNL1        0.1737
     12 F           4.7135   -1.2747   32.9099 F       1  UNL1       -0.2010
     13 C           3.1216    0.7767   32.8226 C.ar    1  UNL1        0.1655
     14 O           3.5257    1.1496   34.2182 O.3     1  UNL1       -0.4732
     15 C           2.9318    2.3618   34.8724 C.3     1  UNL1        0.2098
     16 C           1.9338    3.2011   34.1309 C.3     1  UNL1        0.0957
     17 S           1.1258    2.4552   31.3398 S.O2    1  UNL1        0.0094
     18 O           0.5842    1.8773   31.2486 O.2     1  UNL1       -0.1684
     19 O           1.9394    3.3675   30.4703 O.2     1  UNL1       -0.1684
     20 C           0.7217    2.0823   29.9441 C.ar    1  UNL1        0.1059
     21 C           1.4795    2.6315   28.7719 C.ar    1  UNL1        0.0192
     22 C           1.0754    2.2586   27.3763 C.ar    1  UNL1        0.0127
     23 C          -0.0863    1.3365   27.1529 C.ar    1  UNL1        0.0578
     24 CL         -0.4904    0.9635   25.7574 Cl      1  UNL1       -0.0822
     25 C          -0.8441    0.7872   28.3252 C.ar    1  UNL1        0.0127
     26 C          -0.4400    1.1601   29.7208 C.ar    1  UNL1        0.0192
     27 C           1.7440    4.7862   36.1807 C.3     1  UNL1        0.0550
     28 C           1.2559    3.9757   37.3447 C.3     1  UNL1        0.1534
     29 O           1.2546    2.0086   38.1385 O.2     1  UNL1       -0.1729
     30 S           2.2228    3.1542   38.1447 S.O2    1  UNL1       -0.0085
     31 O           3.1910    4.2998   38.1509 O.2     1  UNL1       -0.1729
     32 C           3.1899    2.3327   38.9448 C.3     1  UNL1        0.1681
     33 C           3.7381    1.0567   38.3781 C.3     1  UNL1        0.0978
     34 N           5.0369    1.0663   37.6278 N.3     1  UNL1       -0.2688
     35 C           5.9883    2.2147   37.7900 C.3     1  UNL1        0.0895
     36 C           7.2871    2.2243   37.0397 C.3     1  UNL1        0.0862
     37 N           7.6345    1.0857   36.1272 N.3     1  UNL1       -0.2951
     38 C           6.6832   -0.0626   35.9649 C.3     1  UNL1        0.0862
     39 C           5.3844   -0.0723   36.7152 C.3     1  UNL1        0.0895
     40 H           8.5134    0.6943   36.4661 H       1  UNL1        0.1233
@<TRIPOS>BOND
     1    29    30    2
     2    30    31    2
     3    30    28    1
     4    28    27    1
     5     1    27    1
     6     1     2    1
     7     2     3    1
     8     3     4    1
     9     4     5    1
    10     5    17    1
    11    17    18    2
    12    17    19    2
    13    17    20    1
    14    20    21   ar
    15    21    22   ar
    16    22    23   ar
    17    23    24    1
    18    23    25   ar
    19    25    26   ar
    20     5     6    1
    21     6     7   ar
    22     7     8    1
    23     7     9   ar
    24     9    10   ar
    25    10    11   ar
    26    11    12    1
    27    11    13   ar
    28    13    14    1
    29    14    15    1
    30    16    15    1
    31    30    32    1
    32    32    33    1
    33    33    34    1
    34    34    35    1
    35    35    36    1
    36    36    37    1
    37    37    38    1
    38    38    39    1
    39    16     1    1
    40    39    34    1
    41    16     5    1
    42    26    20   ar
    43    13     6   ar
    44    37    40    1
@<TRIPOS>MOLECULE
*****
 40 44 0 0 0
SMALL
GASTEIGER

@<TRIPOS>ATOM
      1 C           7.9750   -1.8829   23.5406 C.3     1  UNL1        0.1225
      2 O           7.6561   -0.4665   23.9177 O.3     1  UNL1       -0.3559
      3 C           6.5480    0.2642   23.2192 C.3     1  UNL1        0.1441
      4 C           5.7586   -0.4215   22.1436 C.3     1  UNL1        0.0589
      5 C           6.0775   -1.8378   21.7665 C.3     1  UNL1        0.1466
      6 C           5.2881   -2.5235   20.6910 C.ar    1  UNL1        0.0618
      7 C           4.1800   -1.7928   19.9925 C.ar    1  UNL1        0.1407
      8 F           3.6054   -0.4121   20.1105 F       1  UNL1       -0.2043
      9 C           3.3906   -2.4784   18.9169 C.ar    1  UNL1        0.0319
     10 C           3.7095   -3.8948   18.5399 C.ar    1  UNL1        0.0351
     11 C           4.8176   -4.6255   19.2384 C.ar    1  UNL1        0.1737
     12 F           5.1365   -6.0419   18.8613 F       1  UNL1       -0.2010
     13 C           5.6070   -3.9398   20.3139 C.ar    1  UNL1        0.1655
     14 O           6.7152   -4.6706   21.0125 O.3     1  UNL1       -0.4732
     15 C           7.5045   -3.9850   22.0880 C.3     1  UNL1        0.2098
     16 C           7.1856   -2.5685   22.4651 C.3     1  UNL1        0.0957
     17 S           4.9693   -1.1071   21.0680 S.O2    1  UNL1        0.0094
     18 O           4.2228   -1.2313   21.3185 O.2     1  UNL1       -0.1684
     19 O           5.6730   -0.2962   20.0204 O.2     1  UNL1       -0.1684
     20 C           3.8611   -0.3763   20.3695 C.ar    1  UNL1        0.1059
     21 C           2.4661   -0.4275   20.9184 C.ar    1  UNL1        0.0192
     22 C           1.3579    0.3033   20.2198 C.ar    1  UNL1        0.0127
     23 C           1.6448    1.0852   18.9723 C.ar    1  UNL1        0.0578
     24 CL          0.5367    1.8159   18.2737 Cl      1  UNL1       -0.0822
     25 C           3.0398    1.1363   18.4233 C.ar    1  UNL1        0.0127
     26 C           4.1479    0.4056   19.1219 C.ar    1  UNL1        0.0192
     27 C           9.0832   -2.6137   24.2391 C.3     1  UNL1        0.0550
     28 C           8.7726   -3.8047   25.0965 C.3     1  UNL1        0.1534
     29 O           8.5619   -2.6625   26.8715 O.2     1  UNL1       -0.1729
     30 S           7.7352   -3.7023   26.1750 S.O2    1  UNL1       -0.0085
     31 O           6.9085   -4.7422   25.4784 O.2     1  UNL1       -0.1729
     32 C           6.6977   -3.6001   27.2535 C.3     1  UNL1        0.1681
     33 C           7.0151   -2.8869   28.5343 C.3     1  UNL1        0.0978
     34 N           6.8331   -3.5877   29.8479 N.3     1  UNL1       -0.2688
     35 C           6.3641   -2.8206   31.0487 C.3     1  UNL1        0.0895
     36 C           6.1821   -3.5215   32.3623 C.3     1  UNL1        0.0862
     37 N           6.4690   -4.9894   32.4753 N.3     1  UNL1       -0.2951
     38 C           6.9380   -5.7565   31.2746 C.3     1  UNL1        0.0862
     39 C           7.1200   -5.0557   29.9609 C.3     1  UNL1        0.0895
     40 H           5.6072   -5.4345   32.7909 H       1  UNL1        0.1233
@<TRIPOS>BOND
     1    29    30    2
     2    30    31    2
     3    30    28    1
     4    28    27    1
     5     1    27    1
     6     1     2    1
     7     2     3    1
     8     3     4    1
     9     4     5    1
    10     5    17    1
    11    17    18    2
    12    17    19    2
    13    17    20    1
    14    20    21   ar
    15    21    22   ar
    16    22    23   ar
    17    23    24    1
    18    23    25   ar
    19    25    26   ar
    20     5     6    1
    21     6     7   ar
    22     7     8    1
    23     7     9   ar
    24     9    10   ar
    25    10    11   ar
    26    11    12    1
    27    11    13   ar
    28    13    14    1
    29    14    15    1
    30    16    15    1
    31    30    32    1
    32    32    33    1
    33    33    34    1
    34    34    35    1
    35    35    36    1
    36    36    37    1
    37    37    38    1
    38    38    39    1
    39    16     1    1
    40    39    34    1
    41    16     5    1
    42    26    20   ar
    43    13     6   ar
    44    37    40    1
