@<TRIPOS>MOLECULE
*****
 29 32 0 0 0
SMALL
GASTEIGER

@<TRIPOS>ATOM
      1 C         -10.7839   -5.1917   18.2375 C.ar    1  UNL1        0.1388
      2 C         -10.7871   -3.8842   18.9725 C.ar    1  UNL1        0.0384
      3 C         -12.0220   -3.0328   18.9830 C.ar    1  UNL1        0.0221
      4 C         -13.2537   -3.4889   18.2584 C.ar    1  UNL1        0.0825
      5 C         -13.2504   -4.7964   17.5235 C.ar    1  UNL1        0.0194
      6 C         -12.0155   -5.6479   17.5130 C.ar    1  UNL1        0.0382
      7 C         -14.6038   -4.9835   16.9042 C.ar    1  UNL1        0.0144
      8 C         -15.4435   -3.7915   17.2565 C.ar    1  UNL1        0.0970
      9 N         -14.6090   -2.8678   18.0935 N.ar    1  UNL1       -0.2080
     10 S         -15.0521   -1.5537   18.6651 S.O2    1  UNL1        0.0860
     11 O         -14.5063   -0.8457   17.4606 O.2     1  UNL1       -0.1476
     12 O         -15.5979   -2.2617   19.8696 O.2     1  UNL1       -0.1476
     13 C         -15.4953   -0.2396   19.2368 C.ar    1  UNL1        0.1278
     14 C         -14.8695    1.0363   18.7571 C.ar    1  UNL1        0.0227
     15 C         -15.3126    2.3504   19.3288 C.ar    1  UNL1        0.0310
     16 C         -16.3817    2.3885   20.3803 C.ar    1  UNL1        0.1402
     17 F         -16.8249    3.7025   20.9520 F       1  UNL1       -0.2042
     18 C         -17.0076    1.1125   20.8600 C.ar    1  UNL1        0.0310
     19 C         -16.5644   -0.2015   20.2883 C.ar    1  UNL1        0.0227
     20 C          -9.6389   -7.4991   18.5764 C.3     1  UNL1        0.2525
     21 O          -9.5490   -6.0432   18.2270 O.3     1  UNL1       -0.4714
     22 C         -15.0408   -6.1566   16.0778 C.3     1  UNL1        0.1008
     23 N         -15.5586   -7.3947   16.7478 N.3     1  UNL1       -0.2665
     24 C         -14.5987   -8.3957   17.3192 C.3     1  UNL1        0.0899
     25 C         -15.1165   -9.6338   17.9892 C.3     1  UNL1        0.0897
     26 N         -16.5943   -9.8710   18.0878 N.3     1  UNL1       -0.2691
     27 C         -17.1122  -11.1091   18.7578 C.3     1  UNL1        0.0897
     28 C         -17.5543   -8.8699   17.5164 C.3     1  UNL1        0.0897
     29 C         -17.0365   -7.6318   16.8464 C.3     1  UNL1        0.0899
@<TRIPOS>BOND
     1    20    21    1
     2    21     1    1
     3     1     2   ar
     4     2     3   ar
     5     3     4   ar
     6     4     5   ar
     7     5     6   ar
     8     5     7   ar
     9     7    22    1
    10    22    23    1
    11    23    24    1
    12    24    25    1
    13    25    26    1
    14    26    27    1
    15    26    28    1
    16    28    29    1
    17     7     8   ar
    18     8     9   ar
    19     9    10    1
    20    10    11    2
    21    10    12    2
    22    10    13    1
    23    13    14   ar
    24    14    15   ar
    25    15    16   ar
    26    16    17    1
    27    16    18   ar
    28    18    19   ar
    29     6     1   ar
    30    29    23    1
    31    19    13   ar
    32     9     4   ar
@<TRIPOS>MOLECULE
*****
 29 32 0 0 0
SMALL
GASTEIGER

@<TRIPOS>ATOM
      1 C          -0.6548    2.2801   25.6511 C.ar    1  UNL1        0.1388
      2 C           0.2949    1.1670   25.3208 C.ar    1  UNL1        0.0384
      3 C           0.7480    0.9629   23.9056 C.ar    1  UNL1        0.0221
      4 C           0.2515    1.8718   22.8206 C.ar    1  UNL1        0.0825
      5 C          -0.6982    2.9849   23.1509 C.ar    1  UNL1        0.0194
      6 C          -1.1513    3.1890   24.5662 C.ar    1  UNL1        0.0382
      7 C          -1.0155    3.7159   21.8800 C.ar    1  UNL1        0.0144
      8 C          -0.2620    3.0546   20.7644 C.ar    1  UNL1        0.0970
      9 N           0.5211    1.9149   21.3457 N.ar    1  UNL1       -0.2080
     10 S           1.4166    0.9820   20.5855 S.O2    1  UNL1        0.0860
     11 O           2.5436    1.9643   20.7078 O.2     1  UNL1       -0.1476
     12 O           0.2895   -0.0002   20.4632 O.2     1  UNL1       -0.1476
     13 C           2.3120    0.0491   19.8253 C.ar    1  UNL1        0.1278
     14 C           2.8111    0.4317   18.4635 C.ar    1  UNL1        0.0227
     15 C           3.7065   -0.5012   17.7033 C.ar    1  UNL1        0.0310
     16 C           4.1029   -1.8168   18.3050 C.ar    1  UNL1        0.1402
     17 F           4.9983   -2.7498   17.5449 F       1  UNL1       -0.2042
     18 C           3.6038   -2.1995   19.6668 C.ar    1  UNL1        0.0310
     19 C           2.7084   -1.2666   20.4269 C.ar    1  UNL1        0.0227
     20 C          -1.0140    1.3589   28.0537 C.3     1  UNL1        0.2525
     21 O          -1.1079    2.4842   27.0664 O.3     1  UNL1       -0.4714
     22 C          -1.9265    4.9003   21.7481 C.3     1  UNL1        0.1008
     23 N          -3.3613    4.7937   22.1723 N.3     1  UNL1       -0.2665
     24 C          -4.2734    3.8153   21.4937 C.3     1  UNL1        0.0899
     25 C          -5.7082    3.7087   21.9178 C.3     1  UNL1        0.0897
     26 N          -6.2310    4.5807   23.0207 N.3     1  UNL1       -0.2691
     27 C          -7.6658    4.4742   23.4449 C.3     1  UNL1        0.0897
     28 C          -5.3189    5.5593   23.6994 C.3     1  UNL1        0.0897
     29 C          -3.8840    5.6658   23.2752 C.3     1  UNL1        0.0899
@<TRIPOS>BOND
     1    20    21    1
     2    21     1    1
     3     1     2   ar
     4     2     3   ar
     5     3     4   ar
     6     4     5   ar
     7     5     6   ar
     8     5     7   ar
     9     7    22    1
    10    22    23    1
    11    23    24    1
    12    24    25    1
    13    25    26    1
    14    26    27    1
    15    26    28    1
    16    28    29    1
    17     7     8   ar
    18     8     9   ar
    19     9    10    1
    20    10    11    2
    21    10    12    2
    22    10    13    1
    23    13    14   ar
    24    14    15   ar
    25    15    16   ar
    26    16    17    1
    27    16    18   ar
    28    18    19   ar
    29     6     1   ar
    30    29    23    1
    31    19    13   ar
    32     9     4   ar
@<TRIPOS>MOLECULE
*****
 29 32 0 0 0
SMALL
GASTEIGER

@<TRIPOS>ATOM
      1 C          -0.5298    2.4048   25.1853 C.ar    1  UNL1        0.1388
      2 C           0.4247    1.2641   24.9913 C.ar    1  UNL1        0.0384
      3 C           0.9269    0.9317   23.6175 C.ar    1  UNL1        0.0221
      4 C           0.4745    1.7400   22.4377 C.ar    1  UNL1        0.0825
      5 C          -0.4800    2.8807   22.6317 C.ar    1  UNL1        0.0194
      6 C          -0.9822    3.2130   24.0055 C.ar    1  UNL1        0.0382
      7 C          -0.7477    3.4945   21.2894 C.ar    1  UNL1        0.0144
      8 C           0.0414    2.7332   20.2659 C.ar    1  UNL1        0.0970
      9 N           0.7968    1.6489   20.9756 N.ar    1  UNL1       -0.2080
     10 S           1.7136    0.6490   20.3355 S.O2    1  UNL1        0.0860
     11 O           0.6188   -0.3759   20.3687 O.2     1  UNL1       -0.1476
     12 O           2.8083    1.6738   20.3024 O.2     1  UNL1       -0.1476
     13 C           2.6304   -0.3510   19.6954 C.ar    1  UNL1        0.1278
     14 C           3.2009   -0.0819   18.3346 C.ar    1  UNL1        0.0227
     15 C           4.1178   -1.0818   17.6945 C.ar    1  UNL1        0.0310
     16 C           4.4640   -2.3508   18.4154 C.ar    1  UNL1        0.1402
     17 F           5.3808   -3.3508   17.7754 F       1  UNL1       -0.2042
     18 C           3.8934   -2.6199   19.7763 C.ar    1  UNL1        0.0310
     19 C           2.9767   -1.6200   20.4163 C.ar    1  UNL1        0.0227
     20 C          -0.9436    1.7186   27.6567 C.3     1  UNL1        0.2525
     21 O          -1.0320    2.7371   26.5591 O.3     1  UNL1       -0.4714
     22 C          -1.6467    4.6643   21.0184 C.3     1  UNL1        0.1008
     23 N          -3.0122    4.4422   20.4386 N.3     1  UNL1       -0.2665
     24 C          -3.1710    4.1905   18.9685 C.3     1  UNL1        0.0899
     25 C          -4.5365    3.9685   18.3887 C.3     1  UNL1        0.0897
     26 N          -5.7432    3.9981   19.2791 N.3     1  UNL1       -0.2691
     27 C          -7.1087    3.7760   18.6993 C.3     1  UNL1        0.0897
     28 C          -5.5844    4.2498   20.7493 C.3     1  UNL1        0.0897
     29 C          -4.2189    4.4719   21.3291 C.3     1  UNL1        0.0899
@<TRIPOS>BOND
     1    20    21    1
     2    21     1    1
     3     1     2   ar
     4     2     3   ar
     5     3     4   ar
     6     4     5   ar
     7     5     6   ar
     8     5     7   ar
     9     7    22    1
    10    22    23    1
    11    23    24    1
    12    24    25    1
    13    25    26    1
    14    26    27    1
    15    26    28    1
    16    28    29    1
    17     7     8   ar
    18     8     9   ar
    19     9    10    1
    20    10    11    2
    21    10    12    2
    22    10    13    1
    23    13    14   ar
    24    14    15   ar
    25    15    16   ar
    26    16    17    1
    27    16    18   ar
    28    18    19   ar
    29     6     1   ar
    30    29    23    1
    31    19    13   ar
    32     9     4   ar
@<TRIPOS>MOLECULE
*****
 29 32 0 0 0
SMALL
GASTEIGER

@<TRIPOS>ATOM
      1 C         -13.8956    2.2238   17.2934 C.ar    1  UNL1        0.1388
      2 C         -12.6125    1.4501   17.2241 C.ar    1  UNL1        0.0384
      3 C         -12.5817    0.0097   17.6417 C.ar    1  UNL1        0.0221
      4 C         -13.8341   -0.6569   18.1285 C.ar    1  UNL1        0.0825
      5 C         -15.1172    0.1168   18.1977 C.ar    1  UNL1        0.0194
      6 C         -15.1480    1.5572   17.7802 C.ar    1  UNL1        0.0382
      7 C         -16.1846   -0.8011   18.7157 C.ar    1  UNL1        0.0144
      8 C         -15.5611   -2.1421   18.9665 C.ar    1  UNL1        0.0970
      9 N         -14.1084   -2.0530   18.6036 N.ar    1  UNL1       -0.2080
     10 S         -13.1060   -3.1647   18.6991 S.O2    1  UNL1        0.0860
     11 O         -12.9362   -2.8860   20.1631 O.2     1  UNL1       -0.1476
     12 O         -13.2757   -3.4435   17.2350 O.2     1  UNL1       -0.1476
     13 C         -12.1035   -4.2766   18.7945 C.ar    1  UNL1        0.1278
     14 C         -12.5650   -5.7037   18.8051 C.ar    1  UNL1        0.0227
     15 C         -11.5625   -6.8155   18.9005 C.ar    1  UNL1        0.0310
     16 C         -10.0986   -6.5000   18.9852 C.ar    1  UNL1        0.1402
     17 F          -9.0961   -7.6117   19.0806 F       1  UNL1       -0.2042
     18 C          -9.6370   -5.0728   18.9746 C.ar    1  UNL1        0.0310
     19 C         -10.6395   -3.9611   18.8792 C.ar    1  UNL1        0.0227
     20 C         -12.6445    4.4274   16.7199 C.3     1  UNL1        0.2525
     21 O         -13.9264    3.6642   16.8759 O.3     1  UNL1       -0.4714
     22 C         -17.6230   -0.4412   18.9429 C.3     1  UNL1        0.1008
     23 N         -18.0195    0.3254   20.1698 N.3     1  UNL1       -0.2665
     24 C         -16.9742    1.0231   20.9887 C.3     1  UNL1        0.0899
     25 C         -17.3707    1.7896   22.2155 C.3     1  UNL1        0.0897
     26 N         -18.8125    1.8585   22.6235 N.3     1  UNL1       -0.2691
     27 C         -19.2090    2.6251   23.8504 C.3     1  UNL1        0.0897
     28 C         -19.8578    1.1608   21.8045 C.3     1  UNL1        0.0897
     29 C         -19.4613    0.3942   20.5777 C.3     1  UNL1        0.0899
@<TRIPOS>BOND
     1    20    21    1
     2    21     1    1
     3     1     2   ar
     4     2     3   ar
     5     3     4   ar
     6     4     5   ar
     7     5     6   ar
     8     5     7   ar
     9     7    22    1
    10    22    23    1
    11    23    24    1
    12    24    25    1
    13    25    26    1
    14    26    27    1
    15    26    28    1
    16    28    29    1
    17     7     8   ar
    18     8     9   ar
    19     9    10    1
    20    10    11    2
    21    10    12    2
    22    10    13    1
    23    13    14   ar
    24    14    15   ar
    25    15    16   ar
    26    16    17    1
    27    16    18   ar
    28    18    19   ar
    29     6     1   ar
    30    29    23    1
    31    19    13   ar
    32     9     4   ar
@<TRIPOS>MOLECULE
*****
 29 32 0 0 0
SMALL
GASTEIGER

@<TRIPOS>ATOM
      1 C           2.0419    3.4324   34.9103 C.ar    1  UNL1        0.1388
      2 C           1.3087    3.9654   33.7153 C.ar    1  UNL1        0.0384
      3 C           1.3541    3.2208   32.4139 C.ar    1  UNL1        0.0221
      4 C           2.1328    1.9432   32.3076 C.ar    1  UNL1        0.0825
      5 C           2.8661    1.4102   33.5027 C.ar    1  UNL1        0.0194
      6 C           2.8206    2.1548   34.8040 C.ar    1  UNL1        0.0382
      7 C           3.5453    0.1351   33.0991 C.ar    1  UNL1        0.0144
      8 C           3.2318   -0.1199   31.6546 C.ar    1  UNL1        0.0970
      9 N           2.3588    0.9976   31.1654 N.ar    1  UNL1       -0.2080
     10 S           1.8085    1.1437   29.7777 S.O2    1  UNL1        0.0860
     11 O           0.5084    0.5483   30.2306 O.2     1  UNL1       -0.1476
     12 O           3.1086    1.7392   29.3248 O.2     1  UNL1       -0.1476
     13 C           1.2582    1.2899   28.3899 C.ar    1  UNL1        0.1278
     14 C           2.1516    1.0826   27.2031 C.ar    1  UNL1        0.0227
     15 C           1.6013    1.2288   25.8153 C.ar    1  UNL1        0.0310
     16 C           0.1575    1.5824   25.6145 C.ar    1  UNL1        0.1402
     17 F          -0.3928    1.7286   24.2268 F       1  UNL1       -0.2042
     18 C          -0.7360    1.7897   26.8014 C.ar    1  UNL1        0.0310
     19 C          -0.1856    1.6435   28.1891 C.ar    1  UNL1        0.0227
     20 C           2.1718    3.4379   37.5051 C.3     1  UNL1        0.2525
     21 O           1.9965    4.1770   36.2117 O.3     1  UNL1       -0.4714
     22 C           4.3897   -0.7326   33.9845 C.3     1  UNL1        0.1008
     23 N           5.5445   -1.4954   33.4062 N.3     1  UNL1       -0.2665
     24 C           5.3234   -2.8549   32.8123 C.3     1  UNL1        0.0899
     25 C           6.4782   -3.6177   32.2339 C.3     1  UNL1        0.0897
     26 N           7.8543   -3.0210   32.2496 N.3     1  UNL1       -0.2691
     27 C           9.0092   -3.7838   31.6713 C.3     1  UNL1        0.0897
     28 C           8.0755   -1.6614   32.8436 C.3     1  UNL1        0.0897
     29 C           6.9207   -0.8986   33.4219 C.3     1  UNL1        0.0899
@<TRIPOS>BOND
     1    20    21    1
     2    21     1    1
     3     1     2   ar
     4     2     3   ar
     5     3     4   ar
     6     4     5   ar
     7     5     6   ar
     8     5     7   ar
     9     7    22    1
    10    22    23    1
    11    23    24    1
    12    24    25    1
    13    25    26    1
    14    26    27    1
    15    26    28    1
    16    28    29    1
    17     7     8   ar
    18     8     9   ar
    19     9    10    1
    20    10    11    2
    21    10    12    2
    22    10    13    1
    23    13    14   ar
    24    14    15   ar
    25    15    16   ar
    26    16    17    1
    27    16    18   ar
    28    18    19   ar
    29     6     1   ar
    30    29    23    1
    31    19    13   ar
    32     9     4   ar
@<TRIPOS>MOLECULE
*****
 29 32 0 0 0
SMALL
GASTEIGER

@<TRIPOS>ATOM
      1 C         -18.0775   -1.2986   20.2852 C.ar    1  UNL1        0.1388
      2 C         -16.6963   -0.8482   19.9121 C.ar    1  UNL1        0.0384
      3 C         -15.6877   -1.8464   19.4259 C.ar    1  UNL1        0.0221
      4 C         -16.0603   -3.2950   19.3130 C.ar    1  UNL1        0.0825
      5 C         -17.4416   -3.7453   19.6861 C.ar    1  UNL1        0.0194
      6 C         -18.4502   -2.7471   20.1722 C.ar    1  UNL1        0.0382
      7 C         -17.5193   -5.2281   19.4724 C.ar    1  UNL1        0.0144
      8 C         -16.1860   -5.6940   18.9673 C.ar    1  UNL1        0.0970
      9 N         -15.2843   -4.4993   18.8687 N.ar    1  UNL1       -0.2080
     10 S         -13.8572   -4.5075   18.4070 S.O2    1  UNL1        0.0860
     11 O         -13.4051   -4.7882   19.8094 O.2     1  UNL1       -0.1476
     12 O         -14.3093   -4.2268   17.0046 O.2     1  UNL1       -0.1476
     13 C         -12.4300   -4.5157   17.9451 C.ar    1  UNL1        0.1278
     14 C         -12.1164   -4.5636   16.4791 C.ar    1  UNL1        0.0227
     15 C         -10.6892   -4.5717   16.0173 C.ar    1  UNL1        0.0310
     16 C          -9.5758   -4.5321   17.0216 C.ar    1  UNL1        0.1402
     17 F          -8.1486   -4.5403   16.5599 F       1  UNL1       -0.2042
     18 C          -9.8895   -4.4842   18.4877 C.ar    1  UNL1        0.0310
     19 C         -11.3166   -4.4760   18.9494 C.ar    1  UNL1        0.0227
     20 C         -18.7125    1.1477   20.8872 C.3     1  UNL1        0.2525
     21 O         -19.0861   -0.3004   20.7713 O.3     1  UNL1       -0.4714
     22 C         -18.7195   -6.0929   19.7204 C.3     1  UNL1        0.1008
     23 N         -19.0358   -7.2227   18.7858 N.3     1  UNL1       -0.2665
     24 C         -19.3192   -6.9429   17.3397 C.3     1  UNL1        0.0899
     25 C         -19.6355   -8.0727   16.4051 C.3     1  UNL1        0.0897
     26 N         -19.6685   -9.4824   16.9167 N.3     1  UNL1       -0.2691
     27 C         -19.9848  -10.6122   15.9821 C.3     1  UNL1        0.0897
     28 C         -19.3851   -9.7622   18.3629 C.3     1  UNL1        0.0897
     29 C         -19.0688   -8.6324   19.2975 C.3     1  UNL1        0.0899
@<TRIPOS>BOND
     1    20    21    1
     2    21     1    1
     3     1     2   ar
     4     2     3   ar
     5     3     4   ar
     6     4     5   ar
     7     5     6   ar
     8     5     7   ar
     9     7    22    1
    10    22    23    1
    11    23    24    1
    12    24    25    1
    13    25    26    1
    14    26    27    1
    15    26    28    1
    16    28    29    1
    17     7     8   ar
    18     8     9   ar
    19     9    10    1
    20    10    11    2
    21    10    12    2
    22    10    13    1
    23    13    14   ar
    24    14    15   ar
    25    15    16   ar
    26    16    17    1
    27    16    18   ar
    28    18    19   ar
    29     6     1   ar
    30    29    23    1
    31    19    13   ar
    32     9     4   ar
@<TRIPOS>MOLECULE
*****
 29 32 0 0 0
SMALL
GASTEIGER

@<TRIPOS>ATOM
      1 C           5.3133    0.3767   35.4887 C.ar    1  UNL1        0.1388
      2 C           4.0567    1.0847   35.0768 C.ar    1  UNL1        0.0384
      3 C           3.5437    0.9471   33.6740 C.ar    1  UNL1        0.0221
      4 C           4.2872    0.1014   32.6831 C.ar    1  UNL1        0.0825
      5 C           5.5437   -0.6067   33.0950 C.ar    1  UNL1        0.0194
      6 C           6.0568   -0.4691   34.4978 C.ar    1  UNL1        0.0382
      7 C           6.0587   -1.3656   31.9079 C.ar    1  UNL1        0.0144
      8 C           5.1203   -1.1264   30.7624 C.ar    1  UNL1        0.0970
      9 N           4.0255   -0.2198   31.2415 N.ar    1  UNL1       -0.2080
     10 S           2.8716    0.2782   30.4227 S.O2    1  UNL1        0.0860
     11 O           3.6572    1.5036   30.0608 O.2     1  UNL1       -0.1476
     12 O           2.0859   -0.9473   30.7846 O.2     1  UNL1       -0.1476
     13 C           1.7175    0.7761   29.6039 C.ar    1  UNL1        0.1278
     14 C           1.5783    2.2418   29.3174 C.ar    1  UNL1        0.0227
     15 C           0.4243    2.7398   28.4986 C.ar    1  UNL1        0.0310
     16 C          -0.5904    1.7719   27.9663 C.ar    1  UNL1        0.1402
     17 F          -1.7444    2.2697   27.1475 F       1  UNL1       -0.2042
     18 C          -0.4512    0.3061   28.2528 C.ar    1  UNL1        0.0310
     19 C           0.7028   -0.1918   29.0716 C.ar    1  UNL1        0.0227
     20 C           7.3033    0.5615   37.1487 C.3     1  UNL1        0.2525
     21 O           5.8263    0.5143   36.8915 O.3     1  UNL1       -0.4714
     22 C           7.2948   -2.2144   31.8726 C.3     1  UNL1        0.1008
     23 N           7.4238   -3.3095   30.8557 N.3     1  UNL1       -0.2665
     24 C           6.9114   -4.6848   31.1654 C.3     1  UNL1        0.0899
     25 C           7.0404   -5.7799   30.1485 C.3     1  UNL1        0.0897
     26 N           7.6819   -5.4997   28.8218 N.3     1  UNL1       -0.2691
     27 C           7.8109   -6.5948   27.8049 C.3     1  UNL1        0.0897
     28 C           8.1944   -4.1244   28.5122 C.3     1  UNL1        0.0897
     29 C           8.0654   -3.0293   29.5291 C.3     1  UNL1        0.0899
@<TRIPOS>BOND
     1    20    21    1
     2    21     1    1
     3     1     2   ar
     4     2     3   ar
     5     3     4   ar
     6     4     5   ar
     7     5     6   ar
     8     5     7   ar
     9     7    22    1
    10    22    23    1
    11    23    24    1
    12    24    25    1
    13    25    26    1
    14    26    27    1
    15    26    28    1
    16    28    29    1
    17     7     8   ar
    18     8     9   ar
    19     9    10    1
    20    10    11    2
    21    10    12    2
    22    10    13    1
    23    13    14   ar
    24    14    15   ar
    25    15    16   ar
    26    16    17    1
    27    16    18   ar
    28    18    19   ar
    29     6     1   ar
    30    29    23    1
    31    19    13   ar
    32     9     4   ar
@<TRIPOS>MOLECULE
*****
 29 32 0 0 0
SMALL
GASTEIGER

@<TRIPOS>ATOM
      1 C          -1.9693    5.0076   18.1382 C.ar    1  UNL1        0.1388
      2 C          -1.1128    4.1430   17.2614 C.ar    1  UNL1        0.0384
      3 C          -0.2582    3.0710   17.8702 C.ar    1  UNL1        0.0221
      4 C          -0.2601    2.8637   19.3558 C.ar    1  UNL1        0.0825
      5 C          -1.1166    3.7284   20.2326 C.ar    1  UNL1        0.0194
      6 C          -1.9712    4.8003   19.6238 C.ar    1  UNL1        0.0382
      7 C          -0.9131    3.2931   21.6536 C.ar    1  UNL1        0.0144
      8 C           0.0691    2.1595   21.6550 C.ar    1  UNL1        0.0970
      9 N           0.4727    1.8941   20.2349 N.ar    1  UNL1       -0.2080
     10 S           1.4394    0.8436   19.7746 S.O2    1  UNL1        0.0860
     11 O           0.4367   -0.2227   20.1026 O.2     1  UNL1       -0.1476
     12 O           2.4421    1.9099   19.4466 O.2     1  UNL1       -0.1476
     13 C           2.4062   -0.2070   19.3143 C.ar    1  UNL1        0.1278
     14 C           3.1182   -0.0484   18.0037 C.ar    1  UNL1        0.0227
     15 C           4.0850   -1.0989   17.5434 C.ar    1  UNL1        0.0310
     16 C           4.3396   -2.3080   18.3939 C.ar    1  UNL1        0.1402
     17 F           5.3064   -3.3585   17.9337 F       1  UNL1       -0.2042
     18 C           3.6276   -2.4666   19.7045 C.ar    1  UNL1        0.0310
     19 C           2.6608   -1.4160   20.1647 C.ar    1  UNL1        0.0227
     20 C          -3.7453    5.7490   16.3929 C.3     1  UNL1        0.2525
     21 O          -2.8239    6.0796   17.5294 O.3     1  UNL1       -0.4714
     22 C          -1.5756    3.8872   22.8611 C.3     1  UNL1        0.1008
     23 N          -3.0186    4.2923   22.8018 N.3     1  UNL1       -0.2665
     24 C          -3.4191    5.6944   23.1535 C.3     1  UNL1        0.0899
     25 C          -4.8622    6.0995   23.0941 C.3     1  UNL1        0.0897
     26 N          -5.9048    5.1025   22.6830 N.3     1  UNL1       -0.2691
     27 C          -7.3478    5.5076   22.6237 C.3     1  UNL1        0.0897
     28 C          -5.5042    3.7004   22.3313 C.3     1  UNL1        0.0897
     29 C          -4.0612    3.2953   22.3906 C.3     1  UNL1        0.0899
@<TRIPOS>BOND
     1    20    21    1
     2    21     1    1
     3     1     2   ar
     4     2     3   ar
     5     3     4   ar
     6     4     5   ar
     7     5     6   ar
     8     5     7   ar
     9     7    22    1
    10    22    23    1
    11    23    24    1
    12    24    25    1
    13    25    26    1
    14    26    27    1
    15    26    28    1
    16    28    29    1
    17     7     8   ar
    18     8     9   ar
    19     9    10    1
    20    10    11    2
    21    10    12    2
    22    10    13    1
    23    13    14   ar
    24    14    15   ar
    25    15    16   ar
    26    16    17    1
    27    16    18   ar
    28    18    19   ar
    29     6     1   ar
    30    29    23    1
    31    19    13   ar
    32     9     4   ar
@<TRIPOS>MOLECULE
*****
 29 32 0 0 0
SMALL
GASTEIGER

@<TRIPOS>ATOM
      1 C           6.2684    0.5549   17.6607 C.ar    1  UNL1        0.1388
      2 C           5.4899    1.8370   17.6712 C.ar    1  UNL1        0.0384
      3 C           4.1000    1.8659   18.2345 C.ar    1  UNL1        0.0221
      4 C           3.4887    0.6128   18.7875 C.ar    1  UNL1        0.0825
      5 C           4.2672   -0.6693   18.7770 C.ar    1  UNL1        0.0194
      6 C           5.6571   -0.6982   18.2137 C.ar    1  UNL1        0.0382
      7 C           3.4089   -1.7378   19.3868 C.ar    1  UNL1        0.0144
      8 C           2.0999   -1.1160   19.7740 C.ar    1  UNL1        0.0970
      9 N           2.1492    0.3367   19.4036 N.ar    1  UNL1       -0.2080
     10 S           1.0518    1.3376   19.6127 S.O2    1  UNL1        0.0860
     11 O           1.5677    1.6148   20.9937 O.2     1  UNL1       -0.1476
     12 O           0.5359    1.0605   18.2318 O.2     1  UNL1       -0.1476
     13 C          -0.0457    2.3386   19.8217 C.ar    1  UNL1        0.1278
     14 C          -0.6973    2.4674   21.1666 C.ar    1  UNL1        0.0227
     15 C          -1.7948    3.4683   21.3756 C.ar    1  UNL1        0.0310
     16 C          -2.2406    4.3405   20.2397 C.ar    1  UNL1        0.1402
     17 F          -3.3381    5.3415   20.4486 F       1  UNL1       -0.2042
     18 C          -1.5890    4.2117   18.8947 C.ar    1  UNL1        0.0310
     19 C          -0.4916    3.2108   18.6858 C.ar    1  UNL1        0.0227
     20 C           8.4680    1.7870   17.0334 C.3     1  UNL1        0.2525
     21 O           7.6583    0.5260   17.0974 O.3     1  UNL1       -0.4714
     22 C           3.7923   -3.1756   19.5760 C.3     1  UNL1        0.1008
     23 N           4.8493   -3.5448   20.5742 N.3     1  UNL1       -0.2665
     24 C           4.5297   -3.5448   22.0397 C.3     1  UNL1        0.0899
     25 C           5.5868   -3.9140   23.0379 C.3     1  UNL1        0.0897
     26 N           6.9634   -4.2832   22.5705 N.3     1  UNL1       -0.2691
     27 C           8.0205   -4.6524   23.5687 C.3     1  UNL1        0.0897
     28 C           7.2830   -4.2832   21.1049 C.3     1  UNL1        0.0897
     29 C           6.2260   -3.9140   20.1067 C.3     1  UNL1        0.0899
@<TRIPOS>BOND
     1    20    21    1
     2    21     1    1
     3     1     2   ar
     4     2     3   ar
     5     3     4   ar
     6     4     5   ar
     7     5     6   ar
     8     5     7   ar
     9     7    22    1
    10    22    23    1
    11    23    24    1
    12    24    25    1
    13    25    26    1
    14    26    27    1
    15    26    28    1
    16    28    29    1
    17     7     8   ar
    18     8     9   ar
    19     9    10    1
    20    10    11    2
    21    10    12    2
    22    10    13    1
    23    13    14   ar
    24    14    15   ar
    25    15    16   ar
    26    16    17    1
    27    16    18   ar
    28    18    19   ar
    29     6     1   ar
    30    29    23    1
    31    19    13   ar
    32     9     4   ar
