@<TRIPOS>MOLECULE
*****
 27 30 0 0 0
SMALL
GASTEIGER

@<TRIPOS>ATOM
      1 C         -11.0651  -18.3291   22.4599 C.2     1  UNL1        0.0919
      2 C         -11.0415  -18.3881   20.9613 C.2     1  UNL1        0.0183
      3 C          -9.7329  -18.4893   20.2352 C.2     1  UNL1        0.0511
      4 C          -8.4478  -18.5316   21.0077 C.2     1  UNL1        0.2322
      5 N          -7.0164  -18.6287   20.5701 N.2     1  UNL1       -0.0308
      6 C          -6.1552  -18.6297   21.7983 C.2     1  UNL1        0.3752
      7 N          -7.0545  -18.5332   22.9950 N.2     1  UNL1       -0.0347
      8 C          -8.4714  -18.4726   22.5063 C.2     1  UNL1        0.2191
      9 C          -9.7800  -18.3714   23.2324 C.3     1  UNL1        0.1226
     10 C          -4.6577  -18.7126   21.8251 C.ar    1  UNL1        0.0884
     11 C          -3.9405  -19.6312   20.8808 C.ar    1  UNL1        0.0077
     12 C          -2.4430  -19.7142   20.9076 C.ar    1  UNL1        0.0003
     13 C          -1.6629  -18.8784   21.8785 C.ar    1  UNL1        0.0000
     14 C          -2.3801  -17.9597   22.8227 C.ar    1  UNL1        0.0002
     15 C          -3.8776  -17.8768   22.7960 C.ar    1  UNL1        0.0074
     16 C          -4.5948  -16.9581   23.7402 C.ar    1  UNL1        0.0002
     17 C          -5.4986  -15.8879   23.2039 C.ar    1  UNL1        0.0000
     18 C          -6.2158  -14.9692   24.1481 C.ar    1  UNL1        0.0000
     19 C          -6.0294  -15.1208   25.6287 C.ar    1  UNL1        0.0000
     20 C          -5.1256  -16.1910   26.1651 C.ar    1  UNL1        0.0000
     21 C          -4.4083  -17.1097   25.2208 C.ar    1  UNL1        0.0000
     22 S         -12.3737  -18.2278   23.1861 S.O2    1  UNL1        0.0054
     23 O         -11.7084  -18.6878   24.4493 O.2     1  UNL1       -0.1689
     24 O         -13.0390  -17.7678   21.9228 O.2     1  UNL1       -0.1689
     25 C         -13.6823  -18.1265   23.9122 C.3     1  UNL1        0.1556
     26 C         -15.0961  -18.5326   26.0537 C.3     1  UNL1        0.0019
     27 C         -13.7644  -18.4921   25.3646 C.3     1  UNL1        0.0257
@<TRIPOS>BOND
     1    26    27    1
     2    27    25    1
     3    25    22    1
     4    22    23    2
     5    22    24    2
     6    22     1    1
     7     1     2    2
     8     2     3    1
     9     3     4    2
    10     4     5    1
    11     5     6    2
    12     6    10    1
    13    10    11   ar
    14    11    12   ar
    15    12    13   ar
    16    13    14   ar
    17    14    15   ar
    18    15    16    1
    19    16    17   ar
    20    17    18   ar
    21    18    19   ar
    22    19    20   ar
    23    20    21   ar
    24     6     7    1
    25     7     8    2
    26     8     9    1
    27     9     1    1
    28     8     4    1
    29    15    10   ar
    30    21    16   ar
@<TRIPOS>MOLECULE
*****
 27 30 0 0 0
SMALL
GASTEIGER

@<TRIPOS>ATOM
      1 C           7.5019   -3.7260   24.8785 C.2     1  UNL1        0.0919
      2 C           8.1410   -2.3704   24.9424 C.2     1  UNL1        0.0183
      3 C           7.4349   -1.1803   24.3636 C.2     1  UNL1        0.0511
      4 C           6.0897   -1.3457   23.7208 C.2     1  UNL1        0.2322
      5 N           5.1609   -0.3642   23.0699 N.2     1  UNL1       -0.0308
      6 C           3.9477   -1.1131   22.6036 C.2     1  UNL1        0.3752
      7 N           4.1268   -2.5575   22.9664 N.2     1  UNL1       -0.0347
      8 C           5.4507   -2.7012   23.6569 C.2     1  UNL1        0.2191
      9 C           6.1568   -3.8914   24.2357 C.3     1  UNL1        0.1226
     10 C           2.7634   -0.5215   21.8983 C.ar    1  UNL1        0.0884
     11 C           1.8022    0.3515   22.6494 C.ar    1  UNL1        0.0077
     12 C           0.6179    0.9431   21.9442 C.ar    1  UNL1        0.0003
     13 C           0.3948    0.6618   20.4879 C.ar    1  UNL1        0.0000
     14 C           1.3559   -0.2111   19.7367 C.ar    1  UNL1        0.0002
     15 C           2.5402   -0.8027   20.4419 C.ar    1  UNL1        0.0074
     16 C           3.5013   -1.6757   19.6908 C.ar    1  UNL1        0.0002
     17 C           4.6937   -1.0683   19.0129 C.ar    1  UNL1        0.0000
     18 C           5.6548   -1.9413   18.2618 C.ar    1  UNL1        0.0000
     19 C           5.4236   -3.4215   18.1885 C.ar    1  UNL1        0.0000
     20 C           4.2313   -4.0288   18.8663 C.ar    1  UNL1        0.0000
     21 C           3.2701   -3.1559   19.6174 C.ar    1  UNL1        0.0000
     22 S           8.2081   -4.9161   25.4573 S.O2    1  UNL1        0.0054
     23 O           6.8898   -5.4907   25.8840 O.2     1  UNL1       -0.1689
     24 O           9.5263   -4.3415   25.0305 O.2     1  UNL1       -0.1689
     25 C           8.9142   -6.1062   26.0361 C.3     1  UNL1        0.1556
     26 C           8.8183   -7.5318   23.8662 C.3     1  UNL1        0.0019
     27 C           8.8063   -7.4426   25.3635 C.3     1  UNL1        0.0257
@<TRIPOS>BOND
     1    26    27    1
     2    27    25    1
     3    25    22    1
     4    22    23    2
     5    22    24    2
     6    22     1    1
     7     1     2    2
     8     2     3    1
     9     3     4    2
    10     4     5    1
    11     5     6    2
    12     6    10    1
    13    10    11   ar
    14    11    12   ar
    15    12    13   ar
    16    13    14   ar
    17    14    15   ar
    18    15    16    1
    19    16    17   ar
    20    17    18   ar
    21    18    19   ar
    22    19    20   ar
    23    20    21   ar
    24     6     7    1
    25     7     8    2
    26     8     9    1
    27     9     1    1
    28     8     4    1
    29    15    10   ar
    30    21    16   ar
@<TRIPOS>MOLECULE
*****
 27 30 0 0 0
SMALL
GASTEIGER

@<TRIPOS>ATOM
      1 C         -16.4788   -7.5560   18.1987 C.2     1  UNL1        0.0919
      2 C         -15.8343   -7.8549   16.8776 C.2     1  UNL1        0.0183
      3 C         -14.9650   -6.8262   16.2172 C.2     1  UNL1        0.0511
      4 C         -14.7401   -5.4985   16.8780 C.2     1  UNL1        0.2322
      5 N         -13.9402   -4.2970   16.4700 N.2     1  UNL1       -0.0308
      6 C         -14.0902   -3.2555   17.5389 C.2     1  UNL1        0.3752
      7 N         -14.9829   -3.8132   18.6076 N.2     1  UNL1       -0.0347
      8 C         -15.3846   -5.1996   18.1990 C.2     1  UNL1        0.2191
      9 C         -16.2539   -6.2283   18.8594 C.3     1  UNL1        0.1226
     10 C         -13.4585   -1.8949   17.5391 C.ar    1  UNL1        0.0884
     11 C         -14.3174   -0.6692   17.4407 C.ar    1  UNL1        0.0077
     12 C         -13.6857    0.6913   17.4409 C.ar    1  UNL1        0.0003
     13 C         -12.1951    0.8260   17.5395 C.ar    1  UNL1        0.0000
     14 C         -11.3361   -0.3998   17.6379 C.ar    1  UNL1        0.0002
     15 C         -11.9678   -1.7602   17.6377 C.ar    1  UNL1        0.0074
     16 C         -11.1089   -2.9860   17.7361 C.ar    1  UNL1        0.0002
     17 C         -10.1302   -3.3055   16.6452 C.ar    1  UNL1        0.0000
     18 C          -9.2712   -4.5313   16.7436 C.ar    1  UNL1        0.0000
     19 C          -9.3909   -5.4375   17.9329 C.ar    1  UNL1        0.0000
     20 C         -10.3696   -5.1180   19.0237 C.ar    1  UNL1        0.0000
     21 C         -11.2286   -3.8922   18.9253 C.ar    1  UNL1        0.0000
     22 S         -17.3481   -8.5847   18.8590 S.O2    1  UNL1        0.0054
     23 O         -16.4741   -8.5411   20.0774 O.2     1  UNL1       -0.1689
     24 O         -18.2220   -8.6282   17.6407 O.2     1  UNL1       -0.1689
     25 C         -18.2174   -9.6134   19.5194 C.3     1  UNL1        0.1556
     26 C         -19.8668   -8.0688   20.8014 C.3     1  UNL1        0.0019
     27 C         -19.6174   -9.2620   19.9273 C.3     1  UNL1        0.0257
@<TRIPOS>BOND
     1    26    27    1
     2    27    25    1
     3    25    22    1
     4    22    23    2
     5    22    24    2
     6    22     1    1
     7     1     2    2
     8     2     3    1
     9     3     4    2
    10     4     5    1
    11     5     6    2
    12     6    10    1
    13    10    11   ar
    14    11    12   ar
    15    12    13   ar
    16    13    14   ar
    17    14    15   ar
    18    15    16    1
    19    16    17   ar
    20    17    18   ar
    21    18    19   ar
    22    19    20   ar
    23    20    21   ar
    24     6     7    1
    25     7     8    2
    26     8     9    1
    27     9     1    1
    28     8     4    1
    29    15    10   ar
    30    21    16   ar
@<TRIPOS>MOLECULE
*****
 27 30 0 0 0
SMALL
GASTEIGER

@<TRIPOS>ATOM
      1 C         -17.1443   -7.7078   17.8783 C.2     1  UNL1        0.0919
      2 C         -16.9152   -7.3660   19.3208 C.2     1  UNL1        0.0183
      3 C         -15.8844   -6.3424   19.6944 C.2     1  UNL1        0.0511
      4 C         -15.0827   -5.6605   18.6257 C.2     1  UNL1        0.2322
      5 N         -14.0057   -4.6185   18.6897 N.2     1  UNL1       -0.0308
      6 C         -13.5691   -4.3162   17.2868 C.2     1  UNL1        0.3752
      7 N         -14.3763   -5.1714   16.3557 N.2     1  UNL1       -0.0347
      8 C         -15.3118   -6.0023   17.1833 C.2     1  UNL1        0.2191
      9 C         -16.3426   -7.0259   16.8096 C.3     1  UNL1        0.1226
     10 C         -12.5110   -3.3315   16.8855 C.ar    1  UNL1        0.0884
     11 C         -12.9016   -1.9656   16.4041 C.ar    1  UNL1        0.0077
     12 C         -11.8436   -0.9809   16.0028 C.ar    1  UNL1        0.0003
     13 C         -10.3951   -1.3622   16.0829 C.ar    1  UNL1        0.0000
     14 C         -10.0046   -2.7281   16.5643 C.ar    1  UNL1        0.0002
     15 C         -11.0626   -3.7128   16.9656 C.ar    1  UNL1        0.0074
     16 C         -10.6720   -5.0787   17.4470 C.ar    1  UNL1        0.0002
     17 C          -9.8930   -5.2310   18.7197 C.ar    1  UNL1        0.0000
     18 C          -9.5025   -6.5970   19.2011 C.ar    1  UNL1        0.0000
     19 C          -9.8910   -7.8105   18.4098 C.ar    1  UNL1        0.0000
     20 C         -10.6700   -7.6582   17.1370 C.ar    1  UNL1        0.0000
     21 C         -11.0605   -6.2923   16.6556 C.ar    1  UNL1        0.0000
     22 S         -18.1751   -8.7314   17.5047 S.O2    1  UNL1        0.0054
     23 O         -19.0566   -7.6457   16.9621 O.2     1  UNL1       -0.1689
     24 O         -17.2937   -9.8171   18.0472 O.2     1  UNL1       -0.1689
     25 C         -19.2060   -9.7550   17.1310 C.3     1  UNL1        0.1556
     26 C         -20.3789   -9.4879   19.4337 C.3     1  UNL1        0.0019
     27 C         -20.1734  -10.2561   18.1619 C.3     1  UNL1        0.0257
@<TRIPOS>BOND
     1    26    27    1
     2    27    25    1
     3    25    22    1
     4    22    23    2
     5    22    24    2
     6    22     1    1
     7     1     2    2
     8     2     3    1
     9     3     4    2
    10     4     5    1
    11     5     6    2
    12     6    10    1
    13    10    11   ar
    14    11    12   ar
    15    12    13   ar
    16    13    14   ar
    17    14    15   ar
    18    15    16    1
    19    16    17   ar
    20    17    18   ar
    21    18    19   ar
    22    19    20   ar
    23    20    21   ar
    24     6     7    1
    25     7     8    2
    26     8     9    1
    27     9     1    1
    28     8     4    1
    29    15    10   ar
    30    21    16   ar
@<TRIPOS>MOLECULE
*****
 27 30 0 0 0
SMALL
GASTEIGER

@<TRIPOS>ATOM
      1 C           6.0157   -2.2069   18.8777 C.2     1  UNL1        0.0919
      2 C           7.4505   -1.9663   18.5126 C.2     1  UNL1        0.0183
      3 C           8.5461   -2.5851   19.3291 C.2     1  UNL1        0.0511
      4 C           8.2070   -3.4445   20.5107 C.2     1  UNL1        0.2322
      5 N           9.0657   -4.1818   21.4950 N.2     1  UNL1       -0.0308
      6 C           8.1616   -4.8782   22.4685 C.2     1  UNL1        0.3752
      7 N           6.7441   -4.5713   22.0859 N.2     1  UNL1       -0.0347
      8 C           6.7722   -3.6852   20.8758 C.2     1  UNL1        0.2191
      9 C           5.6765   -3.0664   20.0593 C.3     1  UNL1        0.1226
     10 C           8.5984   -5.7317   23.6222 C.ar    1  UNL1        0.0884
     11 C           9.0987   -7.1245   23.3775 C.ar    1  UNL1        0.0077
     12 C           9.5355   -7.9780   24.5311 C.ar    1  UNL1        0.0003
     13 C           9.4720   -7.4386   25.9293 C.ar    1  UNL1        0.0000
     14 C           8.9717   -6.0458   26.1740 C.ar    1  UNL1        0.0002
     15 C           8.5350   -5.1924   25.0204 C.ar    1  UNL1        0.0074
     16 C           8.0347   -3.7996   25.2651 C.ar    1  UNL1        0.0002
     17 C           6.5823   -3.5648   25.5571 C.ar    1  UNL1        0.0000
     18 C           6.0820   -2.1720   25.8018 C.ar    1  UNL1        0.0000
     19 C           7.0342   -1.0140   25.7544 C.ar    1  UNL1        0.0000
     20 C           8.4866   -1.2487   25.4623 C.ar    1  UNL1        0.0000
     21 C           8.9869   -2.6415   25.2176 C.ar    1  UNL1        0.0000
     22 S           4.9200   -1.5882   18.0612 S.O2    1  UNL1        0.0054
     23 O           5.9436   -0.9756   17.1519 O.2     1  UNL1       -0.1689
     24 O           3.8964   -2.2007   18.9706 O.2     1  UNL1       -0.1689
     25 C           3.8243   -0.9694   17.2447 C.3     1  UNL1        0.1556
     26 C           3.4975    1.3032   18.4607 C.3     1  UNL1        0.0019
     27 C           2.9191    0.0567   17.8593 C.3     1  UNL1        0.0257
@<TRIPOS>BOND
     1    26    27    1
     2    27    25    1
     3    25    22    1
     4    22    23    2
     5    22    24    2
     6    22     1    1
     7     1     2    2
     8     2     3    1
     9     3     4    2
    10     4     5    1
    11     5     6    2
    12     6    10    1
    13    10    11   ar
    14    11    12   ar
    15    12    13   ar
    16    13    14   ar
    17    14    15   ar
    18    15    16    1
    19    16    17   ar
    20    17    18   ar
    21    18    19   ar
    22    19    20   ar
    23    20    21   ar
    24     6     7    1
    25     7     8    2
    26     8     9    1
    27     9     1    1
    28     8     4    1
    29    15    10   ar
    30    21    16   ar
@<TRIPOS>MOLECULE
*****
 27 30 0 0 0
SMALL
GASTEIGER

@<TRIPOS>ATOM
      1 C         -16.6131   -6.7581   18.1871 C.2     1  UNL1        0.0919
      2 C         -16.7188   -6.3464   19.6256 C.2     1  UNL1        0.0183
      3 C         -16.0537   -5.0869   20.0961 C.2     1  UNL1        0.0511
      4 C         -15.2829   -4.2391   19.1281 C.2     1  UNL1        0.2322
      5 N         -14.5271   -2.9548   19.2994 N.2     1  UNL1       -0.0308
      6 C         -13.9543   -2.5728   17.9668 C.2     1  UNL1        0.3752
      7 N         -14.3560   -3.6209   16.9718 N.2     1  UNL1       -0.0347
      8 C         -15.1772   -4.6508   17.6896 C.2     1  UNL1        0.2191
      9 C         -15.8423   -5.9103   17.2191 C.3     1  UNL1        0.1226
     10 C         -13.1252   -1.3561   17.6796 C.ar    1  UNL1        0.0884
     11 C         -13.7764   -0.0074   17.5961 C.ar    1  UNL1        0.0077
     12 C         -12.9475    1.2093   17.3090 C.ar    1  UNL1        0.0003
     13 C         -11.4673    1.0772   17.1052 C.ar    1  UNL1        0.0000
     14 C         -10.8161   -0.2715   17.1886 C.ar    1  UNL1        0.0002
     15 C         -11.6450   -1.4881   17.4758 C.ar    1  UNL1        0.0074
     16 C         -10.9938   -2.8368   17.5592 C.ar    1  UNL1        0.0002
     17 C         -10.6191   -3.4074   18.8949 C.ar    1  UNL1        0.0000
     18 C          -9.9679   -4.7561   18.9783 C.ar    1  UNL1        0.0000
     19 C          -9.6914   -5.5342   17.7261 C.ar    1  UNL1        0.0000
     20 C         -10.0662   -4.9636   16.3905 C.ar    1  UNL1        0.0000
     21 C         -10.7174   -3.6149   16.3070 C.ar    1  UNL1        0.0000
     22 S         -17.2782   -8.0175   17.7165 S.O2    1  UNL1        0.0054
     23 O         -16.0273   -8.4048   16.9849 O.2     1  UNL1       -0.1689
     24 O         -18.5291   -7.6303   18.4482 O.2     1  UNL1       -0.1689
     25 C         -17.9433   -9.2770   17.2460 C.3     1  UNL1        0.1556
     26 C         -17.0818  -11.1944   18.7729 C.3     1  UNL1        0.0019
     27 C         -18.2173  -10.3879   18.2160 C.3     1  UNL1        0.0257
@<TRIPOS>BOND
     1    26    27    1
     2    27    25    1
     3    25    22    1
     4    22    23    2
     5    22    24    2
     6    22     1    1
     7     1     2    2
     8     2     3    1
     9     3     4    2
    10     4     5    1
    11     5     6    2
    12     6    10    1
    13    10    11   ar
    14    11    12   ar
    15    12    13   ar
    16    13    14   ar
    17    14    15   ar
    18    15    16    1
    19    16    17   ar
    20    17    18   ar
    21    18    19   ar
    22    19    20   ar
    23    20    21   ar
    24     6     7    1
    25     7     8    2
    26     8     9    1
    27     9     1    1
    28     8     4    1
    29    15    10   ar
    30    21    16   ar
@<TRIPOS>MOLECULE
*****
 27 30 0 0 0
SMALL
GASTEIGER

@<TRIPOS>ATOM
      1 C          -0.7380    2.6160   20.6308 C.2     1  UNL1        0.0919
      2 C          -0.5085    3.0593   19.2163 C.2     1  UNL1        0.0183
      3 C           0.4647    2.3195   18.3471 C.2     1  UNL1        0.0511
      4 C           1.2084    1.1365   18.8923 C.2     1  UNL1        0.2322
      5 N           2.2220    0.2176   18.2773 N.2     1  UNL1       -0.0308
      6 C           2.6189   -0.7936   19.3117 C.2     1  UNL1        0.3752
      7 N           1.8506   -0.4997   20.5660 N.2     1  UNL1       -0.0347
      8 C           0.9788    0.6932   20.3068 C.2     1  UNL1        0.2191
      9 C           0.0056    1.4330   21.1760 C.3     1  UNL1        0.1226
     10 C           3.6102   -1.9038   19.1247 C.ar    1  UNL1        0.0884
     11 C           3.1744   -3.3313   19.2736 C.ar    1  UNL1        0.0077
     12 C           4.1656   -4.4415   19.0865 C.ar    1  UNL1        0.0003
     13 C           5.5926   -4.1241   18.7505 C.ar    1  UNL1        0.0000
     14 C           6.0284   -2.6966   18.6016 C.ar    1  UNL1        0.0002
     15 C           5.0372   -1.5864   18.7886 C.ar    1  UNL1        0.0074
     16 C           5.4730   -0.1588   18.6397 C.ar    1  UNL1        0.0002
     17 C           5.7342    0.6766   19.8578 C.ar    1  UNL1        0.0000
     18 C           6.1700    2.1041   19.7089 C.ar    1  UNL1        0.0000
     19 C           6.3446    2.6963   18.3418 C.ar    1  UNL1        0.0000
     20 C           6.0834    1.8608   17.1237 C.ar    1  UNL1        0.0000
     21 C           5.6476    0.4333   17.2727 C.ar    1  UNL1        0.0000
     22 S          -1.7112    3.3558   21.5000 S.O2    1  UNL1        0.0054
     23 O          -2.8525    2.7462   20.7412 O.2     1  UNL1       -0.1689
     24 O          -0.5700    3.9655   22.2589 O.2     1  UNL1       -0.1689
     25 C          -2.6845    4.0956   22.3693 C.3     1  UNL1        0.1556
     26 C          -4.6709    3.1554   23.7549 C.3     1  UNL1        0.0019
     27 C          -4.1120    3.6425   22.4509 C.3     1  UNL1        0.0257
@<TRIPOS>BOND
     1    26    27    1
     2    27    25    1
     3    25    22    1
     4    22    23    2
     5    22    24    2
     6    22     1    1
     7     1     2    2
     8     2     3    1
     9     3     4    2
    10     4     5    1
    11     5     6    2
    12     6    10    1
    13    10    11   ar
    14    11    12   ar
    15    12    13   ar
    16    13    14   ar
    17    14    15   ar
    18    15    16    1
    19    16    17   ar
    20    17    18   ar
    21    18    19   ar
    22    19    20   ar
    23    20    21   ar
    24     6     7    1
    25     7     8    2
    26     8     9    1
    27     9     1    1
    28     8     4    1
    29    15    10   ar
    30    21    16   ar
@<TRIPOS>MOLECULE
*****
 27 30 0 0 0
SMALL
GASTEIGER

@<TRIPOS>ATOM
      1 C           3.5319   -0.5798   18.8658 C.2     1  UNL1        0.0919
      2 C           3.9226    0.7260   18.2396 C.2     1  UNL1        0.0183
      3 C           3.0907    1.9510   18.4786 C.2     1  UNL1        0.0511
      4 C           1.8680    1.8703   19.3438 C.2     1  UNL1        0.2322
      5 N           0.8606    2.9021   19.7566 N.2     1  UNL1       -0.0308
      6 C          -0.1527    2.2340   20.6380 C.2     1  UNL1        0.3752
      7 N           0.2284    0.7893   20.7699 N.2     1  UNL1       -0.0347
      8 C           1.4773    0.5645   19.9700 C.2     1  UNL1        0.2191
      9 C           2.3093   -0.6606   19.7310 C.3     1  UNL1        0.1226
     10 C          -1.3390    2.8947   21.2755 C.ar    1  UNL1        0.0884
     11 C          -2.5783    3.1497   20.4699 C.ar    1  UNL1        0.0077
     12 C          -3.7645    3.8104   21.1073 C.ar    1  UNL1        0.0003
     13 C          -3.7114    4.2161   22.5504 C.ar    1  UNL1        0.0000
     14 C          -2.4720    3.9611   23.3560 C.ar    1  UNL1        0.0002
     15 C          -1.2858    3.3004   22.7186 C.ar    1  UNL1        0.0074
     16 C          -0.0465    3.0454   23.5242 C.ar    1  UNL1        0.0002
     17 C           1.0607    4.0572   23.5376 C.ar    1  UNL1        0.0000
     18 C           2.3000    3.8022   24.3432 C.ar    1  UNL1        0.0000
     19 C           2.4321    2.5354   25.1355 C.ar    1  UNL1        0.0000
     20 C           1.3249    1.5236   25.1221 C.ar    1  UNL1        0.0000
     21 C           0.0855    1.7786   24.3165 C.ar    1  UNL1        0.0000
     22 S           4.3638   -1.8049   18.6268 S.O2    1  UNL1        0.0054
     23 O           4.1379   -1.6702   17.1500 O.2     1  UNL1       -0.1689
     24 O           4.5897   -1.9396   20.1036 O.2     1  UNL1       -0.1689
     25 C           5.1957   -3.0300   18.3878 C.3     1  UNL1        0.1556
     26 C           3.2346   -4.5941   19.0641 C.3     1  UNL1        0.0019
     27 C           4.7009   -4.3723   18.8386 C.3     1  UNL1        0.0257
@<TRIPOS>BOND
     1    26    27    1
     2    27    25    1
     3    25    22    1
     4    22    23    2
     5    22    24    2
     6    22     1    1
     7     1     2    2
     8     2     3    1
     9     3     4    2
    10     4     5    1
    11     5     6    2
    12     6    10    1
    13    10    11   ar
    14    11    12   ar
    15    12    13   ar
    16    13    14   ar
    17    14    15   ar
    18    15    16    1
    19    16    17   ar
    20    17    18   ar
    21    18    19   ar
    22    19    20   ar
    23    20    21   ar
    24     6     7    1
    25     7     8    2
    26     8     9    1
    27     9     1    1
    28     8     4    1
    29    15    10   ar
    30    21    16   ar
@<TRIPOS>MOLECULE
*****
 27 30 0 0 0
SMALL
GASTEIGER

@<TRIPOS>ATOM
      1 C           6.2614   -3.8041   24.6680 C.2     1  UNL1        0.0919
      2 C           6.2499   -2.5433   25.4804 C.2     1  UNL1        0.0183
      3 C           5.5110   -1.3367   24.9821 C.2     1  UNL1        0.0511
      4 C           4.7835   -1.3910   23.6715 C.2     1  UNL1        0.2322
      5 N           3.9748   -0.3688   22.9293 N.2     1  UNL1       -0.0308
      6 C           3.4864   -0.9978   21.6581 C.2     1  UNL1        0.3752
      7 N           3.9933   -2.4089   21.6147 N.2     1  UNL1       -0.0347
      8 C           4.7950   -2.6519   22.8591 C.2     1  UNL1        0.2191
      9 C           5.5339   -3.8584   23.3573 C.3     1  UNL1        0.1226
     10 C           2.6398   -0.3326   20.6138 C.ar    1  UNL1        0.0884
     11 C           1.2518    0.1242   20.9527 C.ar    1  UNL1        0.0077
     12 C           0.4051    0.7895   19.9084 C.ar    1  UNL1        0.0003
     13 C           0.9465    0.9979   18.5252 C.ar    1  UNL1        0.0000
     14 C           2.3344    0.5411   18.1862 C.ar    1  UNL1        0.0002
     15 C           3.1811   -0.1241   19.2305 C.ar    1  UNL1        0.0074
     16 C           4.5690   -0.5809   18.8915 C.ar    1  UNL1        0.0002
     17 C           5.7460    0.2894   19.2190 C.ar    1  UNL1        0.0000
     18 C           7.1339   -0.1674   18.8800 C.ar    1  UNL1        0.0000
     19 C           7.3449   -1.4945   18.2135 C.ar    1  UNL1        0.0000
     20 C           6.1680   -2.3648   17.8860 C.ar    1  UNL1        0.0000
     21 C           4.7800   -1.9080   18.2250 C.ar    1  UNL1        0.0000
     22 S           7.0003   -5.0107   25.1662 S.O2    1  UNL1        0.0054
     23 O           6.7410   -4.5852   26.5810 O.2     1  UNL1       -0.1689
     24 O           7.2596   -5.4361   23.7514 O.2     1  UNL1       -0.1689
     25 C           7.7392   -6.2172   25.6644 C.3     1  UNL1        0.1556
     26 C           9.5188   -8.0610   25.2362 C.3     1  UNL1        0.0019
     27 C           8.5404   -7.0528   24.7106 C.3     1  UNL1        0.0257
@<TRIPOS>BOND
     1    26    27    1
     2    27    25    1
     3    25    22    1
     4    22    23    2
     5    22    24    2
     6    22     1    1
     7     1     2    2
     8     2     3    1
     9     3     4    2
    10     4     5    1
    11     5     6    2
    12     6    10    1
    13    10    11   ar
    14    11    12   ar
    15    12    13   ar
    16    13    14   ar
    17    14    15   ar
    18    15    16    1
    19    16    17   ar
    20    17    18   ar
    21    18    19   ar
    22    19    20   ar
    23    20    21   ar
    24     6     7    1
    25     7     8    2
    26     8     9    1
    27     9     1    1
    28     8     4    1
    29    15    10   ar
    30    21    16   ar
