@<TRIPOS>MOLECULE
*****
 30 33 0 0 0
SMALL
GASTEIGER

@<TRIPOS>ATOM
      1 C         -15.7687   -8.5857   18.5277 C.3     1  UNL1        0.0333
      2 C         -16.0008   -7.2410   19.1505 C.3     1  UNL1        0.0074
      3 C         -14.9000   -6.2221   19.1672 C.3     1  UNL1        0.0248
      4 C         -13.5672   -6.5480   18.5610 C.3     1  UNL1        0.1084
      5 C         -13.3351   -7.8927   17.9383 C.3     1  UNL1        0.0248
      6 C         -14.4358   -8.9116   17.9216 C.3     1  UNL1        0.0074
      7 C         -17.1927   -8.7462   18.9710 C.ar    1  UNL1       -0.0207
      8 C         -17.6935   -7.9984   20.1710 C.ar    1  UNL1       -0.0042
      9 C         -19.1175   -8.1590   20.6142 C.ar    1  UNL1        0.0005
     10 C         -20.0406   -9.0673   19.8575 C.ar    1  UNL1        0.0114
     11 C         -19.5398   -9.8151   18.6575 C.ar    1  UNL1        0.0574
     12 CL        -20.4630  -10.7234   17.9007 Cl      1  UNL1       -0.0823
     13 C         -18.1159   -9.6545   18.2143 C.ar    1  UNL1        0.0072
     14 N         -12.4664   -5.5291   18.5777 N.ar    1  UNL1       -0.2186
     15 N         -12.7746   -4.0875   18.3008 N.ar    1  UNL1       -0.1668
     16 C         -11.6738   -3.0686   18.3175 C.ar    1  UNL1        0.1026
     17 C         -10.2650   -3.4914   18.6111 C.ar    1  UNL1        0.0258
     18 C          -9.9568   -4.9331   18.8880 C.ar    1  UNL1        0.0638
     19 C         -11.0575   -5.9519   18.8713 C.ar    1  UNL1        0.2764
     20 O         -10.7493   -7.3935   19.1483 O.2     1  UNL1       -0.2655
     21 C         -11.9820   -1.6269   18.0405 C.ar    1  UNL1        0.0385
     22 C         -13.2373   -1.0107   18.5832 C.ar    1  UNL1        0.0047
     23 C         -13.5455    0.4310   18.3062 C.ar    1  UNL1        0.0207
     24 C         -12.5983    1.2563   17.4867 C.ar    1  UNL1        0.0989
     25 N         -11.3431    0.6401   16.9441 N.ar    1  UNL1       -0.2423
     26 C         -11.0348   -0.8016   17.2210 C.ar    1  UNL1        0.1004
     27 N         -14.8893  -10.9406   17.8712 N.3     1  UNL1       -0.3209
     28 C         -16.0311   -9.9862   18.0589 C.3     1  UNL1        0.0691
     29 H         -15.2475  -11.8404   17.5511 H       1  UNL1        0.1189
     30 H         -14.4010  -11.0651   18.7580 H       1  UNL1        0.1189
@<TRIPOS>BOND
     1    27    28    1
     2     1    28    1
     3     1     7    1
     4     7     8   ar
     5     8     9   ar
     6     9    10   ar
     7    10    11   ar
     8    11    12    1
     9    11    13   ar
    10     1     2    1
    11     2     3    1
    12     3     4    1
    13     4    14    1
    14    14    15   ar
    15    15    16   ar
    16    16    21    1
    17    21    22   ar
    18    22    23   ar
    19    23    24   ar
    20    24    25   ar
    21    25    26   ar
    22    16    17   ar
    23    17    18   ar
    24    18    19   ar
    25    19    20    2
    26     4     5    1
    27     5     6    1
    28     6     1    1
    29    13     7   ar
    30    19    14   ar
    31    26    21   ar
    32    27    29    1
    33    27    30    1
@<TRIPOS>MOLECULE
*****
 30 33 0 0 0
SMALL
GASTEIGER

@<TRIPOS>ATOM
      1 C           3.2510   -0.7215   18.9478 C.3     1  UNL1        0.0333
      2 C           2.5650   -1.1572   20.2085 C.3     1  UNL1        0.0074
      3 C           1.5118   -0.2874   20.8284 C.3     1  UNL1        0.0248
      4 C           1.1448    1.0182   20.1875 C.3     1  UNL1        0.1084
      5 C           1.8308    1.4540   18.9268 C.3     1  UNL1        0.0248
      6 C           2.8840    0.5842   18.3069 C.3     1  UNL1        0.0074
      7 C           3.9394   -2.0341   19.1786 C.ar    1  UNL1       -0.0207
      8 C           3.1704   -3.3161   19.0557 C.ar    1  UNL1       -0.0042
      9 C           3.8588   -4.6286   19.2865 C.ar    1  UNL1        0.0005
     10 C           5.3162   -4.6592   19.6402 C.ar    1  UNL1        0.0114
     11 C           6.0852   -3.3772   19.7631 C.ar    1  UNL1        0.0574
     12 CL          7.5426   -3.4078   20.1168 Cl      1  UNL1       -0.0823
     13 C           5.3968   -2.0647   19.5323 C.ar    1  UNL1        0.0072
     14 N           0.0917    1.8881   20.8074 N.ar    1  UNL1       -0.2186
     15 N          -1.1480    2.2307   20.0355 N.ar    1  UNL1       -0.1668
     16 C          -2.2012    3.1005   20.6555 C.ar    1  UNL1        0.1026
     17 C          -2.0146    3.6277   22.0473 C.ar    1  UNL1        0.0258
     18 C          -0.7749    3.2852   22.8192 C.ar    1  UNL1        0.0638
     19 C           0.2782    2.4153   22.1992 C.ar    1  UNL1        0.2764
     20 O           1.5179    2.0728   22.9712 O.2     1  UNL1       -0.2655
     21 C          -3.4409    3.4431   19.8836 C.ar    1  UNL1        0.0385
     22 C          -4.7908    3.2497   20.5082 C.ar    1  UNL1        0.0047
     23 C          -6.0305    3.5923   19.7363 C.ar    1  UNL1        0.0207
     24 C          -5.9201    4.1283   18.3397 C.ar    1  UNL1        0.0989
     25 N          -4.5702    4.3217   17.7150 N.ar    1  UNL1       -0.2423
     26 C          -3.3305    3.9791   18.4870 C.ar    1  UNL1        0.1004
     27 N           3.6593   -1.1378   16.4160 N.3     1  UNL1       -0.3209
     28 C           4.1762   -0.7416   17.7672 C.3     1  UNL1        0.0691
     29 H           4.4184   -1.0958   15.7359 H       1  UNL1        0.1189
     30 H           2.9158   -0.4984   16.1355 H       1  UNL1        0.1189
@<TRIPOS>BOND
     1    27    28    1
     2     1    28    1
     3     1     7    1
     4     7     8   ar
     5     8     9   ar
     6     9    10   ar
     7    10    11   ar
     8    11    12    1
     9    11    13   ar
    10     1     2    1
    11     2     3    1
    12     3     4    1
    13     4    14    1
    14    14    15   ar
    15    15    16   ar
    16    16    21    1
    17    21    22   ar
    18    22    23   ar
    19    23    24   ar
    20    24    25   ar
    21    25    26   ar
    22    16    17   ar
    23    17    18   ar
    24    18    19   ar
    25    19    20    2
    26     4     5    1
    27     5     6    1
    28     6     1    1
    29    13     7   ar
    30    19    14   ar
    31    26    21   ar
    32    27    29    1
    33    27    30    1
@<TRIPOS>MOLECULE
*****
 30 33 0 0 0
SMALL
GASTEIGER

@<TRIPOS>ATOM
      1 C          -9.7957  -19.1915   23.0888 C.3     1  UNL1        0.0333
      2 C          -9.3944  -18.2966   21.9539 C.3     1  UNL1        0.0074
      3 C          -8.0914  -18.5219   21.2458 C.3     1  UNL1        0.0248
      4 C          -7.1897  -19.6421   21.6727 C.3     1  UNL1        0.1084
      5 C          -7.5910  -20.5370   22.8076 C.3     1  UNL1        0.0248
      6 C          -8.8941  -20.3117   23.5157 C.3     1  UNL1        0.0074
      7 C         -10.9796  -18.2711   23.0516 C.ar    1  UNL1       -0.0207
      8 C         -10.8670  -16.9307   22.3878 C.ar    1  UNL1       -0.0042
      9 C         -12.0509  -16.0104   22.3507 C.ar    1  UNL1        0.0005
     10 C         -13.3474  -16.4305   22.9774 C.ar    1  UNL1        0.0114
     11 C         -13.4600  -17.7708   23.6412 C.ar    1  UNL1        0.0574
     12 CL        -14.7565  -18.1909   24.2679 Cl      1  UNL1       -0.0823
     13 C         -12.2761  -18.6911   23.6783 C.ar    1  UNL1        0.0072
     14 N          -5.8867  -19.8673   20.9646 N.ar    1  UNL1       -0.2186
     15 N          -4.7783  -18.8652   21.0966 N.ar    1  UNL1       -0.1668
     16 C          -3.4753  -19.0905   20.3884 C.ar    1  UNL1        0.1026
     17 C          -3.2807  -20.3178   19.5484 C.ar    1  UNL1        0.0258
     18 C          -4.3890  -21.3200   19.4164 C.ar    1  UNL1        0.0638
     19 C          -5.6920  -21.0946   20.1246 C.ar    1  UNL1        0.2764
     20 O          -6.8003  -22.0968   19.9926 O.2     1  UNL1       -0.2655
     21 C          -2.3670  -18.0884   20.5204 C.ar    1  UNL1        0.0385
     22 C          -1.0812  -18.2896   19.7746 C.ar    1  UNL1        0.0047
     23 C           0.0272  -17.2874   19.9066 C.ar    1  UNL1        0.0207
     24 C          -0.1504  -16.0842   20.7844 C.ar    1  UNL1        0.0989
     25 N          -1.4362  -15.8830   21.5302 N.ar    1  UNL1       -0.2423
     26 C          -2.5446  -16.8851   21.3982 C.ar    1  UNL1        0.1004
     27 N          -9.9228  -20.3531   25.4093 N.3     1  UNL1       -0.3209
     28 C         -10.6083  -19.7668   24.2108 C.3     1  UNL1        0.0691
     29 H         -10.6226  -20.6948   26.0679 H       1  UNL1        0.1189
     30 H          -9.3533  -19.6366   25.8596 H       1  UNL1        0.1189
@<TRIPOS>BOND
     1    27    28    1
     2     1    28    1
     3     1     7    1
     4     7     8   ar
     5     8     9   ar
     6     9    10   ar
     7    10    11   ar
     8    11    12    1
     9    11    13   ar
    10     1     2    1
    11     2     3    1
    12     3     4    1
    13     4    14    1
    14    14    15   ar
    15    15    16   ar
    16    16    21    1
    17    21    22   ar
    18    22    23   ar
    19    23    24   ar
    20    24    25   ar
    21    25    26   ar
    22    16    17   ar
    23    17    18   ar
    24    18    19   ar
    25    19    20    2
    26     4     5    1
    27     5     6    1
    28     6     1    1
    29    13     7   ar
    30    19    14   ar
    31    26    21   ar
    32    27    29    1
    33    27    30    1
@<TRIPOS>MOLECULE
*****
 30 33 0 0 0
SMALL
GASTEIGER

@<TRIPOS>ATOM
      1 C           3.0597    0.1443   20.5955 C.3     1  UNL1        0.0333
      2 C           1.7207   -0.5253   20.6890 C.3     1  UNL1        0.0074
      3 C           0.4659    0.2839   20.5458 C.3     1  UNL1        0.0248
      4 C           0.5500    1.7628   20.3091 C.3     1  UNL1        0.1084
      5 C           1.8889    2.4324   20.2155 C.3     1  UNL1        0.0248
      6 C           3.1438    1.6232   20.3587 C.3     1  UNL1        0.0074
      7 C           3.4928   -1.2729   20.8278 C.ar    1  UNL1       -0.0207
      8 C           3.9405   -1.7063   22.1922 C.ar    1  UNL1       -0.0042
      9 C           4.3736   -3.1234   22.4244 C.ar    1  UNL1        0.0005
     10 C           4.3591   -4.1072   21.2922 C.ar    1  UNL1        0.0114
     11 C           3.9115   -3.6739   19.9278 C.ar    1  UNL1        0.0574
     12 CL          3.8970   -4.6577   18.7955 Cl      1  UNL1       -0.0823
     13 C           3.4783   -2.2567   19.6955 C.ar    1  UNL1        0.0072
     14 N          -0.7049    2.5720   20.1659 N.ar    1  UNL1       -0.2186
     15 N          -1.6264    2.7406   21.3374 N.ar    1  UNL1       -0.1668
     16 C          -2.8813    3.5498   21.1941 C.ar    1  UNL1        0.1026
     17 C          -3.2146    4.1904   19.8795 C.ar    1  UNL1        0.0258
     18 C          -2.2931    4.0218   18.7079 C.ar    1  UNL1        0.0638
     19 C          -1.0383    3.2126   18.8512 C.ar    1  UNL1        0.2764
     20 O          -0.1168    3.0440   17.6796 O.2     1  UNL1       -0.2655
     21 C          -3.8028    3.7184   22.3657 C.ar    1  UNL1        0.0385
     22 C          -5.2799    3.8560   22.1443 C.ar    1  UNL1        0.0047
     23 C          -6.2014    4.0246   23.3159 C.ar    1  UNL1        0.0207
     24 C          -5.6456    4.0556   24.7087 C.ar    1  UNL1        0.0989
     25 N          -4.1684    3.9180   24.9301 N.ar    1  UNL1       -0.2423
     26 C          -3.2469    3.7494   23.7585 C.ar    1  UNL1        0.1004
     27 N           5.2204    0.9409   19.3927 N.3     1  UNL1       -0.3209
     28 C           4.5491    0.3217   20.5826 C.3     1  UNL1        0.0691
     29 H           6.2267    0.9834   19.5539 H       1  UNL1        0.1189
     30 H           4.8587    1.8840   19.2508 H       1  UNL1        0.1189
@<TRIPOS>BOND
     1    27    28    1
     2     1    28    1
     3     1     7    1
     4     7     8   ar
     5     8     9   ar
     6     9    10   ar
     7    10    11   ar
     8    11    12    1
     9    11    13   ar
    10     1     2    1
    11     2     3    1
    12     3     4    1
    13     4    14    1
    14    14    15   ar
    15    15    16   ar
    16    16    21    1
    17    21    22   ar
    18    22    23   ar
    19    23    24   ar
    20    24    25   ar
    21    25    26   ar
    22    16    17   ar
    23    17    18   ar
    24    18    19   ar
    25    19    20    2
    26     4     5    1
    27     5     6    1
    28     6     1    1
    29    13     7   ar
    30    19    14   ar
    31    26    21   ar
    32    27    29    1
    33    27    30    1
@<TRIPOS>MOLECULE
*****
 30 33 0 0 0
SMALL
GASTEIGER

@<TRIPOS>ATOM
      1 C           4.2027   -0.5226   18.7139 C.3     1  UNL1        0.0333
      2 C           4.9219   -0.0340   19.9362 C.3     1  UNL1        0.0074
      3 C           5.9210   -0.9181   20.6221 C.3     1  UNL1        0.0248
      4 C           6.2008   -2.2906   20.0856 C.3     1  UNL1        0.1084
      5 C           5.4816   -2.7792   18.8633 C.3     1  UNL1        0.0248
      6 C           4.4826   -1.8951   18.1774 C.3     1  UNL1        0.0074
      7 C           3.6005    0.8454   18.8412 C.ar    1  UNL1       -0.0207
      8 C           4.4890    2.0488   18.9514 C.ar    1  UNL1       -0.0042
      9 C           3.8867    3.4166   19.0787 C.ar    1  UNL1        0.0005
     10 C           2.3959    3.5810   19.0958 C.ar    1  UNL1        0.0114
     11 C           1.5073    2.3776   18.9856 C.ar    1  UNL1        0.0574
     12 CL          0.0164    2.5420   19.0026 Cl      1  UNL1       -0.0823
     13 C           2.1096    1.0098   18.8583 C.ar    1  UNL1        0.0072
     14 N           7.1998   -3.1747   20.7714 N.ar    1  UNL1       -0.2186
     15 N           6.8640   -3.8023   22.0919 N.ar    1  UNL1       -0.1668
     16 C           7.8632   -4.6863   22.7777 C.ar    1  UNL1        0.1026
     17 C           9.1979   -4.9427   22.1432 C.ar    1  UNL1        0.0258
     18 C           9.5337   -4.3151   20.8228 C.ar    1  UNL1        0.0638
     19 C           8.5346   -3.4311   20.1370 C.ar    1  UNL1        0.2764
     20 O           8.8704   -2.8034   18.8166 O.2     1  UNL1       -0.2655
     21 C           7.5274   -5.3140   24.0981 C.ar    1  UNL1        0.0385
     22 C           7.9336   -6.7300   24.3803 C.ar    1  UNL1        0.0047
     23 C           7.5978   -7.3577   25.7007 C.ar    1  UNL1        0.0207
     24 C           6.8559   -6.5691   26.7387 C.ar    1  UNL1        0.0989
     25 N           6.4497   -5.1530   26.4565 N.ar    1  UNL1       -0.2423
     26 C           6.7855   -4.5254   25.1361 C.ar    1  UNL1        0.1004
     27 N           3.6834   -1.2223   16.2663 N.3     1  UNL1       -0.3209
     28 C           3.2743   -0.5360   17.5358 C.3     1  UNL1        0.0691
     29 H           2.9375   -1.1338   15.5763 H       1  UNL1        0.1189
     30 H           3.8573   -2.2096   16.4544 H       1  UNL1        0.1189
@<TRIPOS>BOND
     1    27    28    1
     2     1    28    1
     3     1     7    1
     4     7     8   ar
     5     8     9   ar
     6     9    10   ar
     7    10    11   ar
     8    11    12    1
     9    11    13   ar
    10     1     2    1
    11     2     3    1
    12     3     4    1
    13     4    14    1
    14    14    15   ar
    15    15    16   ar
    16    16    21    1
    17    21    22   ar
    18    22    23   ar
    19    23    24   ar
    20    24    25   ar
    21    25    26   ar
    22    16    17   ar
    23    17    18   ar
    24    18    19   ar
    25    19    20    2
    26     4     5    1
    27     5     6    1
    28     6     1    1
    29    13     7   ar
    30    19    14   ar
    31    26    21   ar
    32    27    29    1
    33    27    30    1
@<TRIPOS>MOLECULE
*****
 30 33 0 0 0
SMALL
GASTEIGER

@<TRIPOS>ATOM
      1 C         -13.5916   -4.6724   19.1852 C.3     1  UNL1        0.0333
      2 C         -13.2618   -3.2788   18.7389 C.3     1  UNL1        0.0074
      3 C         -14.2751   -2.1832   18.8904 C.3     1  UNL1        0.0248
      4 C         -15.6182   -2.4813   19.4882 C.3     1  UNL1        0.1084
      5 C         -15.9480   -3.8748   19.9345 C.3     1  UNL1        0.0248
      6 C         -14.9347   -4.9704   19.7830 C.3     1  UNL1        0.0074
      7 C         -12.1945   -4.8839   18.6816 C.ar    1  UNL1       -0.0207
      8 C         -11.5465   -3.8489   17.8105 C.ar    1  UNL1       -0.0042
      9 C         -10.1495   -4.0605   17.3070 C.ar    1  UNL1        0.0005
     10 C          -9.4005   -5.3070   17.6746 C.ar    1  UNL1        0.0114
     11 C         -10.0485   -6.3420   18.5458 C.ar    1  UNL1        0.0574
     12 CL         -9.2995   -7.5885   18.9134 Cl      1  UNL1       -0.0823
     13 C         -11.4455   -6.1304   19.0493 C.ar    1  UNL1        0.0072
     14 N         -16.6314   -1.3857   19.6397 N.ar    1  UNL1       -0.2186
     15 N         -16.3103   -0.1763   20.4670 N.ar    1  UNL1       -0.1668
     16 C         -17.3237    0.9193   20.6184 C.ar    1  UNL1        0.1026
     17 C         -18.6580    0.8055   19.9427 C.ar    1  UNL1        0.0258
     18 C         -18.9790   -0.4039   19.1154 C.ar    1  UNL1        0.0638
     19 C         -17.9657   -1.4994   18.9640 C.ar    1  UNL1        0.2764
     20 O         -18.2868   -2.7088   18.1367 O.2     1  UNL1       -0.2655
     21 C         -17.0027    2.1287   21.4457 C.ar    1  UNL1        0.0385
     22 C         -17.3966    2.1740   22.8923 C.ar    1  UNL1        0.0047
     23 C         -17.0755    3.3834   23.7196 C.ar    1  UNL1        0.0207
     24 C         -16.3605    4.5474   23.1001 C.ar    1  UNL1        0.0989
     25 N         -15.9665    4.5021   21.6535 N.ar    1  UNL1       -0.2423
     26 C         -16.2876    3.2927   20.8262 C.ar    1  UNL1        0.1004
     27 N         -14.6418   -7.0318   19.4683 N.3     1  UNL1       -0.3209
     28 C         -13.4362   -6.1394   19.4566 C.3     1  UNL1        0.0691
     29 H         -14.3537   -7.9898   19.6675 H       1  UNL1        0.1189
     30 H         -15.0995   -6.9969   18.5575 H       1  UNL1        0.1189
@<TRIPOS>BOND
     1    27    28    1
     2     1    28    1
     3     1     7    1
     4     7     8   ar
     5     8     9   ar
     6     9    10   ar
     7    10    11   ar
     8    11    12    1
     9    11    13   ar
    10     1     2    1
    11     2     3    1
    12     3     4    1
    13     4    14    1
    14    14    15   ar
    15    15    16   ar
    16    16    21    1
    17    21    22   ar
    18    22    23   ar
    19    23    24   ar
    20    24    25   ar
    21    25    26   ar
    22    16    17   ar
    23    17    18   ar
    24    18    19   ar
    25    19    20    2
    26     4     5    1
    27     5     6    1
    28     6     1    1
    29    13     7   ar
    30    19    14   ar
    31    26    21   ar
    32    27    29    1
    33    27    30    1
@<TRIPOS>MOLECULE
*****
 30 33 0 0 0
SMALL
GASTEIGER

@<TRIPOS>ATOM
      1 C           1.3092    2.9903   18.3957 C.3     1  UNL1        0.0333
      2 C           0.6826    1.6465   18.6223 C.3     1  UNL1        0.0074
      3 C           1.5490    0.4340   18.7927 C.3     1  UNL1        0.0248
      4 C           3.0422    0.5654   18.7364 C.3     1  UNL1        0.1084
      5 C           3.6689    1.9092   18.5097 C.3     1  UNL1        0.0248
      6 C           2.8024    3.1217   18.3393 C.3     1  UNL1        0.0074
      7 C          -0.1413    3.3718   18.3702 C.ar    1  UNL1       -0.0207
      8 C          -0.7755    3.8241   17.0883 C.ar    1  UNL1       -0.0042
      9 C          -2.2259    4.2054   17.0629 C.ar    1  UNL1        0.0005
     10 C          -3.0422    4.1345   18.3194 C.ar    1  UNL1        0.0114
     11 C          -2.4080    3.6822   19.6012 C.ar    1  UNL1        0.0574
     12 CL         -3.2243    3.6113   20.8577 Cl      1  UNL1       -0.0823
     13 C          -0.9576    3.3008   19.6266 C.ar    1  UNL1        0.0072
     14 N           3.9087   -0.6471   18.9067 N.ar    1  UNL1       -0.2186
     15 N           4.2919   -1.1079   20.2818 N.ar    1  UNL1       -0.1668
     16 C           5.1584   -2.3205   20.4521 C.ar    1  UNL1        0.1026
     17 C           5.6417   -3.0722   19.2474 C.ar    1  UNL1        0.0258
     18 C           5.2585   -2.6113   17.8723 C.ar    1  UNL1        0.0638
     19 C           4.3920   -1.3988   17.7020 C.ar    1  UNL1        0.2764
     20 O           4.0088   -0.9380   16.3269 O.2     1  UNL1       -0.2655
     21 C           5.5416   -2.7813   21.8272 C.ar    1  UNL1        0.0385
     22 C           4.8954   -2.1645   23.0321 C.ar    1  UNL1        0.0047
     23 C           5.2786   -2.6253   24.4072 C.ar    1  UNL1        0.0207
     24 C           6.3079   -3.7030   24.5773 C.ar    1  UNL1        0.0989
     25 N           6.9541   -4.3199   23.3724 N.ar    1  UNL1       -0.2423
     26 C           6.5709   -3.8590   21.9972 C.ar    1  UNL1        0.1004
     27 N           2.0285    5.3477   19.2175 N.3     1  UNL1       -0.3209
     28 C           1.4322    4.4667   18.1601 C.3     1  UNL1        0.0691
     29 H           2.0339    6.3142   18.8914 H       1  UNL1        0.1189
     30 H           2.9844    5.0485   19.4100 H       1  UNL1        0.1189
@<TRIPOS>BOND
     1    27    28    1
     2     1    28    1
     3     1     7    1
     4     7     8   ar
     5     8     9   ar
     6     9    10   ar
     7    10    11   ar
     8    11    12    1
     9    11    13   ar
    10     1     2    1
    11     2     3    1
    12     3     4    1
    13     4    14    1
    14    14    15   ar
    15    15    16   ar
    16    16    21    1
    17    21    22   ar
    18    22    23   ar
    19    23    24   ar
    20    24    25   ar
    21    25    26   ar
    22    16    17   ar
    23    17    18   ar
    24    18    19   ar
    25    19    20    2
    26     4     5    1
    27     5     6    1
    28     6     1    1
    29    13     7   ar
    30    19    14   ar
    31    26    21   ar
    32    27    29    1
    33    27    30    1
@<TRIPOS>MOLECULE
*****
 30 33 0 0 0
SMALL
GASTEIGER

@<TRIPOS>ATOM
      1 C           5.6731   -1.5054   21.8107 C.3     1  UNL1        0.0333
      2 C           4.7185   -2.5562   22.2951 C.3     1  UNL1        0.0074
      3 C           5.1542   -3.5418   23.3384 C.3     1  UNL1        0.0248
      4 C           6.5447   -3.4767   23.8974 C.3     1  UNL1        0.1084
      5 C           7.4993   -2.4260   23.4130 C.3     1  UNL1        0.0248
      6 C           7.0635   -1.4403   22.3697 C.3     1  UNL1        0.0074
      7 C           4.4689   -1.1645   20.9837 C.ar    1  UNL1       -0.0207
      8 C           3.1493   -0.9097   21.6498 C.ar    1  UNL1       -0.0042
      9 C           1.9453   -0.5687   20.8229 C.ar    1  UNL1        0.0005
     10 C           2.0608   -0.4825   19.3298 C.ar    1  UNL1        0.0114
     11 C           3.3804   -0.7373   18.6637 C.ar    1  UNL1        0.0574
     12 CL          3.4959   -0.6511   17.1707 Cl      1  UNL1       -0.0823
     13 C           4.5844   -1.0783   19.4907 C.ar    1  UNL1        0.0072
     14 N           6.9805   -4.4624   24.9407 N.ar    1  UNL1       -0.2186
     15 N           6.7903   -4.1483   26.3951 N.ar    1  UNL1       -0.1668
     16 C           7.2262   -5.1341   27.4385 C.ar    1  UNL1        0.1026
     17 C           7.8520   -6.4337   27.0274 C.ar    1  UNL1        0.0258
     18 C           8.0422   -6.7478   25.5730 C.ar    1  UNL1        0.0638
     19 C           7.6064   -5.7621   24.5297 C.ar    1  UNL1        0.2764
     20 O           7.7966   -6.0761   23.0753 O.2     1  UNL1       -0.2655
     21 C           7.0360   -4.8200   28.8929 C.ar    1  UNL1        0.0385
     22 C           7.2454   -5.8885   29.9245 C.ar    1  UNL1        0.0047
     23 C           7.0553   -5.5744   31.3789 C.ar    1  UNL1        0.0207
     24 C           6.6557   -4.1918   31.8015 C.ar    1  UNL1        0.0989
     25 N           6.4463   -3.1233   30.7699 N.ar    1  UNL1       -0.2423
     26 C           6.6364   -3.4374   29.3155 C.ar    1  UNL1        0.1004
     27 N           7.6896   -0.1712   20.8603 N.3     1  UNL1       -0.3209
     28 C           6.2095   -0.3363   21.0391 C.3     1  UNL1        0.0691
     29 H           7.8743    0.6707   20.3148 H       1  UNL1        0.1189
     30 H           8.0655   -0.9831   20.3704 H       1  UNL1        0.1189
@<TRIPOS>BOND
     1    27    28    1
     2     1    28    1
     3     1     7    1
     4     7     8   ar
     5     8     9   ar
     6     9    10   ar
     7    10    11   ar
     8    11    12    1
     9    11    13   ar
    10     1     2    1
    11     2     3    1
    12     3     4    1
    13     4    14    1
    14    14    15   ar
    15    15    16   ar
    16    16    21    1
    17    21    22   ar
    18    22    23   ar
    19    23    24   ar
    20    24    25   ar
    21    25    26   ar
    22    16    17   ar
    23    17    18   ar
    24    18    19   ar
    25    19    20    2
    26     4     5    1
    27     5     6    1
    28     6     1    1
    29    13     7   ar
    30    19    14   ar
    31    26    21   ar
    32    27    29    1
    33    27    30    1
@<TRIPOS>MOLECULE
*****
 30 33 0 0 0
SMALL
GASTEIGER

@<TRIPOS>ATOM
      1 C         -11.5535  -17.0673   22.3563 C.3     1  UNL1        0.0333
      2 C         -11.0881  -17.6063   23.6765 C.3     1  UNL1        0.0074
      3 C          -9.6517  -17.4588   24.0825 C.3     1  UNL1        0.0248
      4 C          -8.6806  -16.7723   23.1682 C.3     1  UNL1        0.1084
      5 C          -9.1459  -16.2333   21.8481 C.3     1  UNL1        0.0248
      6 C         -10.5824  -16.3808   21.4421 C.3     1  UNL1        0.0074
      7 C         -12.8416  -17.6351   22.8745 C.ar    1  UNL1       -0.0207
      8 C         -13.9162  -18.0539   21.9155 C.ar    1  UNL1       -0.0042
      9 C         -15.2042  -18.6217   22.4337 C.ar    1  UNL1        0.0005
     10 C         -15.4177  -18.7705   23.9110 C.ar    1  UNL1        0.0114
     11 C         -14.3431  -18.3517   24.8700 C.ar    1  UNL1        0.0574
     12 CL        -14.5565  -18.5005   26.3473 Cl      1  UNL1       -0.0823
     13 C         -13.0551  -17.7839   24.3518 C.ar    1  UNL1        0.0072
     14 N          -7.2441  -16.6249   23.5742 N.ar    1  UNL1       -0.2186
     15 N          -6.1695  -17.3270   22.7981 N.ar    1  UNL1       -0.1668
     16 C          -4.7330  -17.1794   23.2042 C.ar    1  UNL1        0.1026
     17 C          -4.3712  -16.3300   24.3862 C.ar    1  UNL1        0.0258
     18 C          -5.4458  -15.6279   25.1624 C.ar    1  UNL1        0.0638
     19 C          -6.8822  -15.7754   24.7563 C.ar    1  UNL1        0.2764
     20 O          -7.9569  -15.0733   25.5324 O.2     1  UNL1       -0.2655
     21 C          -3.6584  -17.8815   22.4280 C.ar    1  UNL1        0.0385
     22 C          -2.5225  -17.0969   21.8415 C.ar    1  UNL1        0.0047
     23 C          -1.4479  -17.7990   21.0654 C.ar    1  UNL1        0.0207
     24 C          -1.5093  -19.2857   20.8758 C.ar    1  UNL1        0.0989
     25 N          -2.6452  -20.0703   21.4623 N.ar    1  UNL1       -0.2423
     26 C          -3.7198  -19.3682   22.2385 C.ar    1  UNL1        0.1004
     27 N         -11.8928  -16.3819   19.8734 N.3     1  UNL1       -0.3209
     28 C         -12.4662  -16.7255   21.2161 C.3     1  UNL1        0.0691
     29 H         -12.6507  -16.1781   19.2220 H       1  UNL1        0.1189
     30 H         -11.3475  -17.1702   19.5247 H       1  UNL1        0.1189
@<TRIPOS>BOND
     1    27    28    1
     2     1    28    1
     3     1     7    1
     4     7     8   ar
     5     8     9   ar
     6     9    10   ar
     7    10    11   ar
     8    11    12    1
     9    11    13   ar
    10     1     2    1
    11     2     3    1
    12     3     4    1
    13     4    14    1
    14    14    15   ar
    15    15    16   ar
    16    16    21    1
    17    21    22   ar
    18    22    23   ar
    19    23    24   ar
    20    24    25   ar
    21    25    26   ar
    22    16    17   ar
    23    17    18   ar
    24    18    19   ar
    25    19    20    2
    26     4     5    1
    27     5     6    1
    28     6     1    1
    29    13     7   ar
    30    19    14   ar
    31    26    21   ar
    32    27    29    1
    33    27    30    1
