@<TRIPOS>MOLECULE
*****
 19 20 0 0 0
SMALL
GASTEIGER

@<TRIPOS>ATOM
      1 C         -10.7373  -17.9530   20.8672 C.2     1  UNL1        0.0107
      2 C         -10.6842  -18.9718   19.7676 C.2     1  UNL1        0.0054
      3 C          -9.3932  -19.6665   19.4504 C.2     1  UNL1        0.0400
      4 C          -8.1551  -19.3423   20.2328 C.2     1  UNL1        0.1888
      5 N          -6.7500  -19.8605   20.1484 N.2     1  UNL1       -0.0675
      6 C          -5.9346  -19.1619   21.1959 C.2     1  UNL1        0.4288
      7 N          -6.8358  -18.2119   21.9276 N.2     1  UNL1       -0.0713
      8 C          -8.2082  -18.3234   21.3323 C.2     1  UNL1        0.1750
      9 C          -9.4992  -17.6288   21.6495 C.3     1  UNL1        0.0997
     10 N          -4.4744  -19.3758   21.4644 N.am    1  UNL1       -0.1353
     11 C          -3.4510  -18.8706   20.4911 C.2     1  UNL1        0.4699
     12 O          -3.8878  -18.1515   19.2492 O.2     1  UNL1       -0.2094
     13 H          -4.1878  -19.8478   22.2795 H       1  UNL1        0.2579
     14 O          -1.9908  -19.0844   20.7596 O.3     1  UNL1       -0.4187
     15 C          -0.9640  -18.3417   19.9571 C.3     1  UNL1        0.2589
     16 S         -12.0283  -17.2583   21.1844 S.3     1  UNL1       -0.1176
     17 C         -12.3949  -16.9713   22.6103 C.3     1  UNL1        0.0619
     18 C         -14.0579  -18.1070   24.2519 C.3     1  UNL1        0.0009
     19 C         -12.7387  -18.0989   23.5379 C.3     1  UNL1        0.0120
@<TRIPOS>BOND
     1    18    19    1
     2    19    17    1
     3    17    16    1
     4    16     1    1
     5     1     2    2
     6     2     3    1
     7     3     4    2
     8     4     5    1
     9     5     6    2
    10     6    10    1
    11    10    11   am
    12    11    12    2
    13    11    14    1
    14    14    15    1
    15     6     7    1
    16     7     8    2
    17     8     9    1
    18     9     1    1
    19     8     4    1
    20    10    13    1
@<TRIPOS>MOLECULE
*****
 19 20 0 0 0
SMALL
GASTEIGER

@<TRIPOS>ATOM
      1 C         -10.3394  -18.1958   22.7853 C.2     1  UNL1        0.0107
      2 C         -10.1164  -19.4647   23.5533 C.2     1  UNL1        0.0054
      3 C          -8.8602  -20.2573   23.3438 C.2     1  UNL1        0.0400
      4 C          -7.8271  -19.7809   22.3663 C.2     1  UNL1        0.1888
      5 N          -6.5012  -20.3466   21.9518 N.2     1  UNL1       -0.0675
      6 C          -5.9047  -19.4273   20.9276 C.2     1  UNL1        0.4288
      7 N          -6.8620  -18.2933   20.7090 N.2     1  UNL1       -0.0713
      8 C          -8.0501  -18.5119   21.5982 C.2     1  UNL1        0.1750
      9 C          -9.3063  -17.7194   21.8077 C.3     1  UNL1        0.0997
     10 N          -4.5829  -19.6098   20.2422 N.am    1  UNL1       -0.1353
     11 C          -3.4116  -18.7580   20.6327 C.2     1  UNL1        0.4699
     12 O          -3.5621  -17.7236   21.7086 O.2     1  UNL1       -0.2094
     13 H          -4.4841  -20.2887   19.5361 H       1  UNL1        0.2579
     14 O          -2.0899  -18.9405   19.9474 O.3     1  UNL1       -0.4187
     15 C          -1.5602  -17.8685   19.0418 C.3     1  UNL1        0.2589
     16 S         -11.5956  -17.4032   22.9948 S.3     1  UNL1       -0.1176
     17 C         -11.8709  -16.1963   22.1478 C.3     1  UNL1        0.0619
     18 C         -11.6739  -15.9056   19.5735 C.3     1  UNL1        0.0009
     19 C         -12.4501  -16.3605   20.7739 C.3     1  UNL1        0.0120
@<TRIPOS>BOND
     1    18    19    1
     2    19    17    1
     3    17    16    1
     4    16     1    1
     5     1     2    2
     6     2     3    1
     7     3     4    2
     8     4     5    1
     9     5     6    2
    10     6    10    1
    11    10    11   am
    12    11    12    2
    13    11    14    1
    14    14    15    1
    15     6     7    1
    16     7     8    2
    17     8     9    1
    18     9     1    1
    19     8     4    1
    20    10    13    1
@<TRIPOS>MOLECULE
*****
 19 20 0 0 0
SMALL
GASTEIGER

@<TRIPOS>ATOM
      1 C          -9.6380  -18.6520   22.6919 C.2     1  UNL1        0.0107
      2 C          -9.2852  -17.2564   23.1134 C.2     1  UNL1        0.0054
      3 C          -7.8504  -16.8196   23.1354 C.2     1  UNL1        0.0400
      4 C          -6.7683  -17.7785   22.7358 C.2     1  UNL1        0.1888
      5 N          -5.2773  -17.6339   22.6586 N.2     1  UNL1       -0.0675
      6 C          -4.7086  -18.9403   22.1894 C.2     1  UNL1        0.4288
      7 N          -5.8481  -19.8922   21.9766 N.2     1  UNL1       -0.0713
      8 C          -7.1211  -19.1741   22.3143 C.2     1  UNL1        0.1750
      9 C          -8.5560  -19.6109   22.2923 C.3     1  UNL1        0.0997
     10 N          -3.2554  -19.2417   21.9714 N.am    1  UNL1       -0.1353
     11 C          -2.5454  -18.6844   20.7733 C.2     1  UNL1        0.4699
     12 O          -3.2886  -17.8257   19.7933 O.2     1  UNL1       -0.2094
     13 H          -2.7677  -19.8053   22.6146 H       1  UNL1        0.2579
     14 O          -1.0923  -18.9858   20.5552 O.3     1  UNL1       -0.4187
     15 C          -0.2177  -17.9917   19.8503 C.3     1  UNL1        0.2589
     16 S         -11.0728  -19.0888   22.6700 S.3     1  UNL1       -0.1176
     17 C         -12.1281  -18.1707   22.1284 C.3     1  UNL1        0.0619
     18 C         -13.8999  -18.0053   24.0214 C.3     1  UNL1        0.0009
     19 C         -12.9533  -17.3405   23.0663 C.3     1  UNL1        0.0120
@<TRIPOS>BOND
     1    18    19    1
     2    19    17    1
     3    17    16    1
     4    16     1    1
     5     1     2    2
     6     2     3    1
     7     3     4    2
     8     4     5    1
     9     5     6    2
    10     6    10    1
    11    10    11   am
    12    11    12    2
    13    11    14    1
    14    14    15    1
    15     6     7    1
    16     7     8    2
    17     8     9    1
    18     9     1    1
    19     8     4    1
    20    10    13    1
@<TRIPOS>MOLECULE
*****
 19 20 0 0 0
SMALL
GASTEIGER

@<TRIPOS>ATOM
      1 C          -3.2961  -19.2835   20.7056 C.2     1  UNL1        0.0107
      2 C          -3.5381  -19.4174   22.1799 C.2     1  UNL1        0.0054
      3 C          -4.9408  -19.4342   22.7112 C.2     1  UNL1        0.0400
      4 C          -6.1014  -19.3171   21.7682 C.2     1  UNL1        0.1888
      5 N          -7.5836  -19.3034   21.9977 N.2     1  UNL1       -0.0675
      6 C          -8.2577  -19.1610   20.6653 C.2     1  UNL1        0.4288
      7 N          -7.1921  -19.0868   19.6123 N.2     1  UNL1       -0.0713
      8 C          -5.8594  -19.1832   20.2940 C.2     1  UNL1        0.1750
      9 C          -4.4567  -19.1664   19.7627 C.3     1  UNL1        0.0997
     10 N          -9.7377  -19.1031   20.4276 N.am    1  UNL1       -0.1353
     11 C         -10.4777  -17.8120   20.6164 C.2     1  UNL1        0.4699
     12 O          -9.7376  -16.5789   21.0428 O.2     1  UNL1       -0.2094
     13 H         -10.2234  -19.9125   20.1478 H       1  UNL1        0.2579
     14 O         -11.9575  -17.7541   20.3788 O.3     1  UNL1       -0.4187
     15 C         -12.9023  -17.6957   21.5424 C.3     1  UNL1        0.2589
     16 S          -1.8934  -19.2668   20.1743 S.3     1  UNL1       -0.1176
     17 C          -1.0273  -18.0598   20.3817 C.3     1  UNL1        0.0619
     18 C          -2.0262  -16.1266   21.8012 C.3     1  UNL1        0.0009
     19 C          -1.6479  -16.6969   20.4663 C.3     1  UNL1        0.0120
@<TRIPOS>BOND
     1    18    19    1
     2    19    17    1
     3    17    16    1
     4    16     1    1
     5     1     2    2
     6     2     3    1
     7     3     4    2
     8     4     5    1
     9     5     6    2
    10     6    10    1
    11    10    11   am
    12    11    12    2
    13    11    14    1
    14    14    15    1
    15     6     7    1
    16     7     8    2
    17     8     9    1
    18     9     1    1
    19     8     4    1
    20    10    13    1
@<TRIPOS>MOLECULE
*****
 19 20 0 0 0
SMALL
GASTEIGER

@<TRIPOS>ATOM
      1 C          -3.6889  -18.5601   22.1467 C.2     1  UNL1        0.0107
      2 C          -3.5885  -17.3173   22.9805 C.2     1  UNL1        0.0054
      3 C          -4.8308  -16.6773   23.5255 C.2     1  UNL1        0.0400
      4 C          -6.1736  -17.2802   23.2367 C.2     1  UNL1        0.1888
      5 N          -7.5620  -16.8758   23.6351 N.2     1  UNL1       -0.0675
      6 C          -8.5206  -17.8687   23.0475 C.2     1  UNL1        0.4288
      7 N          -7.7246  -18.8868   22.2860 N.2     1  UNL1       -0.0713
      8 C          -6.2740  -18.5230   22.4029 C.2     1  UNL1        0.1750
      9 C          -5.0317  -19.1630   21.8579 C.3     1  UNL1        0.0997
     10 N         -10.0132  -17.8473   23.1955 N.am    1  UNL1       -0.1353
     11 C         -10.6630  -18.5563   24.3466 C.2     1  UNL1        0.4699
     12 O          -9.8202  -19.2868   25.3497 O.2     1  UNL1       -0.2094
     13 H         -10.5663  -17.3679   22.5371 H       1  UNL1        0.2579
     14 O         -12.1555  -18.5349   24.4946 O.3     1  UNL1       -0.4187
     15 C         -13.0086  -17.9498   23.4084 C.3     1  UNL1        0.2589
     16 S          -2.4466  -19.2001   21.6016 S.3     1  UNL1       -0.1176
     17 C          -2.1849  -19.1922   20.1247 C.3     1  UNL1        0.0619
     18 C          -0.5257  -17.1954   20.2254 C.3     1  UNL1        0.0009
     19 C          -1.5556  -17.9925   19.4808 C.3     1  UNL1        0.0120
@<TRIPOS>BOND
     1    18    19    1
     2    19    17    1
     3    17    16    1
     4    16     1    1
     5     1     2    2
     6     2     3    1
     7     3     4    2
     8     4     5    1
     9     5     6    2
    10     6    10    1
    11    10    11   am
    12    11    12    2
    13    11    14    1
    14    14    15    1
    15     6     7    1
    16     7     8    2
    17     8     9    1
    18     9     1    1
    19     8     4    1
    20    10    13    1
@<TRIPOS>MOLECULE
*****
 19 20 0 0 0
SMALL
GASTEIGER

@<TRIPOS>ATOM
      1 C         -11.5734   -2.9644   18.5513 C.2     1  UNL1        0.0107
      2 C         -10.6081   -3.6145   17.6050 C.2     1  UNL1        0.0054
      3 C         -10.7160   -5.0821   17.3142 C.2     1  UNL1        0.0400
      4 C         -11.7893   -5.8996   17.9697 C.2     1  UNL1        0.1888
      5 N         -12.1396   -7.3552   17.8776 N.2     1  UNL1       -0.0675
      6 C         -13.3214   -7.6048   18.7670 C.2     1  UNL1        0.4288
      7 N         -13.7015   -6.3034   19.4088 N.2     1  UNL1       -0.0713
      8 C         -12.7546   -5.2495   18.9160 C.2     1  UNL1        0.1750
      9 C         -12.6466   -3.7819   19.2068 C.3     1  UNL1        0.0997
     10 N         -14.0034   -8.9241   18.9776 N.am    1  UNL1       -0.1353
     11 C         -15.0210   -9.4088   17.9878 C.2     1  UNL1        0.4699
     12 O         -15.3566   -8.5741   16.7875 O.2     1  UNL1       -0.2094
     13 H         -13.7831   -9.4719   19.7654 H       1  UNL1        0.2579
     14 O         -15.7030  -10.7281   18.1984 O.3     1  UNL1       -0.4187
     15 C         -17.1079  -10.7710   18.7221 C.3     1  UNL1        0.2589
     16 S         -11.4655   -1.4968   18.8421 S.3     1  UNL1       -0.1176
     17 C         -11.9683   -0.4957   17.8447 C.3     1  UNL1        0.0619
     18 C         -14.4223   -0.3332   18.6823 C.3     1  UNL1        0.0009
     19 C         -13.1830    0.3277   18.1556 C.3     1  UNL1        0.0120
@<TRIPOS>BOND
     1    18    19    1
     2    19    17    1
     3    17    16    1
     4    16     1    1
     5     1     2    2
     6     2     3    1
     7     3     4    2
     8     4     5    1
     9     5     6    2
    10     6    10    1
    11    10    11   am
    12    11    12    2
    13    11    14    1
    14    14    15    1
    15     6     7    1
    16     7     8    2
    17     8     9    1
    18     9     1    1
    19     8     4    1
    20    10    13    1
@<TRIPOS>MOLECULE
*****
 19 20 0 0 0
SMALL
GASTEIGER

@<TRIPOS>ATOM
      1 C         -11.4049   -5.0902   18.8841 C.2     1  UNL1        0.0107
      2 C         -12.4571   -4.2536   19.5497 C.2     1  UNL1        0.0054
      3 C         -13.8216   -4.8241   19.7999 C.2     1  UNL1        0.0400
      4 C         -14.1340   -6.2311   19.3844 C.2     1  UNL1        0.1888
      5 N         -15.3799   -7.0584   19.4992 N.2     1  UNL1       -0.0675
      6 C         -15.0978   -8.4063   18.9046 C.2     1  UNL1        0.4288
      7 N         -13.6775   -8.4121   18.4222 N.2     1  UNL1       -0.0713
      8 C         -13.0819   -7.0676   18.7187 C.2     1  UNL1        0.1750
      9 C         -11.7173   -6.4972   18.4686 C.3     1  UNL1        0.0997
     10 N         -16.0661   -9.5481   18.8091 N.am    1  UNL1       -0.1353
     11 C         -17.2450   -9.4565   17.8862 C.2     1  UNL1        0.4699
     12 O         -17.4557   -8.2231   17.0588 O.2     1  UNL1       -0.2094
     13 H         -15.9278  -10.3575   19.3522 H       1  UNL1        0.2579
     14 O         -18.2132  -10.5981   17.7907 O.3     1  UNL1       -0.4187
     15 C         -19.6122  -10.3566   17.3064 C.3     1  UNL1        0.2589
     16 S         -10.0404   -4.5197   18.6339 S.3     1  UNL1       -0.1176
     17 C          -9.2884   -4.8917   17.3906 C.3     1  UNL1        0.0619
     18 C          -9.9003   -2.6236   16.2809 C.3     1  UNL1        0.0009
     19 C          -9.0678   -3.8710   16.3138 C.3     1  UNL1        0.0120
@<TRIPOS>BOND
     1    18    19    1
     2    19    17    1
     3    17    16    1
     4    16     1    1
     5     1     2    2
     6     2     3    1
     7     3     4    2
     8     4     5    1
     9     5     6    2
    10     6    10    1
    11    10    11   am
    12    11    12    2
    13    11    14    1
    14    14    15    1
    15     6     7    1
    16     7     8    2
    17     8     9    1
    18     9     1    1
    19     8     4    1
    20    10    13    1
@<TRIPOS>MOLECULE
*****
 19 20 0 0 0
SMALL
GASTEIGER

@<TRIPOS>ATOM
      1 C         -12.1862   -4.5370   18.6928 C.2     1  UNL1        0.0107
      2 C         -12.9403   -4.1710   19.9366 C.2     1  UNL1        0.0054
      3 C         -14.2606   -4.8191   20.2314 C.2     1  UNL1        0.0400
      4 C         -14.8267   -5.8333   19.2823 C.2     1  UNL1        0.1888
      5 N         -16.0955   -6.6329   19.3073 N.2     1  UNL1       -0.0675
      6 C         -16.1256   -7.4932   18.0789 C.2     1  UNL1        0.4288
      7 N         -14.8754   -7.2253   17.2946 N.2     1  UNL1       -0.0713
      8 C         -14.0726   -6.1993   18.0384 C.2     1  UNL1        0.1750
      9 C         -12.7524   -5.5512   17.7436 C.3     1  UNL1        0.0997
     10 N         -17.2148   -8.4530   17.7011 N.am    1  UNL1       -0.1353
     11 C         -17.3499   -9.7580   18.4282 C.2     1  UNL1        0.4699
     12 O         -16.3959  -10.1032   19.5331 O.2     1  UNL1       -0.2094
     13 H         -17.8409   -8.2264   16.9759 H       1  UNL1        0.2579
     14 O         -18.4390  -10.7177   18.0505 O.3     1  UNL1       -0.4187
     15 C         -19.4582  -10.3282   17.0212 C.3     1  UNL1        0.2589
     16 S         -10.8660   -3.8889   18.3980 S.3     1  UNL1       -0.1176
     17 C          -9.6155   -4.7166   18.3622 C.3     1  UNL1        0.0619
     18 C          -9.6101   -7.2647   18.8691 C.3     1  UNL1        0.0009
     19 C          -9.4370   -5.8480   19.3307 C.3     1  UNL1        0.0120
@<TRIPOS>BOND
     1    18    19    1
     2    19    17    1
     3    17    16    1
     4    16     1    1
     5     1     2    2
     6     2     3    1
     7     3     4    2
     8     4     5    1
     9     5     6    2
    10     6    10    1
    11    10    11   am
    12    11    12    2
    13    11    14    1
    14    14    15    1
    15     6     7    1
    16     7     8    2
    17     8     9    1
    18     9     1    1
    19     8     4    1
    20    10    13    1
@<TRIPOS>MOLECULE
*****
 19 20 0 0 0
SMALL
GASTEIGER

@<TRIPOS>ATOM
      1 C         -12.2231   -3.8148   18.9523 C.2     1  UNL1        0.0107
      2 C         -11.1838   -4.8888   19.0801 C.2     1  UNL1        0.0054
      3 C         -11.5579   -6.3246   18.8599 C.2     1  UNL1        0.0400
      4 C         -12.9713   -6.6864   18.5118 C.2     1  UNL1        0.1888
      5 N         -13.6317   -8.0053   18.2392 N.2     1  UNL1       -0.0675
      6 C         -15.0792   -7.7466   17.9429 C.2     1  UNL1        0.4288
      7 N         -15.3135   -6.2677   18.0323 N.2     1  UNL1       -0.0713
      8 C         -14.0107   -5.6125   18.3839 C.2     1  UNL1        0.1750
      9 C         -13.6366   -4.1767   18.6042 C.3     1  UNL1        0.0997
     10 N         -16.1113   -8.7845   17.6147 N.am    1  UNL1       -0.1353
     11 C         -16.6269   -9.6954   18.6891 C.2     1  UNL1        0.4699
     12 O         -16.1104   -9.5683   20.0917 O.2     1  UNL1       -0.2094
     13 H         -16.4502   -8.8679   16.6942 H       1  UNL1        0.2579
     14 O         -17.6589  -10.7333   18.3611 O.3     1  UNL1       -0.4187
     15 C         -18.9003  -10.3465   17.6131 C.3     1  UNL1        0.2589
     16 S         -11.8490   -2.3790   19.1725 S.3     1  UNL1       -0.1176
     17 C         -11.9924   -1.3869   18.0566 C.3     1  UNL1        0.0619
     18 C         -10.2834   -1.9351   16.1780 C.3     1  UNL1        0.0009
     19 C         -10.7969   -1.0036   17.2357 C.3     1  UNL1        0.0120
@<TRIPOS>BOND
     1    18    19    1
     2    19    17    1
     3    17    16    1
     4    16     1    1
     5     1     2    2
     6     2     3    1
     7     3     4    2
     8     4     5    1
     9     5     6    2
    10     6    10    1
    11    10    11   am
    12    11    12    2
    13    11    14    1
    14    14    15    1
    15     6     7    1
    16     7     8    2
    17     8     9    1
    18     9     1    1
    19     8     4    1
    20    10    13    1
