@<TRIPOS>MOLECULE
*****
 28 30 0 0 0
SMALL
GASTEIGER

@<TRIPOS>ATOM
      1 C           7.3592   -5.0117   23.8074 C.ar    1  UNL1        0.1029
      2 C           6.6949   -3.7076   23.4788 C.ar    1  UNL1        0.0258
      3 C           6.7765   -3.1541   22.0870 C.ar    1  UNL1        0.0612
      4 C           7.5223   -3.9047   21.0239 C.ar    1  UNL1        0.2484
      5 N           8.1866   -5.2088   21.3526 N.ar    1  UNL1       -0.1099
      6 N           8.1050   -5.7623   22.7443 N.ar    1  UNL1       -0.1451
      7 C           7.8003   -6.9405   25.4912 C.2     1  UNL1       -0.0053
      8 C           7.2776   -5.5652   25.1992 C.2     1  UNL1        0.0180
      9 C           7.7187   -7.4939   26.8830 C.3     1  UNL1        0.0939
     10 C           8.3860   -8.7964   27.2125 C.3     1  UNL1        0.0262
     11 C           6.9720   -5.2638   30.0796 C.3     1  UNL1        0.0946
     12 C           7.7208   -6.0126   29.0174 C.2     1  UNL1        0.2232
     13 O           9.2207   -6.0290   29.0273 O.2     1  UNL1       -0.2751
     14 N           6.9698   -6.7451   27.9452 N.am    1  UNL1       -0.3022
     15 H           5.9854   -6.7343   27.9387 H       1  UNL1        0.1497
     16 O           7.6039   -3.3512   19.6322 O.3     1  UNL1       -0.4340
     17 C           6.5084   -2.4695   19.1103 C.ar    1  UNL1        0.1579
     18 C           6.7148   -0.9860   19.0278 C.ar    1  UNL1        0.0415
     19 C           5.6193   -0.1043   18.5059 C.ar    1  UNL1        0.0401
     20 C           4.3174   -0.7060   18.0664 C.ar    1  UNL1        0.1396
     21 C           4.1111   -2.1894   18.1489 C.ar    1  UNL1        0.0514
     22 C           5.2066   -3.0712   18.6708 C.ar    1  UNL1        0.0952
     23 CL          5.0002   -4.5546   18.7532 Cl      1  UNL1       -0.0790
     24 O           3.2219    0.1758   17.5445 O.3     1  UNL1       -0.4754
     25 C           2.3895    0.9815   18.4973 C.3     1  UNL1        0.2053
     26 C           1.6668    0.3010   19.6219 C.3     1  UNL1        0.0438
     27 C           0.4043    0.0524   20.3928 C.3     1  UNL1        0.0038
     28 C           1.6775   -0.6290   20.7987 C.3     1  UNL1        0.0038
@<TRIPOS>BOND
     1    11    12    1
     2    12    13    2
     3    12    14   am
     4    14     9    1
     5     9    10    1
     6     9     7    1
     7     7     8    2
     8     8     1    1
     9     1     2   ar
    10     2     3   ar
    11     3     4   ar
    12     4    16    1
    13    16    17    1
    14    17    18   ar
    15    18    19   ar
    16    19    20   ar
    17    20    24    1
    18    24    25    1
    19    25    26    1
    20    26    27    1
    21    27    28    1
    22    20    21   ar
    23    21    22   ar
    24    22    23    1
    25     4     5   ar
    26     5     6   ar
    27     6     1   ar
    28    22    17   ar
    29    28    26    1
    30    14    15    1
@<TRIPOS>MOLECULE
*****
 28 30 0 0 0
SMALL
GASTEIGER

@<TRIPOS>ATOM
      1 C           2.5510   -0.2086   19.0563 C.ar    1  UNL1        0.1029
      2 C           1.4277   -0.5480   19.9905 C.ar    1  UNL1        0.0258
      3 C           0.3271    0.4423   20.2312 C.ar    1  UNL1        0.0612
      4 C           0.3498    1.7721   19.5375 C.ar    1  UNL1        0.2484
      5 N           1.4731    2.1115   18.6032 N.ar    1  UNL1       -0.1099
      6 N           2.5737    1.1211   18.3626 N.ar    1  UNL1       -0.1451
      7 C           3.7206   -2.4563   19.6307 C.2     1  UNL1       -0.0053
      8 C           3.6516   -1.1990   18.8156 C.2     1  UNL1        0.0180
      9 C           4.8212   -3.4466   19.3900 C.3     1  UNL1        0.0939
     10 C           4.5111   -4.7762   18.7685 C.3     1  UNL1        0.0262
     11 C           8.5778   -2.1939   19.1296 C.3     1  UNL1        0.0946
     12 C           7.1672   -2.5330   18.7487 C.2     1  UNL1        0.2232
     13 O           6.6920   -2.2976   17.3456 O.2     1  UNL1       -0.2751
     14 N           6.2318   -3.1075   19.7709 N.am    1  UNL1       -0.3022
     15 H           6.5437   -3.2621   20.6918 H       1  UNL1        0.1497
     16 O          -0.7508    2.7624   19.7782 O.3     1  UNL1       -0.4340
     17 C          -1.0536    3.2228   21.1732 C.ar    1  UNL1        0.1579
     18 C           0.0667    3.4998   22.1315 C.ar    1  UNL1        0.0415
     19 C          -0.2361    3.9602   23.5266 C.ar    1  UNL1        0.0401
     20 C          -1.6593    4.1437   23.9634 C.ar    1  UNL1        0.1396
     21 C          -2.7796    3.8668   23.0053 C.ar    1  UNL1        0.0514
     22 C          -2.4768    3.4064   21.6101 C.ar    1  UNL1        0.0952
     23 CL         -3.5971    3.1295   20.6519 Cl      1  UNL1       -0.0790
     24 O          -1.9621    4.6041   25.3586 O.3     1  UNL1       -0.4754
     25 C          -2.2755    3.6003   26.4283 C.3     1  UNL1        0.2053
     26 C          -1.2912    2.5150   26.7497 C.3     1  UNL1        0.0438
     27 C          -0.5195    1.7187   27.7598 C.3     1  UNL1        0.0038
     28 C          -0.3583    1.4315   26.2964 C.3     1  UNL1        0.0038
@<TRIPOS>BOND
     1    11    12    1
     2    12    13    2
     3    12    14   am
     4    14     9    1
     5     9    10    1
     6     9     7    1
     7     7     8    2
     8     8     1    1
     9     1     2   ar
    10     2     3   ar
    11     3     4   ar
    12     4    16    1
    13    16    17    1
    14    17    18   ar
    15    18    19   ar
    16    19    20   ar
    17    20    24    1
    18    24    25    1
    19    25    26    1
    20    26    27    1
    21    27    28    1
    22    20    21   ar
    23    21    22   ar
    24    22    23    1
    25     4     5   ar
    26     5     6   ar
    27     6     1   ar
    28    22    17   ar
    29    28    26    1
    30    14    15    1
@<TRIPOS>MOLECULE
*****
 28 30 0 0 0
SMALL
GASTEIGER

@<TRIPOS>ATOM
      1 C          -4.3774  -19.6482   20.5940 C.ar    1  UNL1        0.1029
      2 C          -4.7544  -18.7268   21.7160 C.ar    1  UNL1        0.0258
      3 C          -5.9767  -19.0079   22.5388 C.ar    1  UNL1        0.0612
      4 C          -6.8220  -20.2103   22.2396 C.ar    1  UNL1        0.2484
      5 N          -6.4450  -21.1317   21.1176 N.ar    1  UNL1       -0.1099
      6 N          -5.2227  -20.8506   20.2948 N.ar    1  UNL1       -0.1451
      7 C          -3.0390  -18.0755   19.0175 C.2     1  UNL1       -0.0053
      8 C          -3.1551  -19.3672   19.7712 C.2     1  UNL1        0.0180
      9 C          -1.8167  -17.7945   18.1948 C.3     1  UNL1        0.0939
     10 C          -1.9582  -17.2752   16.7946 C.3     1  UNL1        0.0262
     11 C           1.3264  -17.5667   20.6069 C.3     1  UNL1        0.0946
     12 C          -0.0374  -17.3285   20.0296 C.2     1  UNL1        0.2232
     13 O          -0.9856  -16.3861   20.7098 O.2     1  UNL1       -0.2751
     14 N          -0.4529  -18.0327   18.7721 N.am    1  UNL1       -0.3022
     15 H           0.1694  -18.6512   18.3256 H       1  UNL1        0.1497
     16 O          -8.0443  -20.4913   23.0624 O.3     1  UNL1       -0.4340
     17 C          -9.3438  -19.8209   22.7282 C.ar    1  UNL1        0.1579
     18 C          -9.9040  -19.9206   21.3402 C.ar    1  UNL1        0.0415
     19 C         -11.2035  -19.2501   21.0060 C.ar    1  UNL1        0.0401
     20 C         -11.9429  -18.4800   22.0597 C.ar    1  UNL1        0.1396
     21 C         -11.3828  -18.3803   23.4476 C.ar    1  UNL1        0.0514
     22 C         -10.0832  -19.0508   23.7819 C.ar    1  UNL1        0.0952
     23 CL         -9.5231  -18.9511   25.1697 Cl      1  UNL1       -0.0790
     24 O         -13.2425  -17.8096   21.7254 O.3     1  UNL1       -0.4754
     25 C         -13.2447  -16.4337   21.1281 C.3     1  UNL1        0.2053
     26 C         -12.0655  -15.9602   20.3311 C.3     1  UNL1        0.0438
     27 C         -11.4562  -15.5783   19.0148 C.3     1  UNL1        0.0038
     28 C         -10.6324  -15.5219   20.2670 C.3     1  UNL1        0.0038
@<TRIPOS>BOND
     1    11    12    1
     2    12    13    2
     3    12    14   am
     4    14     9    1
     5     9    10    1
     6     9     7    1
     7     7     8    2
     8     8     1    1
     9     1     2   ar
    10     2     3   ar
    11     3     4   ar
    12     4    16    1
    13    16    17    1
    14    17    18   ar
    15    18    19   ar
    16    19    20   ar
    17    20    24    1
    18    24    25    1
    19    25    26    1
    20    26    27    1
    21    27    28    1
    22    20    21   ar
    23    21    22   ar
    24    22    23    1
    25     4     5   ar
    26     5     6   ar
    27     6     1   ar
    28    22    17   ar
    29    28    26    1
    30    14    15    1
@<TRIPOS>MOLECULE
*****
 28 30 0 0 0
SMALL
GASTEIGER

@<TRIPOS>ATOM
      1 C           0.9986    0.9424   19.2330 C.ar    1  UNL1        0.1029
      2 C           0.7867    2.1589   18.3815 C.ar    1  UNL1        0.0258
      3 C          -0.2646    3.1617   18.7545 C.ar    1  UNL1        0.0612
      4 C          -1.1040    2.9480   19.9791 C.ar    1  UNL1        0.2484
      5 N          -0.8921    1.7314   20.8306 N.ar    1  UNL1       -0.1099
      6 N           0.1592    0.7287   20.4575 N.ar    1  UNL1       -0.1451
      7 C           3.2005    0.3482   17.9885 C.2     1  UNL1       -0.0053
      8 C           2.0499   -0.0604   18.8599 C.2     1  UNL1        0.0180
      9 C           4.2518   -0.6546   17.6154 C.3     1  UNL1        0.0939
     10 C           5.6069   -0.1902   17.1705 C.3     1  UNL1        0.0262
     11 C           4.0883   -4.3894   18.9474 C.3     1  UNL1        0.0946
     12 C           4.3921   -2.9223   18.8755 C.2     1  UNL1        0.2232
     13 O           5.1400   -2.2557   19.9919 O.2     1  UNL1       -0.2751
     14 N           3.9480   -2.1217   17.6873 N.am    1  UNL1       -0.3022
     15 H           3.4571   -2.5593   16.9546 H       1  UNL1        0.1497
     16 O          -2.1553    3.9507   20.3522 O.3     1  UNL1       -0.4340
     17 C          -2.8567    3.8456   21.6739 C.ar    1  UNL1        0.1579
     18 C          -2.1108    4.1310   22.9436 C.ar    1  UNL1        0.0415
     19 C          -2.8121    4.0258   24.2653 C.ar    1  UNL1        0.0401
     20 C          -4.2595    3.6352   24.3174 C.ar    1  UNL1        0.1396
     21 C          -5.0054    3.3498   23.0477 C.ar    1  UNL1        0.0514
     22 C          -4.3040    3.4550   21.7259 C.ar    1  UNL1        0.0952
     23 CL         -5.0500    3.1696   20.4563 Cl      1  UNL1       -0.0790
     24 O          -4.9608    3.5301   25.6392 O.3     1  UNL1       -0.4754
     25 C          -5.4236    4.7709   26.3435 C.3     1  UNL1        0.2053
     26 C          -6.4266    5.6745   25.6897 C.3     1  UNL1        0.0438
     27 C          -6.8069    7.0252   25.1596 C.3     1  UNL1        0.0038
     28 C          -7.7835    5.8890   25.0874 C.3     1  UNL1        0.0038
@<TRIPOS>BOND
     1    11    12    1
     2    12    13    2
     3    12    14   am
     4    14     9    1
     5     9    10    1
     6     9     7    1
     7     7     8    2
     8     8     1    1
     9     1     2   ar
    10     2     3   ar
    11     3     4   ar
    12     4    16    1
    13    16    17    1
    14    17    18   ar
    15    18    19   ar
    16    19    20   ar
    17    20    24    1
    18    24    25    1
    19    25    26    1
    20    26    27    1
    21    27    28    1
    22    20    21   ar
    23    21    22   ar
    24    22    23    1
    25     4     5   ar
    26     5     6   ar
    27     6     1   ar
    28    22    17   ar
    29    28    26    1
    30    14    15    1
@<TRIPOS>MOLECULE
*****
 28 30 0 0 0
SMALL
GASTEIGER

@<TRIPOS>ATOM
      1 C           1.2862   -0.0622   19.8077 C.ar    1  UNL1        0.1029
      2 C           1.4889    0.8610   18.6429 C.ar    1  UNL1        0.0258
      3 C           0.7014    2.1342   18.5492 C.ar    1  UNL1        0.0612
      4 C          -0.2886    2.4843   19.6202 C.ar    1  UNL1        0.2484
      5 N          -0.4913    1.5612   20.7850 N.ar    1  UNL1       -0.1099
      6 N           0.2961    0.2879   20.8787 N.ar    1  UNL1       -0.1451
      7 C           3.4451   -1.4151   19.2994 C.2     1  UNL1       -0.0053
      8 C           2.0736   -1.3355   19.9014 C.2     1  UNL1        0.0180
      9 C           4.2326   -2.6884   19.3931 C.3     1  UNL1        0.0939
     10 C           3.5720   -4.0023   19.0972 C.3     1  UNL1        0.0262
     11 C           8.1765   -2.3297   19.1357 C.3     1  UNL1        0.0946
     12 C           6.7286   -2.3702   18.7461 C.2     1  UNL1        0.2232
     13 O           6.3288   -2.1331   17.3200 O.2     1  UNL1       -0.2751
     14 N           5.6805   -2.6479   19.7827 N.am    1  UNL1       -0.3022
     15 H           5.9429   -2.8035   20.7187 H       1  UNL1        0.1497
     16 O          -1.0761    3.7576   19.5265 O.3     1  UNL1       -0.4340
     17 C          -2.5631    3.7075   19.3365 C.ar    1  UNL1        0.1579
     18 C          -3.4589    3.4148   20.5035 C.ar    1  UNL1        0.0415
     19 C          -4.9460    3.3647   20.3135 C.ar    1  UNL1        0.0401
     20 C          -5.5373    3.6074   18.9565 C.ar    1  UNL1        0.1396
     21 C          -4.6415    3.9002   17.7895 C.ar    1  UNL1        0.0514
     22 C          -3.1544    3.9502   17.9795 C.ar    1  UNL1        0.0952
     23 CL         -2.2587    4.2430   16.8125 Cl      1  UNL1       -0.0790
     24 O          -7.0244    3.5573   18.7666 O.3     1  UNL1       -0.4754
     25 C          -7.8207    4.8283   18.7431 C.3     1  UNL1        0.2053
     26 C          -7.3930    5.9968   19.5807 C.3     1  UNL1        0.0438
     27 C          -7.1375    7.4678   19.7243 C.3     1  UNL1        0.0038
     28 C          -6.9078    6.5497   20.8879 C.3     1  UNL1        0.0038
@<TRIPOS>BOND
     1    11    12    1
     2    12    13    2
     3    12    14   am
     4    14     9    1
     5     9    10    1
     6     9     7    1
     7     7     8    2
     8     8     1    1
     9     1     2   ar
    10     2     3   ar
    11     3     4   ar
    12     4    16    1
    13    16    17    1
    14    17    18   ar
    15    18    19   ar
    16    19    20   ar
    17    20    24    1
    18    24    25    1
    19    25    26    1
    20    26    27    1
    21    27    28    1
    22    20    21   ar
    23    21    22   ar
    24    22    23    1
    25     4     5   ar
    26     5     6   ar
    27     6     1   ar
    28    22    17   ar
    29    28    26    1
    30    14    15    1
@<TRIPOS>MOLECULE
*****
 28 30 0 0 0
SMALL
GASTEIGER

@<TRIPOS>ATOM
      1 C           4.8101   -0.8873   34.6422 C.ar    1  UNL1        0.1029
      2 C           6.2022   -0.6820   34.1227 C.ar    1  UNL1        0.0258
      3 C           6.7293   -1.5567   33.0241 C.ar    1  UNL1        0.0612
      4 C           5.8644   -2.6368   32.4451 C.ar    1  UNL1        0.2484
      5 N           4.4724   -2.8422   32.9646 N.ar    1  UNL1       -0.1099
      6 N           3.9452   -1.9674   34.0632 N.ar    1  UNL1       -0.1451
      7 C           5.1562    0.3296   36.9115 C.2     1  UNL1       -0.0053
      8 C           4.2830   -0.0126   35.7408 C.2     1  UNL1        0.0180
      9 C           4.6290    1.2043   38.0100 C.3     1  UNL1        0.0939
     10 C           5.2530    2.5441   38.2667 C.3     1  UNL1        0.0262
     11 C           0.9346    0.7369   39.3820 C.3     1  UNL1        0.0946
     12 C           2.0856    1.2018   38.5401 C.2     1  UNL1        0.2232
     13 O           1.8442    2.1293   37.3862 O.2     1  UNL1       -0.2751
     14 N           3.4780    0.7394   38.8520 N.am    1  UNL1       -0.3022
     15 H           3.6365    0.1306   39.6094 H       1  UNL1        0.1497
     16 O           6.3916   -3.5116   31.3465 O.3     1  UNL1       -0.4340
     17 C           6.2781   -3.0710   29.9172 C.ar    1  UNL1        0.1579
     18 C           5.8477   -1.6704   29.5959 C.ar    1  UNL1        0.0415
     19 C           5.7342   -1.2299   28.1666 C.ar    1  UNL1        0.0401
     20 C           6.0510   -2.1899   27.0585 C.ar    1  UNL1        0.1396
     21 C           6.4814   -3.5904   27.3796 C.ar    1  UNL1        0.0514
     22 C           6.5949   -4.0310   28.8090 C.ar    1  UNL1        0.0952
     23 CL          7.0253   -5.4316   29.1301 Cl      1  UNL1       -0.0790
     24 O           5.9375   -1.7492   25.6291 O.3     1  UNL1       -0.4754
     25 C           4.6095   -1.7955   24.9332 C.3     1  UNL1        0.2053
     26 C           4.5025   -2.3903   23.5604 C.3     1  UNL1        0.0438
     27 C           4.1866   -2.2424   22.1016 C.3     1  UNL1        0.0038
     28 C           4.6331   -3.5687   22.6415 C.3     1  UNL1        0.0038
@<TRIPOS>BOND
     1    11    12    1
     2    12    13    2
     3    12    14   am
     4    14     9    1
     5     9    10    1
     6     9     7    1
     7     7     8    2
     8     8     1    1
     9     1     2   ar
    10     2     3   ar
    11     3     4   ar
    12     4    16    1
    13    16    17    1
    14    17    18   ar
    15    18    19   ar
    16    19    20   ar
    17    20    24    1
    18    24    25    1
    19    25    26    1
    20    26    27    1
    21    27    28    1
    22    20    21   ar
    23    21    22   ar
    24    22    23    1
    25     4     5   ar
    26     5     6   ar
    27     6     1   ar
    28    22    17   ar
    29    28    26    1
    30    14    15    1
@<TRIPOS>MOLECULE
*****
 28 30 0 0 0
SMALL
GASTEIGER

@<TRIPOS>ATOM
      1 C           4.9082    0.0351   34.0347 C.ar    1  UNL1        0.1029
      2 C           4.3254   -1.2898   33.6413 C.ar    1  UNL1        0.0258
      3 C           5.1997   -2.3396   33.0219 C.ar    1  UNL1        0.0612
      4 C           6.6569   -2.0644   32.7961 C.ar    1  UNL1        0.2484
      5 N           7.2397   -0.7395   33.1896 N.ar    1  UNL1       -0.1099
      6 N           6.3654    0.3103   33.8089 N.ar    1  UNL1       -0.1451
      7 C           3.9934    1.2432   36.1451 C.2     1  UNL1       -0.0053
      8 C           4.0339    1.0849   34.6540 C.2     1  UNL1        0.0180
      9 C           3.1191    2.2929   36.7644 C.3     1  UNL1        0.0939
     10 C           3.4507    3.7451   36.5875 C.3     1  UNL1        0.0262
     11 C           0.8766    0.8400   39.6986 C.3     1  UNL1        0.0946
     12 C           2.0825    1.2423   38.9025 C.2     1  UNL1        0.2232
     13 O           3.4578    0.9964   39.4485 O.2     1  UNL1       -0.2751
     14 N           1.9131    1.8906   37.5605 N.am    1  UNL1       -0.3022
     15 H           1.0105    2.0520   37.2022 H       1  UNL1        0.1497
     16 O           7.5312   -3.1142   32.1768 O.3     1  UNL1       -0.4340
     17 C           7.2701   -3.5755   30.7736 C.ar    1  UNL1        0.1579
     18 C           7.2861   -2.5883   29.6443 C.ar    1  UNL1        0.0415
     19 C           7.0250   -3.0496   28.2411 C.ar    1  UNL1        0.0401
     20 C           6.7480   -4.4981   27.9671 C.ar    1  UNL1        0.1396
     21 C           6.7319   -5.4853   29.0963 C.ar    1  UNL1        0.0514
     22 C           6.9930   -5.0240   30.4996 C.ar    1  UNL1        0.0952
     23 CL          6.9770   -6.0112   31.6288 Cl      1  UNL1       -0.0790
     24 O           6.4869   -4.9593   26.5638 O.3     1  UNL1       -0.4754
     25 C           7.6231   -5.0881   25.5931 C.3     1  UNL1        0.2053
     26 C           8.0986   -6.4467   25.1712 C.3     1  UNL1        0.0438
     27 C           8.6706   -7.7889   25.5194 C.3     1  UNL1        0.0038
     28 C           8.3503   -7.4577   24.0920 C.3     1  UNL1        0.0038
@<TRIPOS>BOND
     1    11    12    1
     2    12    13    2
     3    12    14   am
     4    14     9    1
     5     9    10    1
     6     9     7    1
     7     7     8    2
     8     8     1    1
     9     1     2   ar
    10     2     3   ar
    11     3     4   ar
    12     4    16    1
    13    16    17    1
    14    17    18   ar
    15    18    19   ar
    16    19    20   ar
    17    20    24    1
    18    24    25    1
    19    25    26    1
    20    26    27    1
    21    27    28    1
    22    20    21   ar
    23    21    22   ar
    24    22    23    1
    25     4     5   ar
    26     5     6   ar
    27     6     1   ar
    28    22    17   ar
    29    28    26    1
    30    14    15    1
@<TRIPOS>MOLECULE
*****
 28 30 0 0 0
SMALL
GASTEIGER

@<TRIPOS>ATOM
      1 C           1.3952    1.8175   25.0214 C.ar    1  UNL1        0.1029
      2 C           1.8119    3.1797   24.5517 C.ar    1  UNL1        0.0258
      3 C           2.0793    3.4218   23.0957 C.ar    1  UNL1        0.0612
      4 C           1.9301    2.3016   22.1094 C.ar    1  UNL1        0.2484
      5 N           1.5134    0.9394   22.5791 N.ar    1  UNL1       -0.1099
      6 N           1.2460    0.6973   24.0350 N.ar    1  UNL1       -0.1451
      7 C          -0.2088    1.0567   26.9183 C.2     1  UNL1       -0.0053
      8 C           1.1278    1.5754   26.4773 C.2     1  UNL1        0.0180
      9 C          -0.4762    0.8147   28.3743 C.3     1  UNL1        0.0939
     10 C          -1.4305   -0.2646   28.7922 C.3     1  UNL1        0.0262
     11 C           1.9603    1.8838   31.3187 C.3     1  UNL1        0.0946
     12 C           1.2735    1.0467   30.2807 C.2     1  UNL1        0.2232
     13 O           1.6496   -0.3954   30.1112 O.2     1  UNL1       -0.2751
     14 N           0.2106    1.6518   29.4123 N.am    1  UNL1       -0.3022
     15 H          -0.0362    2.5983   29.5236 H       1  UNL1        0.1497
     16 O           2.1975    2.5437   20.6534 O.3     1  UNL1       -0.4340
     17 C           3.0100    1.5588   19.8662 C.ar    1  UNL1        0.1579
     18 C           4.4369    1.2915   20.2442 C.ar    1  UNL1        0.0415
     19 C           5.2494    0.3066   19.4571 C.ar    1  UNL1        0.0401
     20 C           4.6352   -0.4111   18.2919 C.ar    1  UNL1        0.1396
     21 C           3.2084   -0.1439   17.9138 C.ar    1  UNL1        0.0514
     22 C           2.3958    0.8411   18.7010 C.ar    1  UNL1        0.0952
     23 CL          0.9691    1.1083   18.3230 Cl      1  UNL1       -0.0790
     24 O           5.4478   -1.3961   17.5047 O.3     1  UNL1       -0.4754
     25 C           5.8951   -2.6783   18.1416 C.3     1  UNL1        0.2053
     26 C           4.8790   -3.6759   18.6131 C.3     1  UNL1        0.0438
     27 C           3.5266   -3.9810   19.1855 C.3     1  UNL1        0.0038
     28 C           4.4715   -5.0987   18.8571 C.3     1  UNL1        0.0038
@<TRIPOS>BOND
     1    11    12    1
     2    12    13    2
     3    12    14   am
     4    14     9    1
     5     9    10    1
     6     9     7    1
     7     7     8    2
     8     8     1    1
     9     1     2   ar
    10     2     3   ar
    11     3     4   ar
    12     4    16    1
    13    16    17    1
    14    17    18   ar
    15    18    19   ar
    16    19    20   ar
    17    20    24    1
    18    24    25    1
    19    25    26    1
    20    26    27    1
    21    27    28    1
    22    20    21   ar
    23    21    22   ar
    24    22    23    1
    25     4     5   ar
    26     5     6   ar
    27     6     1   ar
    28    22    17   ar
    29    28    26    1
    30    14    15    1
@<TRIPOS>MOLECULE
*****
 28 30 0 0 0
SMALL
GASTEIGER

@<TRIPOS>ATOM
      1 C         -14.1750   -1.2738   18.8076 C.ar    1  UNL1        0.1029
      2 C         -13.9293    0.1191   18.3081 C.ar    1  UNL1        0.0258
      3 C         -14.8547    1.2316   18.7029 C.ar    1  UNL1        0.0612
      4 C         -16.0258    0.9513   19.5972 C.ar    1  UNL1        0.2484
      5 N         -16.2716   -0.4416   20.0967 N.ar    1  UNL1       -0.1099
      6 N         -15.3461   -1.5541   19.7019 N.ar    1  UNL1       -0.1451
      7 C         -13.3746   -3.7322   19.0630 C.2     1  UNL1       -0.0053
      8 C         -13.2496   -2.3863   18.4128 C.2     1  UNL1        0.0180
      9 C         -12.4491   -4.8448   18.6682 C.3     1  UNL1        0.0939
     10 C         -12.5052   -6.1587   19.3897 C.3     1  UNL1        0.0262
     11 C          -9.0268   -4.2778   16.7405 C.3     1  UNL1        0.0946
     12 C         -10.0082   -4.4792   17.8568 C.2     1  UNL1        0.2232
     13 O          -9.5302   -4.5162   19.2781 O.2     1  UNL1       -0.2751
     14 N         -11.4677   -4.6434   17.5519 N.am    1  UNL1       -0.3022
     15 H         -11.7814   -4.6191   16.6190 H       1  UNL1        0.1497
     16 O         -16.9513    2.0638   19.9921 O.3     1  UNL1       -0.4340
     17 C         -16.7183    2.8157   21.2689 C.ar    1  UNL1        0.1579
     18 C         -17.2805    2.2957   22.5588 C.ar    1  UNL1        0.0415
     19 C         -17.0475    3.0476   23.8356 C.ar    1  UNL1        0.0401
     20 C         -16.2523    4.3194   23.8227 C.ar    1  UNL1        0.1396
     21 C         -15.6901    4.8394   22.5329 C.ar    1  UNL1        0.0514
     22 C         -15.9231    4.0875   21.2560 C.ar    1  UNL1        0.0952
     23 CL        -15.3609    4.6074   19.9662 Cl      1  UNL1       -0.0790
     24 O         -16.0194    5.0713   25.0996 O.3     1  UNL1       -0.4754
     25 C         -14.7858    4.8072   25.9111 C.3     1  UNL1        0.2053
     26 C         -13.4302    4.9751   25.2913 C.3     1  UNL1        0.0438
     27 C         -12.1179    4.3910   24.8595 C.3     1  UNL1        0.0038
     28 C         -12.3946    5.8502   24.6496 C.3     1  UNL1        0.0038
@<TRIPOS>BOND
     1    11    12    1
     2    12    13    2
     3    12    14   am
     4    14     9    1
     5     9    10    1
     6     9     7    1
     7     7     8    2
     8     8     1    1
     9     1     2   ar
    10     2     3   ar
    11     3     4   ar
    12     4    16    1
    13    16    17    1
    14    17    18   ar
    15    18    19   ar
    16    19    20   ar
    17    20    24    1
    18    24    25    1
    19    25    26    1
    20    26    27    1
    21    27    28    1
    22    20    21   ar
    23    21    22   ar
    24    22    23    1
    25     4     5   ar
    26     5     6   ar
    27     6     1   ar
    28    22    17   ar
    29    28    26    1
    30    14    15    1
