@<TRIPOS>MOLECULE
*****
 26 30 0 0 0
SMALL
GASTEIGER

@<TRIPOS>ATOM
      1 C          -4.4364  -17.0637   22.6463 C.3     1  UNL1        0.0579
      2 C          -4.2683  -16.2683   23.9068 C.3     1  UNL1        0.0163
      3 C          -5.6064  -16.1751   24.5780 C.3     1  UNL1        0.0059
      4 C          -6.6016  -16.9131   23.7323 C.3     1  UNL1        0.0273
      5 C          -7.3872  -17.6995   22.7252 C.3     1  UNL1        0.0336
      6 C          -8.8497  -18.0331   22.7335 C.ar    1  UNL1        0.0127
      7 C          -9.2337  -18.8436   21.5312 C.ar    1  UNL1       -0.0012
      8 C         -10.6557  -19.2837   21.3464 C.ar    1  UNL1       -0.0001
      9 C         -11.6937  -18.9132   22.3640 C.ar    1  UNL1        0.0031
     10 C         -11.3097  -18.1027   23.5662 C.ar    1  UNL1        0.0372
     11 C          -9.8877  -17.6626   23.7510 C.ar    1  UNL1        0.1413
     12 O          -9.7195  -16.8671   25.0115 O.3     1  UNL1       -0.4541
     13 C          -8.4720  -16.2456   25.5659 C.ar    1  UNL1        0.1412
     14 C          -8.7422  -15.5328   26.8577 C.ar    1  UNL1        0.0372
     15 C          -7.6248  -14.8404   27.5803 C.ar    1  UNL1        0.0031
     16 C          -6.2372  -14.8609   27.0110 C.ar    1  UNL1       -0.0001
     17 C          -5.9670  -15.5737   25.7191 C.ar    1  UNL1       -0.0013
     18 C          -7.0844  -16.2661   24.9966 C.ar    1  UNL1        0.0121
     19 C          -5.8785  -17.4623   22.5384 C.3     1  UNL1        0.0204
     20 C          -1.8201  -17.8789   20.2789 C.3     1  UNL1        0.0684
     21 C          -3.0829  -18.5471   20.7359 C.3     1  UNL1        0.0790
     22 N          -3.3527  -17.4014   21.6657 N.3     1  UNL1       -0.2732
     23 C          -2.0898  -16.7332   21.2087 C.3     1  UNL1        0.0790
     24 O          -0.8980  -17.8615   17.8501 O.co2   1  UNL1       -0.5491
     25 C          -0.7363  -18.2165   19.2984 C.2     1  UNL1        0.0527
     26 O           0.5093  -18.9092   19.7663 O.co2   1  UNL1       -0.5491
@<TRIPOS>UNITY_ATOM_ATTR
24 1
charge -1
@<TRIPOS>BOND
     1    24    25   ar
     2    25    26   ar
     3    25    20    1
     4    20    21    1
     5    21    22    1
     6    22     1    1
     7     1     2    1
     8     2     3    1
     9     3     4    1
    10     4     5    1
    11     5     6    1
    12     6     7   ar
    13     7     8   ar
    14     8     9   ar
    15     9    10   ar
    16    10    11   ar
    17    11    12    1
    18    12    13    1
    19    13    14   ar
    20    14    15   ar
    21    15    16   ar
    22    16    17   ar
    23    17    18   ar
    24     4    19    1
    25    22    23    1
    26    23    20    1
    27    19     1    1
    28    18     4    1
    29    11     6   ar
    30    18    13   ar
@<TRIPOS>MOLECULE
*****
 26 30 0 0 0
SMALL
GASTEIGER

@<TRIPOS>ATOM
      1 C         -15.7598   -1.9882   19.5779 C.3     1  UNL1        0.0579
      2 C         -16.9202   -2.9357   19.6526 C.3     1  UNL1        0.0163
      3 C         -16.3881   -4.3317   19.5188 C.3     1  UNL1        0.0059
      4 C         -14.8988   -4.2470   19.3613 C.3     1  UNL1        0.0273
      5 C         -13.4469   -3.8967   19.2224 C.3     1  UNL1        0.0336
      6 C         -12.2756   -4.8167   19.0449 C.ar    1  UNL1        0.0127
      7 C         -10.9886   -4.0526   18.9464 C.ar    1  UNL1       -0.0012
      8 C          -9.6928   -4.7863   18.7655 C.ar    1  UNL1       -0.0001
      9 C          -9.6841   -6.2840   18.6831 C.ar    1  UNL1        0.0031
     10 C         -10.9711   -7.0480   18.7815 C.ar    1  UNL1        0.0372
     11 C         -12.2669   -6.3144   18.9625 C.ar    1  UNL1        0.1413
     12 O         -13.4273   -7.2619   19.0372 O.3     1  UNL1       -0.4541
     13 C         -14.8831   -6.9458   19.2128 C.ar    1  UNL1        0.1412
     14 C         -15.7159   -8.1931   19.2355 C.ar    1  UNL1        0.0372
     15 C         -17.2036   -8.0987   19.4026 C.ar    1  UNL1        0.0031
     16 C         -17.8584   -6.7570   19.5468 C.ar    1  UNL1       -0.0001
     17 C         -17.0256   -5.5096   19.5240 C.ar    1  UNL1       -0.0013
     18 C         -15.5379   -5.6040   19.3570 C.ar    1  UNL1        0.0121
     19 C         -14.5105   -2.7986   19.3979 C.3     1  UNL1        0.0204
     20 C         -15.9424    1.6220   19.7941 C.3     1  UNL1        0.0684
     21 C         -15.1353    0.6472   18.9890 C.3     1  UNL1        0.0790
     22 N         -15.8355   -0.4928   19.6675 N.3     1  UNL1       -0.2732
     23 C         -16.6425    0.4821   20.4726 C.3     1  UNL1        0.0790
     24 O         -14.8843    3.8909   20.4888 O.co2   1  UNL1       -0.5491
     25 C         -16.0181    3.1175   19.8838 C.2     1  UNL1        0.0527
     26 O         -17.2277    3.8394   19.3684 O.co2   1  UNL1       -0.5491
@<TRIPOS>UNITY_ATOM_ATTR
24 1
charge -1
@<TRIPOS>BOND
     1    24    25   ar
     2    25    26   ar
     3    25    20    1
     4    20    21    1
     5    21    22    1
     6    22     1    1
     7     1     2    1
     8     2     3    1
     9     3     4    1
    10     4     5    1
    11     5     6    1
    12     6     7   ar
    13     7     8   ar
    14     8     9   ar
    15     9    10   ar
    16    10    11   ar
    17    11    12    1
    18    12    13    1
    19    13    14   ar
    20    14    15   ar
    21    15    16   ar
    22    16    17   ar
    23    17    18   ar
    24     4    19    1
    25    22    23    1
    26    23    20    1
    27    19     1    1
    28    18     4    1
    29    11     6   ar
    30    18    13   ar
@<TRIPOS>MOLECULE
*****
 26 30 0 0 0
SMALL
GASTEIGER

@<TRIPOS>ATOM
      1 C         -13.6813   -1.7243   18.9333 C.3     1  UNL1        0.0579
      2 C         -12.2221   -2.0482   18.8085 C.3     1  UNL1        0.0163
      3 C         -12.0749   -3.5407   18.8323 C.3     1  UNL1        0.0059
      4 C         -13.4432   -4.1393   18.9718 C.3     1  UNL1        0.0273
      5 C         -14.8966   -4.4828   19.1127 C.3     1  UNL1        0.0336
      6 C         -15.5327   -5.8381   19.2044 C.ar    1  UNL1        0.0127
      7 C         -17.0233   -5.7360   19.3375 C.ar    1  UNL1       -0.0012
      8 C         -17.8537   -6.9805   19.4441 C.ar    1  UNL1       -0.0001
      9 C         -17.1936   -8.3272   19.4177 C.ar    1  UNL1        0.0031
     10 C         -15.7030   -8.4293   19.2845 C.ar    1  UNL1        0.0372
     11 C         -14.8726   -7.1848   19.1779 C.ar    1  UNL1        0.1413
     12 O         -13.4133   -7.5086   19.0531 O.3     1  UNL1       -0.4541
     13 C         -12.2537   -6.5660   18.9241 C.ar    1  UNL1        0.1412
     14 C         -10.9534   -7.3070   18.8242 C.ar    1  UNL1        0.0372
     15 C          -9.6664   -6.5486   18.6882 C.ar    1  UNL1        0.0031
     16 C          -9.6797   -5.0492   18.6520 C.ar    1  UNL1       -0.0001
     17 C         -10.9801   -4.3080   18.7518 C.ar    1  UNL1       -0.0013
     18 C         -12.2671   -5.0664   18.8879 C.ar    1  UNL1        0.0121
     19 C         -14.4361   -3.0167   19.0342 C.3     1  UNL1        0.0204
     20 C         -15.1283    1.5950   18.9821 C.3     1  UNL1        0.0684
     21 C         -13.8487    1.0032   18.4700 C.3     1  UNL1        0.0790
     22 N         -14.2807   -0.3494   18.9535 N.3     1  UNL1       -0.2732
     23 C         -15.5603    0.2424   19.4657 C.3     1  UNL1        0.0790
     24 O         -14.9588    4.1148   19.5922 O.co2   1  UNL1       -0.5491
     25 C         -15.7277    2.9699   19.0025 C.2     1  UNL1        0.0527
     26 O         -17.0962    3.1999   18.4329 O.co2   1  UNL1       -0.5491
@<TRIPOS>UNITY_ATOM_ATTR
24 1
charge -1
@<TRIPOS>BOND
     1    24    25   ar
     2    25    26   ar
     3    25    20    1
     4    20    21    1
     5    21    22    1
     6    22     1    1
     7     1     2    1
     8     2     3    1
     9     3     4    1
    10     4     5    1
    11     5     6    1
    12     6     7   ar
    13     7     8   ar
    14     8     9   ar
    15     9    10   ar
    16    10    11   ar
    17    11    12    1
    18    12    13    1
    19    13    14   ar
    20    14    15   ar
    21    15    16   ar
    22    16    17   ar
    23    17    18   ar
    24     4    19    1
    25    22    23    1
    26    23    20    1
    27    19     1    1
    28    18     4    1
    29    11     6   ar
    30    18    13   ar
@<TRIPOS>MOLECULE
*****
 26 30 0 0 0
SMALL
GASTEIGER

@<TRIPOS>ATOM
      1 C           3.6472   -1.2435   24.5708 C.3     1  UNL1        0.0579
      2 C           4.4821   -2.3151   23.9349 C.3     1  UNL1        0.0163
      3 C           4.2885   -2.2335   22.4498 C.3     1  UNL1        0.0059
      4 C           3.3340   -1.1113   22.1678 C.3     1  UNL1        0.0273
      5 C           2.3758    0.0427   22.1527 C.3     1  UNL1        0.0336
      6 C           1.7270    0.7044   20.9732 C.ar    1  UNL1        0.0127
      7 C           0.8307    1.8289   21.4001 C.ar    1  UNL1       -0.0012
      8 C           0.0837    2.6245   20.3711 C.ar    1  UNL1       -0.0001
      9 C           0.2330    2.2957   18.9152 C.ar    1  UNL1        0.0031
     10 C           1.1293    1.1713   18.4883 C.ar    1  UNL1        0.0372
     11 C           1.8763    0.3757   19.5173 C.ar    1  UNL1        0.1413
     12 O           2.7112   -0.6961   18.8815 O.3     1  UNL1       -0.4541
     13 C           3.6030   -1.7037   19.5443 C.ar    1  UNL1        0.1412
     14 C           4.2608   -2.5999   18.5373 C.ar    1  UNL1        0.0372
     15 C           5.1958   -3.6808   18.9928 C.ar    1  UNL1        0.0031
     16 C           5.4730   -3.8655   20.4553 C.ar    1  UNL1       -0.0001
     17 C           4.8151   -2.9694   21.4624 C.ar    1  UNL1       -0.0013
     18 C           3.8801   -1.8885   21.0069 C.ar    1  UNL1        0.0121
     19 C           2.9376   -0.4994   23.4787 C.3     1  UNL1        0.0204
     20 C           3.3899   -0.5705   28.1198 C.3     1  UNL1        0.0684
     21 C           2.9396    0.1298   26.8720 C.3     1  UNL1        0.0790
     22 N           3.5407   -0.9647   26.0409 N.3     1  UNL1       -0.2732
     23 C           3.9909   -1.6651   27.2886 C.3     1  UNL1        0.0790
     24 O           4.4386    0.3237   30.3222 O.co2   1  UNL1       -0.5491
     25 C           3.2834   -0.2919   29.5898 C.2     1  UNL1        0.0527
     26 O           2.0215   -0.6289   30.3275 O.co2   1  UNL1       -0.5491
@<TRIPOS>UNITY_ATOM_ATTR
24 1
charge -1
@<TRIPOS>BOND
     1    24    25   ar
     2    25    26   ar
     3    25    20    1
     4    20    21    1
     5    21    22    1
     6    22     1    1
     7     1     2    1
     8     2     3    1
     9     3     4    1
    10     4     5    1
    11     5     6    1
    12     6     7   ar
    13     7     8   ar
    14     8     9   ar
    15     9    10   ar
    16    10    11   ar
    17    11    12    1
    18    12    13    1
    19    13    14   ar
    20    14    15   ar
    21    15    16   ar
    22    16    17   ar
    23    17    18   ar
    24     4    19    1
    25    22    23    1
    26    23    20    1
    27    19     1    1
    28    18     4    1
    29    11     6   ar
    30    18    13   ar
@<TRIPOS>MOLECULE
*****
 26 30 0 0 0
SMALL
GASTEIGER

@<TRIPOS>ATOM
      1 C           1.7035    2.2913   19.3886 C.3     1  UNL1        0.0579
      2 C           2.6674    3.2447   18.7470 C.3     1  UNL1        0.0163
      3 C           3.8386    2.4528   18.2460 C.3     1  UNL1        0.0059
      4 C           3.5984    1.0098   18.5781 C.3     1  UNL1        0.0273
      5 C           3.1284   -0.3450   19.0181 C.3     1  UNL1        0.0336
      6 C           3.8091   -1.6711   18.8506 C.ar    1  UNL1        0.0127
      7 C           2.9928   -2.7842   19.4376 C.ar    1  UNL1       -0.0012
      8 C           3.4954   -4.1961   19.3758 C.ar    1  UNL1       -0.0001
      9 C           4.8144   -4.4949   18.7269 C.ar    1  UNL1        0.0031
     10 C           5.6307   -3.3819   18.1398 C.ar    1  UNL1        0.0372
     11 C           5.1281   -1.9700   18.2017 C.ar    1  UNL1        0.1413
     12 O           6.0920   -1.0165   17.5600 O.3     1  UNL1       -0.4541
     13 C           5.9752    0.4713   17.4087 C.ar    1  UNL1        0.1412
     14 C           7.1669    1.0456   16.7018 C.ar    1  UNL1        0.0372
     15 C           7.2490    2.5217   16.4479 C.ar    1  UNL1        0.0031
     16 C           6.1393    3.4234   16.9009 C.ar    1  UNL1       -0.0001
     17 C           4.9475    2.8491   17.6079 C.ar    1  UNL1       -0.0013
     18 C           4.8654    1.3730   17.8618 C.ar    1  UNL1        0.0121
     19 C           2.2789    0.9100   19.2842 C.3     1  UNL1        0.0204
     20 C          -1.4579    3.1700   20.9207 C.3     1  UNL1        0.0684
     21 C          -0.8235    3.4132   19.5835 C.3     1  UNL1        0.0790
     22 N           0.3940    2.6553   20.0232 N.3     1  UNL1       -0.2732
     23 C          -0.2405    2.4121   21.3605 C.3     1  UNL1        0.0790
     24 O          -2.8372    4.6693   22.5331 O.co2   1  UNL1       -0.5491
     25 C          -2.7674    3.5339   21.5555 C.2     1  UNL1        0.0527
     26 O          -4.0072    2.7623   21.2125 O.co2   1  UNL1       -0.5491
@<TRIPOS>UNITY_ATOM_ATTR
24 1
charge -1
@<TRIPOS>BOND
     1    24    25   ar
     2    25    26   ar
     3    25    20    1
     4    20    21    1
     5    21    22    1
     6    22     1    1
     7     1     2    1
     8     2     3    1
     9     3     4    1
    10     4     5    1
    11     5     6    1
    12     6     7   ar
    13     7     8   ar
    14     8     9   ar
    15     9    10   ar
    16    10    11   ar
    17    11    12    1
    18    12    13    1
    19    13    14   ar
    20    14    15   ar
    21    15    16   ar
    22    16    17   ar
    23    17    18   ar
    24     4    19    1
    25    22    23    1
    26    23    20    1
    27    19     1    1
    28    18     4    1
    29    11     6   ar
    30    18    13   ar
@<TRIPOS>MOLECULE
*****
 26 30 0 0 0
SMALL
GASTEIGER

@<TRIPOS>ATOM
      1 C           1.3605    1.0386   24.5965 C.3     1  UNL1        0.0579
      2 C           0.6359    1.8524   23.5657 C.3     1  UNL1        0.0163
      3 C           1.0465    1.3564   22.2110 C.3     1  UNL1        0.0059
      4 C           2.0250    0.2361   22.4046 C.3     1  UNL1        0.0273
      5 C           2.9674   -0.8381   22.8605 C.3     1  UNL1        0.0336
      6 C           3.7793   -1.7855   22.0278 C.ar    1  UNL1        0.0127
      7 C           4.5952   -2.7073   22.8847 C.ar    1  UNL1       -0.0012
      8 C           5.4811   -3.7361   22.2471 C.ar    1  UNL1       -0.0001
      9 C           5.5510   -3.8432   20.7526 C.ar    1  UNL1        0.0031
     10 C           4.7350   -2.9214   19.8957 C.ar    1  UNL1        0.0372
     11 C           3.8492   -1.8925   20.5332 C.ar    1  UNL1        0.1413
     12 O           3.1245   -1.0787   19.5024 O.3     1  UNL1       -0.4541
     13 C           2.1510    0.0431   19.7114 C.ar    1  UNL1        0.1412
     14 C           1.6552    0.5891   18.4053 C.ar    1  UNL1        0.0372
     15 C           0.6701    1.7202   18.3907 C.ar    1  UNL1        0.0031
     16 C           0.1808    2.3054   19.6822 C.ar    1  UNL1       -0.0001
     17 C           0.6766    1.7594   20.9884 C.ar    1  UNL1       -0.0013
     18 C           1.6617    0.6283   21.0030 C.ar    1  UNL1        0.0121
     19 C           2.2191    0.0397   23.8789 C.3     1  UNL1        0.0204
     20 C           1.0855    1.4189   28.1873 C.3     1  UNL1        0.0684
     21 C           2.2168    1.1967   27.2278 C.3     1  UNL1        0.0790
     22 N           1.2466    1.1961   26.0839 N.3     1  UNL1       -0.2732
     23 C           0.1152    1.4184   27.0434 C.3     1  UNL1        0.0790
     24 O           0.5686    2.8972   30.2603 O.co2   1  UNL1       -0.5491
     25 C           0.9715    1.5764   29.6747 C.2     1  UNL1        0.0527
     26 O           1.2604    0.4130   30.5764 O.co2   1  UNL1       -0.5491
@<TRIPOS>UNITY_ATOM_ATTR
24 1
charge -1
@<TRIPOS>BOND
     1    24    25   ar
     2    25    26   ar
     3    25    20    1
     4    20    21    1
     5    21    22    1
     6    22     1    1
     7     1     2    1
     8     2     3    1
     9     3     4    1
    10     4     5    1
    11     5     6    1
    12     6     7   ar
    13     7     8   ar
    14     8     9   ar
    15     9    10   ar
    16    10    11   ar
    17    11    12    1
    18    12    13    1
    19    13    14   ar
    20    14    15   ar
    21    15    16   ar
    22    16    17   ar
    23    17    18   ar
    24     4    19    1
    25    22    23    1
    26    23    20    1
    27    19     1    1
    28    18     4    1
    29    11     6   ar
    30    18    13   ar
@<TRIPOS>MOLECULE
*****
 26 30 0 0 0
SMALL
GASTEIGER

@<TRIPOS>ATOM
      1 C           5.9037   -3.5618   24.0669 C.3     1  UNL1        0.0579
      2 C           6.3166   -3.9729   22.6848 C.3     1  UNL1        0.0163
      3 C           5.5168   -3.1684   21.7035 C.3     1  UNL1        0.0059
      4 C           4.6096   -2.2600   22.4793 C.3     1  UNL1        0.0273
      5 C           3.8145   -1.4645   23.4718 C.3     1  UNL1        0.0336
      6 C           2.7719   -0.4180   23.2114 C.ar    1  UNL1        0.0127
      7 C           2.2183    0.1345   24.4913 C.ar    1  UNL1       -0.0012
      8 C           1.1598    1.1966   24.4539 C.ar    1  UNL1       -0.0001
      9 C           0.6548    1.7062   23.1366 C.ar    1  UNL1        0.0031
     10 C           1.2084    1.1537   21.8567 C.ar    1  UNL1        0.0372
     11 C           2.2669    0.0916   21.8941 C.ar    1  UNL1        0.1413
     12 O           2.6798   -0.3195   20.5118 O.3     1  UNL1       -0.4541
     13 C           3.6996   -1.3417   20.1055 C.ar    1  UNL1        0.1412
     14 C           3.8068   -1.4459   18.6130 C.ar    1  UNL1        0.0372
     15 C           4.7727   -2.4135   17.9961 C.ar    1  UNL1        0.0031
     16 C           5.6315   -3.2771   18.8716 C.ar    1  UNL1       -0.0001
     17 C           5.5244   -3.1730   20.3642 C.ar    1  UNL1       -0.0013
     18 C           4.5584   -2.2053   20.9812 C.ar    1  UNL1        0.0121
     19 C           4.8487   -2.5031   23.9400 C.3     1  UNL1        0.0204
     20 C           7.2224   -4.8918   27.1664 C.3     1  UNL1        0.0684
     21 C           6.6225   -3.5835   26.7437 C.3     1  UNL1        0.0790
     22 N           6.4499   -4.1127   25.3508 N.3     1  UNL1       -0.2732
     23 C           7.0498   -5.4210   25.7735 C.3     1  UNL1        0.0790
     24 O           6.8468   -5.7167   29.6012 O.co2   1  UNL1       -0.5491
     25 C           7.7687   -5.4427   28.4501 C.2     1  UNL1        0.0527
     26 O           9.2369   -5.7197   28.5828 O.co2   1  UNL1       -0.5491
@<TRIPOS>UNITY_ATOM_ATTR
24 1
charge -1
@<TRIPOS>BOND
     1    24    25   ar
     2    25    26   ar
     3    25    20    1
     4    20    21    1
     5    21    22    1
     6    22     1    1
     7     1     2    1
     8     2     3    1
     9     3     4    1
    10     4     5    1
    11     5     6    1
    12     6     7   ar
    13     7     8   ar
    14     8     9   ar
    15     9    10   ar
    16    10    11   ar
    17    11    12    1
    18    12    13    1
    19    13    14   ar
    20    14    15   ar
    21    15    16   ar
    22    16    17   ar
    23    17    18   ar
    24     4    19    1
    25    22    23    1
    26    23    20    1
    27    19     1    1
    28    18     4    1
    29    11     6   ar
    30    18    13   ar
@<TRIPOS>MOLECULE
*****
 26 30 0 0 0
SMALL
GASTEIGER

@<TRIPOS>ATOM
      1 C           2.0452    0.2337   23.1408 C.3     1  UNL1        0.0579
      2 C           1.7439    0.6095   21.7203 C.3     1  UNL1        0.0163
      3 C           2.6751   -0.1588   20.8301 C.3     1  UNL1        0.0059
      4 C           3.5519   -1.0095   21.7006 C.3     1  UNL1        0.0273
      5 C           4.2907   -1.7516   22.7746 C.3     1  UNL1        0.0336
      6 C           5.4077   -2.7419   22.6282 C.ar    1  UNL1        0.0127
      7 C           5.8661   -3.2521   23.9622 C.ar    1  UNL1       -0.0012
      8 C           6.9788   -4.2551   24.0396 C.ar    1  UNL1       -0.0001
      9 C           7.6330   -4.7479   22.7830 C.ar    1  UNL1        0.0031
     10 C           7.1746   -4.2378   21.4490 C.ar    1  UNL1        0.0372
     11 C           6.0620   -3.2348   21.3716 C.ar    1  UNL1        0.1413
     12 O           5.7607   -2.8590   19.9510 O.3     1  UNL1       -0.4541
     13 C           4.7308   -1.8976   19.4361 C.ar    1  UNL1        0.1412
     14 C           4.7604   -1.8126   17.9389 C.ar    1  UNL1        0.0372
     15 C           3.8070   -0.9046   17.2202 C.ar    1  UNL1        0.0031
     16 C           2.8240   -0.0815   17.9988 C.ar    1  UNL1       -0.0001
     17 C           2.7944   -0.1665   19.4961 C.ar    1  UNL1       -0.0013
     18 C           3.7478   -1.0745   20.2148 C.ar    1  UNL1        0.0121
     19 C           3.1626   -0.7669   23.1287 C.3     1  UNL1        0.0204
     20 C           0.3690    1.5170   26.0833 C.3     1  UNL1        0.0684
     21 C          -0.0088    1.3316   24.6435 C.3     1  UNL1        0.0790
     22 N           1.3509    0.7653   24.3596 N.3     1  UNL1       -0.2732
     23 C           1.7287    0.9507   25.7994 C.3     1  UNL1        0.0790
     24 O          -1.1457    1.1301   28.1584 O.co2   1  UNL1       -0.5491
     25 C          -0.3252    2.0485   27.3021 C.2     1  UNL1        0.0527
     26 O          -0.1988    3.4986   27.6647 O.co2   1  UNL1       -0.5491
@<TRIPOS>UNITY_ATOM_ATTR
24 1
charge -1
@<TRIPOS>BOND
     1    24    25   ar
     2    25    26   ar
     3    25    20    1
     4    20    21    1
     5    21    22    1
     6    22     1    1
     7     1     2    1
     8     2     3    1
     9     3     4    1
    10     4     5    1
    11     5     6    1
    12     6     7   ar
    13     7     8   ar
    14     8     9   ar
    15     9    10   ar
    16    10    11   ar
    17    11    12    1
    18    12    13    1
    19    13    14   ar
    20    14    15   ar
    21    15    16   ar
    22    16    17   ar
    23    17    18   ar
    24     4    19    1
    25    22    23    1
    26    23    20    1
    27    19     1    1
    28    18     4    1
    29    11     6   ar
    30    18    13   ar
@<TRIPOS>MOLECULE
*****
 26 30 0 0 0
SMALL
GASTEIGER

@<TRIPOS>ATOM
      1 C           1.7432    0.5280   20.4767 C.3     1  UNL1        0.0579
      2 C           0.8770    1.3223   19.5448 C.3     1  UNL1        0.0163
      3 C          -0.0755    2.1317   20.3740 C.3     1  UNL1        0.0059
      4 C           0.2022    1.8376   21.8184 C.3     1  UNL1        0.0273
      5 C           0.6703    1.3792   23.1678 C.3     1  UNL1        0.0336
      6 C           0.1611    1.7805   24.5205 C.ar    1  UNL1        0.0127
      7 C           0.9104    1.0833   25.6171 C.ar    1  UNL1       -0.0012
      8 C           0.5567    1.3451   27.0510 C.ar    1  UNL1       -0.0001
      9 C          -0.5464    2.3040   27.3884 C.ar    1  UNL1        0.0031
     10 C          -1.2957    3.0011   26.2919 C.ar    1  UNL1        0.0372
     11 C          -0.9419    2.7394   24.8579 C.ar    1  UNL1        0.1413
     12 O          -1.8082    3.5337   23.9259 O.3     1  UNL1       -0.4541
     13 C          -1.7855    3.5655   22.4264 C.ar    1  UNL1        0.1412
     14 C          -2.8255    4.4993   21.8821 C.ar    1  UNL1        0.0372
     15 C          -2.9708    4.6783   20.4000 C.ar    1  UNL1        0.0031
     16 C          -2.0761    3.9235   19.4621 C.ar    1  UNL1       -0.0001
     17 C          -1.0360    2.9896   20.0064 C.ar    1  UNL1       -0.0013
     18 C          -0.8907    2.8106   21.4885 C.ar    1  UNL1        0.0121
     19 C           1.3262    0.8464   21.8819 C.3     1  UNL1        0.0204
     20 C           4.3788   -1.7575   19.5047 C.3     1  UNL1        0.0684
     21 C           4.3089   -0.2938   19.8255 C.3     1  UNL1        0.0790
     22 N           2.8349   -0.4187   20.0741 N.3     1  UNL1       -0.2732
     23 C           2.9048   -1.8823   19.7533 C.3     1  UNL1        0.0790
     24 O           5.9807   -3.7203   20.0803 O.co2   1  UNL1       -0.5491
     25 C           5.4704   -2.7042   19.1021 C.2     1  UNL1        0.0527
     26 O           6.0518   -2.6347   17.7210 O.co2   1  UNL1       -0.5491
@<TRIPOS>UNITY_ATOM_ATTR
24 1
charge -1
@<TRIPOS>BOND
     1    24    25   ar
     2    25    26   ar
     3    25    20    1
     4    20    21    1
     5    21    22    1
     6    22     1    1
     7     1     2    1
     8     2     3    1
     9     3     4    1
    10     4     5    1
    11     5     6    1
    12     6     7   ar
    13     7     8   ar
    14     8     9   ar
    15     9    10   ar
    16    10    11   ar
    17    11    12    1
    18    12    13    1
    19    13    14   ar
    20    14    15   ar
    21    15    16   ar
    22    16    17   ar
    23    17    18   ar
    24     4    19    1
    25    22    23    1
    26    23    20    1
    27    19     1    1
    28    18     4    1
    29    11     6   ar
    30    18    13   ar
