@<TRIPOS>MOLECULE
*****
 19 22 0 0 0
SMALL
GASTEIGER

@<TRIPOS>ATOM
      1 C          -9.4002  -16.7538   22.8081 C.ar    1  UNL1       -0.0215
      2 C          -8.2664  -15.9125   22.3013 C.ar    1  UNL1       -0.0042
      3 C          -7.2624  -15.3491   23.2629 C.ar    1  UNL1       -0.0003
      4 C          -7.3921  -15.6270   24.7312 C.ar    1  UNL1       -0.0000
      5 C          -6.3881  -15.0637   25.6927 C.ar    1  UNL1       -0.0000
      6 C          -6.5179  -15.3416   27.1610 C.ar    1  UNL1       -0.0000
      7 C          -7.6517  -16.1829   27.6678 C.ar    1  UNL1       -0.0000
      8 C          -8.6557  -16.7462   26.7062 C.ar    1  UNL1       -0.0000
      9 C          -8.5259  -16.4683   25.2380 C.ar    1  UNL1       -0.0003
     10 C          -9.5300  -17.0317   24.2764 C.ar    1  UNL1       -0.0042
     11 C          -8.1437  -19.5671   19.6345 C.3     1  UNL1        0.0896
     12 N          -9.2318  -18.7918   20.3164 N.3     1  UNL1       -0.2712
     13 C         -10.6837  -18.7919   19.9393 C.3     1  UNL1        0.0725
     14 C         -11.4082  -17.8804   20.8850 C.3     1  UNL1        0.0210
     15 C         -12.7533  -17.3171   21.2364 C.3     1  UNL1        0.0018
     16 C         -12.5806  -16.4057   22.4151 C.3     1  UNL1        0.0004
     17 C         -11.1288  -16.4056   22.7922 C.3     1  UNL1        0.0054
     18 C         -10.4042  -17.3171   21.8465 C.3     1  UNL1        0.0349
     19 C          -9.0591  -17.8804   21.4951 C.3     1  UNL1        0.0762
@<TRIPOS>BOND
     1    11    12    1
     2    12    13    1
     3    14    13    1
     4    14    15    1
     5    15    16    1
     6    16    17    1
     7    17    18    1
     8    18     1    1
     9     1     2   ar
    10     2     3   ar
    11     3     4   ar
    12     4     5   ar
    13     5     6   ar
    14     6     7   ar
    15     7     8   ar
    16     8     9   ar
    17     9    10   ar
    18    18    19    1
    19    19    12    1
    20    18    14    1
    21    10     1   ar
    22     9     4   ar
@<TRIPOS>MOLECULE
*****
 19 22 0 0 0
SMALL
GASTEIGER

@<TRIPOS>ATOM
      1 C          -9.3094  -17.1209   22.9916 C.ar    1  UNL1       -0.0215
      2 C          -8.8466  -15.9524   23.8103 C.ar    1  UNL1       -0.0042
      3 C          -7.3830  -15.7511   24.0699 C.ar    1  UNL1       -0.0003
      4 C          -6.3822  -16.7185   23.5107 C.ar    1  UNL1       -0.0000
      5 C          -4.9186  -16.5172   23.7703 C.ar    1  UNL1       -0.0000
      6 C          -3.9178  -17.4845   23.2112 C.ar    1  UNL1       -0.0000
      7 C          -4.3806  -18.6531   22.3925 C.ar    1  UNL1       -0.0000
      8 C          -5.8442  -18.8544   22.1329 C.ar    1  UNL1       -0.0000
      9 C          -6.8449  -17.8871   22.6920 C.ar    1  UNL1       -0.0003
     10 C          -8.3086  -18.0883   22.4325 C.ar    1  UNL1       -0.0042
     11 C         -11.1921  -15.4868   19.3378 C.3     1  UNL1        0.0896
     12 N         -11.3153  -16.2494   20.6236 N.3     1  UNL1       -0.2712
     13 C         -12.5718  -16.8604   21.1695 C.3     1  UNL1        0.0725
     14 C         -12.2366  -17.5234   22.4725 C.3     1  UNL1        0.0210
     15 C         -12.8060  -18.3108   23.6152 C.3     1  UNL1        0.0018
     16 C         -11.6943  -18.5962   24.5810 C.3     1  UNL1        0.0004
     17 C         -10.4378  -17.9852   24.0352 C.3     1  UNL1        0.0054
     18 C         -10.7730  -17.3222   22.7320 C.3     1  UNL1        0.0349
     19 C         -10.2036  -16.5348   21.5894 C.3     1  UNL1        0.0762
@<TRIPOS>BOND
     1    11    12    1
     2    12    13    1
     3    14    13    1
     4    14    15    1
     5    15    16    1
     6    16    17    1
     7    17    18    1
     8    18     1    1
     9     1     2   ar
    10     2     3   ar
    11     3     4   ar
    12     4     5   ar
    13     5     6   ar
    14     6     7   ar
    15     7     8   ar
    16     8     9   ar
    17     9    10   ar
    18    18    19    1
    19    19    12    1
    20    18    14    1
    21    10     1   ar
    22     9     4   ar
@<TRIPOS>MOLECULE
*****
 19 22 0 0 0
SMALL
GASTEIGER

@<TRIPOS>ATOM
      1 C          -7.6878  -18.9391   22.1815 C.ar    1  UNL1       -0.0215
      2 C          -8.3829  -20.0508   22.9102 C.ar    1  UNL1       -0.0042
      3 C          -9.8333  -19.9204   23.2695 C.ar    1  UNL1       -0.0003
      4 C         -10.5888  -18.6783   22.8999 C.ar    1  UNL1       -0.0000
      5 C         -12.0393  -18.5479   23.2592 C.ar    1  UNL1       -0.0000
      6 C         -12.7947  -17.3059   22.8896 C.ar    1  UNL1       -0.0000
      7 C         -12.0996  -16.1942   22.1609 C.ar    1  UNL1       -0.0000
      8 C         -10.6492  -16.3246   21.8017 C.ar    1  UNL1       -0.0000
      9 C          -9.8938  -17.5666   22.1712 C.ar    1  UNL1       -0.0003
     10 C          -8.4432  -17.6971   21.8120 C.ar    1  UNL1       -0.0042
     11 C          -4.6806  -16.2123   23.9385 C.3     1  UNL1        0.0896
     12 N          -5.0081  -17.3634   23.0342 N.3     1  UNL1       -0.2712
     13 C          -4.0271  -18.1456   22.2121 C.3     1  UNL1        0.0725
     14 C          -4.7868  -19.2000   21.4631 C.3     1  UNL1        0.0210
     15 C          -4.6500  -20.3351   20.4921 C.3     1  UNL1        0.0018
     16 C          -6.0160  -20.9062   20.2512 C.3     1  UNL1        0.0004
     17 C          -6.9970  -20.1241   21.0733 C.3     1  UNL1        0.0054
     18 C          -6.2372  -19.0696   21.8223 C.3     1  UNL1        0.0349
     19 C          -6.3741  -17.9345   22.7933 C.3     1  UNL1        0.0762
@<TRIPOS>BOND
     1    11    12    1
     2    12    13    1
     3    14    13    1
     4    14    15    1
     5    15    16    1
     6    16    17    1
     7    17    18    1
     8    18     1    1
     9     1     2   ar
    10     2     3   ar
    11     3     4   ar
    12     4     5   ar
    13     5     6   ar
    14     6     7   ar
    15     7     8   ar
    16     8     9   ar
    17     9    10   ar
    18    18    19    1
    19    19    12    1
    20    18    14    1
    21    10     1   ar
    22     9     4   ar
@<TRIPOS>MOLECULE
*****
 19 22 0 0 0
SMALL
GASTEIGER

@<TRIPOS>ATOM
      1 C          -8.8109  -18.8190   21.8140 C.ar    1  UNL1       -0.0215
      2 C          -8.7652  -19.4775   20.4671 C.ar    1  UNL1       -0.0042
      3 C          -7.4449  -19.8324   19.8501 C.ar    1  UNL1       -0.0003
      4 C          -6.1701  -19.5288   20.5801 C.ar    1  UNL1       -0.0000
      5 C          -4.8497  -19.8837   19.9632 C.ar    1  UNL1       -0.0000
      6 C          -3.5751  -19.5801   20.6932 C.ar    1  UNL1       -0.0000
      7 C          -3.6207  -18.9216   22.0402 C.ar    1  UNL1       -0.0000
      8 C          -4.9411  -18.5667   22.6571 C.ar    1  UNL1       -0.0000
      9 C          -6.2158  -18.8703   21.9271 C.ar    1  UNL1       -0.0003
     10 C          -7.5362  -18.5154   22.5440 C.ar    1  UNL1       -0.0042
     11 C         -11.5236  -15.9459   19.8261 C.3     1  UNL1        0.0896
     12 N         -11.2353  -16.8679   20.9736 N.3     1  UNL1       -0.2712
     13 C         -12.1340  -17.1228   22.1472 C.3     1  UNL1        0.0725
     14 C         -11.4517  -18.1093   23.0479 C.3     1  UNL1        0.0210
     15 C         -11.5855  -18.8766   24.3299 C.3     1  UNL1        0.0018
     16 C         -10.3477  -19.7056   24.5052 C.3     1  UNL1        0.0004
     17 C          -9.4490  -19.4507   23.3317 C.3     1  UNL1        0.0054
     18 C         -10.1314  -18.4642   22.4310 C.3     1  UNL1        0.0349
     19 C          -9.9975  -17.6970   21.1490 C.3     1  UNL1        0.0762
@<TRIPOS>BOND
     1    11    12    1
     2    12    13    1
     3    14    13    1
     4    14    15    1
     5    15    16    1
     6    16    17    1
     7    17    18    1
     8    18     1    1
     9     1     2   ar
    10     2     3   ar
    11     3     4   ar
    12     4     5   ar
    13     5     6   ar
    14     6     7   ar
    15     7     8   ar
    16     8     9   ar
    17     9    10   ar
    18    18    19    1
    19    19    12    1
    20    18    14    1
    21    10     1   ar
    22     9     4   ar
@<TRIPOS>MOLECULE
*****
 19 22 0 0 0
SMALL
GASTEIGER

@<TRIPOS>ATOM
      1 C          -9.0081  -17.3873   23.0956 C.ar    1  UNL1       -0.0215
      2 C          -7.6804  -17.0190   22.5027 C.ar    1  UNL1       -0.0042
      3 C          -6.6608  -16.2999   23.3353 C.ar    1  UNL1       -0.0003
      4 C          -6.9689  -15.9491   24.7609 C.ar    1  UNL1       -0.0000
      5 C          -5.9493  -15.2300   25.5934 C.ar    1  UNL1       -0.0000
      6 C          -6.2574  -14.8792   27.0189 C.ar    1  UNL1       -0.0000
      7 C          -7.5852  -15.2475   27.6117 C.ar    1  UNL1       -0.0000
      8 C          -8.6048  -15.9666   26.7791 C.ar    1  UNL1       -0.0000
      9 C          -8.2966  -16.3174   25.3537 C.ar    1  UNL1       -0.0003
     10 C          -9.3162  -17.0365   24.5210 C.ar    1  UNL1       -0.0042
     11 C         -10.9096  -15.3842   19.6405 C.3     1  UNL1        0.0896
     12 N         -10.7630  -16.5981   20.5095 N.3     1  UNL1       -0.2712
     13 C         -11.5017  -17.8934   20.3466 C.3     1  UNL1        0.0725
     14 C         -11.0473  -18.8257   21.4303 C.3     1  UNL1        0.0210
     15 C         -11.2229  -20.2023   21.9994 C.3     1  UNL1        0.0018
     16 C         -10.3119  -20.3340   23.1838 C.3     1  UNL1        0.0004
     17 C          -9.5732  -19.0387   23.3467 C.3     1  UNL1        0.0054
     18 C         -10.0277  -18.1065   22.2629 C.3     1  UNL1        0.0349
     19 C          -9.8520  -16.7298   21.6939 C.3     1  UNL1        0.0762
@<TRIPOS>BOND
     1    11    12    1
     2    12    13    1
     3    14    13    1
     4    14    15    1
     5    15    16    1
     6    16    17    1
     7    17    18    1
     8    18     1    1
     9     1     2   ar
    10     2     3   ar
    11     3     4   ar
    12     4     5   ar
    13     5     6   ar
    14     6     7   ar
    15     7     8   ar
    16     8     9   ar
    17     9    10   ar
    18    18    19    1
    19    19    12    1
    20    18    14    1
    21    10     1   ar
    22     9     4   ar
@<TRIPOS>MOLECULE
*****
 19 22 0 0 0
SMALL
GASTEIGER

@<TRIPOS>ATOM
      1 C          -8.1381  -16.8470   23.1982 C.ar    1  UNL1       -0.0215
      2 C          -8.7161  -16.0549   22.0631 C.ar    1  UNL1       -0.0042
      3 C         -10.1905  -16.1006   21.7908 C.ar    1  UNL1       -0.0003
      4 C         -11.0869  -16.9384   22.6537 C.ar    1  UNL1       -0.0000
      5 C         -12.5613  -16.9841   22.3815 C.ar    1  UNL1       -0.0000
      6 C         -13.4576  -17.8219   23.2444 C.ar    1  UNL1       -0.0000
      7 C         -12.8797  -18.6140   24.3795 C.ar    1  UNL1       -0.0000
      8 C         -11.4053  -18.5683   24.6517 C.ar    1  UNL1       -0.0000
      9 C         -10.5089  -17.7306   23.7889 C.ar    1  UNL1       -0.0003
     10 C          -9.0345  -17.6848   24.0611 C.ar    1  UNL1       -0.0042
     11 C          -5.3734  -19.5743   21.0806 C.3     1  UNL1        0.0896
     12 N          -5.5913  -18.4730   22.0756 N.3     1  UNL1       -0.2712
     13 C          -4.5266  -17.7888   22.8806 C.3     1  UNL1        0.0725
     14 C          -5.1894  -16.7556   23.7427 C.3     1  UNL1        0.0210
     15 C          -4.9410  -15.6941   24.7730 C.3     1  UNL1        0.0018
     16 C          -6.2619  -15.0838   25.1376 C.3     1  UNL1        0.0004
     17 C          -7.3266  -15.7681   24.3326 C.3     1  UNL1        0.0054
     18 C          -6.6637  -16.8013   23.4704 C.3     1  UNL1        0.0349
     19 C          -6.9122  -17.8627   22.4401 C.3     1  UNL1        0.0762
@<TRIPOS>BOND
     1    11    12    1
     2    12    13    1
     3    14    13    1
     4    14    15    1
     5    15    16    1
     6    16    17    1
     7    17    18    1
     8    18     1    1
     9     1     2   ar
    10     2     3   ar
    11     3     4   ar
    12     4     5   ar
    13     5     6   ar
    14     6     7   ar
    15     7     8   ar
    16     8     9   ar
    17     9    10   ar
    18    18    19    1
    19    19    12    1
    20    18    14    1
    21    10     1   ar
    22     9     4   ar
@<TRIPOS>MOLECULE
*****
 19 22 0 0 0
SMALL
GASTEIGER

@<TRIPOS>ATOM
      1 C          -9.1464  -17.7193   22.8921 C.ar    1  UNL1       -0.0215
      2 C          -9.9999  -18.1422   24.0509 C.ar    1  UNL1       -0.0042
      3 C          -9.6715  -17.6697   25.4361 C.ar    1  UNL1       -0.0003
      4 C          -8.4895  -16.7743   25.6627 C.ar    1  UNL1       -0.0000
      5 C          -8.1611  -16.3019   27.0479 C.ar    1  UNL1       -0.0000
      6 C          -6.9792  -15.4065   27.2744 C.ar    1  UNL1       -0.0000
      7 C          -6.1257  -14.9836   26.1156 C.ar    1  UNL1       -0.0000
      8 C          -6.4541  -15.4560   24.7304 C.ar    1  UNL1       -0.0000
      9 C          -7.6360  -16.3514   24.5039 C.ar    1  UNL1       -0.0003
     10 C          -7.9645  -16.8239   23.1186 C.ar    1  UNL1       -0.0042
     11 C          -6.3380  -20.3219   20.6775 C.3     1  UNL1        0.0896
     12 N          -7.6383  -19.5759   20.7314 N.3     1  UNL1       -0.2712
     13 C          -8.6682  -19.5197   19.6424 C.3     1  UNL1        0.0725
     14 C          -9.8033  -18.6642   20.1217 C.3     1  UNL1        0.0210
     15 C         -11.1414  -18.1007   19.7449 C.3     1  UNL1        0.0018
     16 C         -11.6399  -17.2800   20.8972 C.3     1  UNL1        0.0004
     17 C         -10.6100  -17.3362   21.9862 C.3     1  UNL1        0.0054
     18 C          -9.4748  -18.1918   21.5069 C.3     1  UNL1        0.0349
     19 C          -8.1368  -18.7552   21.8837 C.3     1  UNL1        0.0762
@<TRIPOS>BOND
     1    11    12    1
     2    12    13    1
     3    14    13    1
     4    14    15    1
     5    15    16    1
     6    16    17    1
     7    17    18    1
     8    18     1    1
     9     1     2   ar
    10     2     3   ar
    11     3     4   ar
    12     4     5   ar
    13     5     6   ar
    14     6     7   ar
    15     7     8   ar
    16     8     9   ar
    17     9    10   ar
    18    18    19    1
    19    19    12    1
    20    18    14    1
    21    10     1   ar
    22     9     4   ar
@<TRIPOS>MOLECULE
*****
 19 22 0 0 0
SMALL
GASTEIGER

@<TRIPOS>ATOM
      1 C          -8.2473  -18.1543   22.3307 C.ar    1  UNL1       -0.0215
      2 C          -8.8894  -17.3473   21.2415 C.ar    1  UNL1       -0.0042
      3 C         -10.3636  -17.0731   21.2808 C.ar    1  UNL1       -0.0003
      4 C         -11.1958  -17.6060   22.4094 C.ar    1  UNL1       -0.0000
      5 C         -12.6699  -17.3318   22.4487 C.ar    1  UNL1       -0.0000
      6 C         -13.5020  -17.8647   23.5773 C.ar    1  UNL1       -0.0000
      7 C         -12.8599  -18.6718   24.6665 C.ar    1  UNL1       -0.0000
      8 C         -11.3858  -18.9460   24.6272 C.ar    1  UNL1       -0.0000
      9 C         -10.5537  -18.4131   23.4986 C.ar    1  UNL1       -0.0003
     10 C          -9.0794  -18.6872   23.4593 C.ar    1  UNL1       -0.0042
     11 C          -5.3915  -15.3868   24.2674 C.3     1  UNL1        0.0896
     12 N          -5.6454  -16.6389   23.4813 N.3     1  UNL1       -0.2712
     13 C          -4.6019  -17.5966   22.9874 C.3     1  UNL1        0.0725
     14 C          -5.2989  -18.7027   22.2520 C.3     1  UNL1        0.0210
     15 C          -5.0848  -19.9782   21.4922 C.3     1  UNL1        0.0018
     16 C          -6.4267  -20.4923   21.0620 C.3     1  UNL1        0.0004
     17 C          -7.4701  -19.5346   21.5559 C.3     1  UNL1        0.0054
     18 C          -6.7731  -18.4285   22.2914 C.3     1  UNL1        0.0349
     19 C          -6.9872  -17.1530   23.0511 C.3     1  UNL1        0.0762
@<TRIPOS>BOND
     1    11    12    1
     2    12    13    1
     3    14    13    1
     4    14    15    1
     5    15    16    1
     6    16    17    1
     7    17    18    1
     8    18     1    1
     9     1     2   ar
    10     2     3   ar
    11     3     4   ar
    12     4     5   ar
    13     5     6   ar
    14     6     7   ar
    15     7     8   ar
    16     8     9   ar
    17     9    10   ar
    18    18    19    1
    19    19    12    1
    20    18    14    1
    21    10     1   ar
    22     9     4   ar
@<TRIPOS>MOLECULE
*****
 19 22 0 0 0
SMALL
GASTEIGER

@<TRIPOS>ATOM
      1 C          -8.6777  -16.5778   24.8147 C.ar    1  UNL1       -0.0215
      2 C          -9.3614  -17.8011   25.3497 C.ar    1  UNL1       -0.0042
      3 C         -10.5140  -18.4034   24.6024 C.ar    1  UNL1       -0.0003
      4 C         -10.9830  -17.7825   23.3199 C.ar    1  UNL1       -0.0000
      5 C         -12.1356  -18.3848   22.5725 C.ar    1  UNL1       -0.0000
      6 C         -12.6045  -17.7639   21.2901 C.ar    1  UNL1       -0.0000
      7 C         -11.9208  -16.5406   20.7551 C.ar    1  UNL1       -0.0000
      8 C         -10.7682  -15.9383   21.5025 C.ar    1  UNL1       -0.0000
      9 C         -10.2993  -16.5592   22.7849 C.ar    1  UNL1       -0.0003
     10 C          -9.1466  -15.9569   23.5324 C.ar    1  UNL1       -0.0042
     11 C          -4.5948  -16.6798   23.1161 C.3     1  UNL1        0.0896
     12 N          -5.5220  -16.2838   24.2268 N.3     1  UNL1       -0.2712
     13 C          -5.1344  -15.5637   25.4843 C.3     1  UNL1        0.0725
     14 C          -6.3724  -15.3732   26.3096 C.3     1  UNL1        0.0210
     15 C          -6.8980  -14.8104   27.5969 C.3     1  UNL1        0.0018
     16 C          -8.3755  -15.0649   27.6450 C.3     1  UNL1        0.0004
     17 C          -8.7630  -15.7850   26.3875 C.3     1  UNL1        0.0054
     18 C          -7.5250  -15.9755   25.5622 C.3     1  UNL1        0.0349
     19 C          -6.9994  -16.5383   24.2749 C.3     1  UNL1        0.0762
@<TRIPOS>BOND
     1    11    12    1
     2    12    13    1
     3    14    13    1
     4    14    15    1
     5    15    16    1
     6    16    17    1
     7    17    18    1
     8    18     1    1
     9     1     2   ar
    10     2     3   ar
    11     3     4   ar
    12     4     5   ar
    13     5     6   ar
    14     6     7   ar
    15     7     8   ar
    16     8     9   ar
    17     9    10   ar
    18    18    19    1
    19    19    12    1
    20    18    14    1
    21    10     1   ar
    22     9     4   ar
