@<TRIPOS>MOLECULE
*****
 28 29 0 0 0
SMALL
GASTEIGER

@<TRIPOS>ATOM
      1 C          -7.8109  -16.2026   24.2560 C.3     1  UNL1        0.2969
      2 F          -7.5795  -16.3191   22.7786 F       1  UNL1       -0.1981
      3 F          -8.0423  -16.0861   25.7334 F       1  UNL1       -0.1981
      4 C          -9.1489  -16.8621   24.0985 C.ar    1  UNL1        0.0422
      5 C          -9.4937  -18.0658   24.9243 C.ar    1  UNL1        0.0012
      6 C         -10.8317  -18.7253   24.7667 C.ar    1  UNL1        0.0030
      7 C         -11.8249  -18.1809   23.7834 C.ar    1  UNL1        0.0369
      8 C         -11.4802  -16.9771   22.9575 C.ar    1  UNL1        0.1384
      9 C         -10.1422  -16.3177   23.1151 C.ar    1  UNL1        0.0379
     10 O         -12.4735  -16.4328   21.9741 O.3     1  UNL1       -0.4755
     11 C         -12.4701  -16.9216   20.5561 C.3     1  UNL1        0.2057
     12 C         -11.1806  -17.3265   19.9054 C.3     1  UNL1        0.0561
     13 C         -10.7846  -18.7727   19.8610 C.3     1  UNL1        0.1072
     14 C         -10.0171  -19.3754   21.0002 C.3     1  UNL1        0.3979
     15 F          -9.2497  -19.9782   22.1393 F       1  UNL1       -0.1700
     16 F         -11.1196  -20.3692   21.2171 F       1  UNL1       -0.1700
     17 F          -8.9147  -18.3816   20.7833 F       1  UNL1       -0.1700
     18 C          -6.4729  -15.5431   24.4136 C.3     1  UNL1        0.1409
     19 N          -5.3337  -15.9349   23.5198 N.3     1  UNL1       -0.2850
     20 H          -5.7297  -16.1044   22.5952 H       1  UNL1        0.1239
     21 C          -4.4930  -17.1306   23.8567 C.3     1  UNL1        0.1553
     22 O          -2.2926  -17.5476   22.5396 O.2     1  UNL1       -0.2734
     23 C          -3.7432  -17.8492   22.7743 C.2     1  UNL1        0.2418
     24 N          -4.4438  -18.8693   21.9268 N.am    1  UNL1       -0.2784
     25 C          -3.8279  -19.6637   20.8134 C.3     1  UNL1        0.0935
     26 C          -4.8868  -20.5595   20.2422 C.3     1  UNL1        0.0233
     27 C          -6.1572  -20.3188   21.0027 C.3     1  UNL1        0.0233
     28 C          -5.8834  -19.2742   22.0438 C.3     1  UNL1        0.0935
@<TRIPOS>BOND
     1    22    23    2
     2    23    21    1
     3    21    19    1
     4    19    18    1
     5    18     1    1
     6     1     2    1
     7     1     3    1
     8     1     4    1
     9     4     5   ar
    10     5     6   ar
    11     6     7   ar
    12     7     8   ar
    13     8    10    1
    14    10    11    1
    15    11    12    1
    16    12    13    1
    17    13    14    1
    18    14    15    1
    19    14    16    1
    20    14    17    1
    21     8     9   ar
    22    23    24   am
    23    24    25    1
    24    25    26    1
    25    26    27    1
    26    27    28    1
    27     9     4   ar
    28    28    24    1
    29    19    20    1
@<TRIPOS>MOLECULE
*****
 28 29 0 0 0
SMALL
GASTEIGER

@<TRIPOS>ATOM
      1 C          -6.7988  -19.7417   20.3136 C.3     1  UNL1        0.2969
      2 F          -6.2680  -21.0627   19.8414 F       1  UNL1       -0.1981
      3 F          -7.3295  -18.4206   20.7858 F       1  UNL1       -0.1981
      4 C          -5.4914  -19.4590   20.9925 C.ar    1  UNL1        0.0422
      5 C          -4.2274  -20.0772   20.4729 C.ar    1  UNL1        0.0012
      6 C          -2.9201  -19.7946   21.1518 C.ar    1  UNL1        0.0030
      7 C          -2.8768  -18.8937   22.3504 C.ar    1  UNL1        0.0369
      8 C          -4.1408  -18.2756   22.8701 C.ar    1  UNL1        0.1384
      9 C          -5.4481  -18.5582   22.1911 C.ar    1  UNL1        0.0379
     10 O          -4.0975  -17.3747   24.0687 O.3     1  UNL1       -0.4755
     11 C          -4.8897  -16.1011   24.0786 C.3     1  UNL1        0.2057
     12 C          -5.5185  -15.6189   25.3522 C.3     1  UNL1        0.0561
     13 C          -7.0065  -15.4491   25.4366 C.3     1  UNL1        0.1072
     14 C          -7.7334  -15.8192   26.6955 C.3     1  UNL1        0.3979
     15 F          -8.4603  -16.1893   27.9543 F       1  UNL1       -0.1700
     16 F          -6.6934  -15.1043   27.5062 F       1  UNL1       -0.1700
     17 F          -8.7734  -16.5341   25.8847 F       1  UNL1       -0.1700
     18 C          -8.1061  -20.0243   19.6347 C.3     1  UNL1        0.1409
     19 N          -9.0972  -18.9179   19.4256 N.3     1  UNL1       -0.2850
     20 H          -8.8399  -18.1671   20.0663 H       1  UNL1        0.1239
     21 C         -10.5615  -19.1750   19.6254 C.3     1  UNL1        0.1553
     22 O         -12.2011  -17.2579   20.2473 O.2     1  UNL1       -0.2734
     23 C         -11.3241  -18.4026   20.6606 C.2     1  UNL1        0.2418
     24 N         -11.2098  -18.7747   22.1092 N.am    1  UNL1       -0.2784
     25 C         -11.9084  -18.0981   23.2512 C.3     1  UNL1        0.0935
     26 C         -11.5072  -18.7941   24.5179 C.3     1  UNL1        0.0233
     27 C         -10.5606  -19.9009   24.1588 C.3     1  UNL1        0.0233
     28 C         -10.3768  -19.8889   22.6701 C.3     1  UNL1        0.0935
@<TRIPOS>BOND
     1    22    23    2
     2    23    21    1
     3    21    19    1
     4    19    18    1
     5    18     1    1
     6     1     2    1
     7     1     3    1
     8     1     4    1
     9     4     5   ar
    10     5     6   ar
    11     6     7   ar
    12     7     8   ar
    13     8    10    1
    14    10    11    1
    15    11    12    1
    16    12    13    1
    17    13    14    1
    18    14    15    1
    19    14    16    1
    20    14    17    1
    21     8     9   ar
    22    23    24   am
    23    24    25    1
    24    25    26    1
    25    26    27    1
    26    27    28    1
    27     9     4   ar
    28    28    24    1
    29    19    20    1
@<TRIPOS>MOLECULE
*****
 28 29 0 0 0
SMALL
GASTEIGER

@<TRIPOS>ATOM
      1 C          -7.9302  -19.4194   21.6084 C.3     1  UNL1        0.2969
      2 F          -8.0714  -18.8192   20.2410 F       1  UNL1       -0.1981
      3 F          -7.7891  -20.0196   22.9757 F       1  UNL1       -0.1981
      4 C          -6.4647  -19.6280   21.3656 C.ar    1  UNL1        0.0422
      5 C          -6.0092  -20.5683   20.2894 C.ar    1  UNL1        0.0012
      6 C          -4.5438  -20.7769   20.0467 C.ar    1  UNL1        0.0030
      7 C          -3.5339  -20.0451   20.8801 C.ar    1  UNL1        0.0369
      8 C          -3.9894  -19.1047   21.9563 C.ar    1  UNL1        0.1384
      9 C          -5.4548  -18.8962   22.1990 C.ar    1  UNL1        0.0379
     10 O          -2.9795  -18.3729   22.7897 O.3     1  UNL1       -0.4755
     11 C          -2.8642  -16.8807   22.6895 C.3     1  UNL1        0.2057
     12 C          -2.1611  -16.2597   21.5190 C.3     1  UNL1        0.0561
     13 C          -1.1049  -17.0302   20.7836 C.3     1  UNL1        0.1072
     14 C          -1.3717  -17.5305   19.3949 C.3     1  UNL1        0.3979
     15 F          -1.6386  -18.0309   18.0062 F       1  UNL1       -0.1700
     16 F          -2.7802  -17.0222   19.4824 F       1  UNL1       -0.1700
     17 F           0.0368  -18.0389   19.3074 F       1  UNL1       -0.1700
     18 C          -9.3957  -19.2108   21.8512 C.3     1  UNL1        0.1409
     19 N          -9.8540  -18.4274   23.0454 N.3     1  UNL1       -0.2850
     20 H         -10.8398  -18.6502   23.1831 H       1  UNL1        0.1239
     21 C          -9.7437  -16.9314   23.0484 C.3     1  UNL1        0.1553
     22 O          -7.7250  -15.9635   21.7299 O.2     1  UNL1       -0.2734
     23 C          -8.3931  -16.2789   23.0354 C.2     1  UNL1        0.2418
     24 N          -7.7105  -15.9419   24.3279 N.am    1  UNL1       -0.2784
     25 C          -6.3664  -15.2917   24.4718 C.3     1  UNL1        0.0935
     26 C          -6.0774  -15.1439   25.9362 C.3     1  UNL1        0.0233
     27 C          -7.2429  -15.7028   26.6974 C.3     1  UNL1        0.0233
     28 C          -8.2522  -16.1960   25.7034 C.3     1  UNL1        0.0935
@<TRIPOS>BOND
     1    22    23    2
     2    23    21    1
     3    21    19    1
     4    19    18    1
     5    18     1    1
     6     1     2    1
     7     1     3    1
     8     1     4    1
     9     4     5   ar
    10     5     6   ar
    11     6     7   ar
    12     7     8   ar
    13     8    10    1
    14    10    11    1
    15    11    12    1
    16    12    13    1
    17    13    14    1
    18    14    15    1
    19    14    16    1
    20    14    17    1
    21     8     9   ar
    22    23    24   am
    23    24    25    1
    24    25    26    1
    25    26    27    1
    26    27    28    1
    27     9     4   ar
    28    28    24    1
    29    19    20    1
@<TRIPOS>MOLECULE
*****
 28 29 0 0 0
SMALL
GASTEIGER

@<TRIPOS>ATOM
      1 C          -4.3316  -16.1779   23.6682 C.3     1  UNL1        0.2969
      2 F          -4.3759  -14.9386   22.8243 F       1  UNL1       -0.1981
      3 F          -4.2873  -17.4172   24.5121 F       1  UNL1       -0.1981
      4 C          -3.4360  -16.8332   22.6589 C.ar    1  UNL1        0.0422
      5 C          -2.3366  -16.0466   22.0090 C.ar    1  UNL1        0.0012
      6 C          -1.4411  -16.7019   20.9997 C.ar    1  UNL1        0.0030
      7 C          -1.6451  -18.1439   20.6404 C.ar    1  UNL1        0.0369
      8 C          -2.7445  -18.9305   21.2903 C.ar    1  UNL1        0.1384
      9 C          -3.6400  -18.2752   22.2996 C.ar    1  UNL1        0.0379
     10 O          -2.9484  -20.3725   20.9310 O.3     1  UNL1       -0.4755
     11 C          -3.9566  -20.7498   19.8865 C.3     1  UNL1        0.2057
     12 C          -5.3858  -20.9875   20.2748 C.3     1  UNL1        0.0561
     13 C          -6.3497  -19.8393   20.3272 C.3     1  UNL1        0.1072
     14 C          -7.2993  -19.7093   21.4810 C.3     1  UNL1        0.3979
     15 F          -8.2490  -19.5794   22.6349 F       1  UNL1       -0.1700
     16 F          -8.3302  -19.1179   20.5659 F       1  UNL1       -0.1700
     17 F          -6.2685  -20.3008   22.3961 F       1  UNL1       -0.1700
     18 C          -5.2271  -15.5226   24.6774 C.3     1  UNL1        0.1409
     19 N          -6.4780  -14.8261   24.2300 N.3     1  UNL1       -0.2850
     20 H          -6.6390  -14.0607   24.8847 H       1  UNL1        0.1239
     21 C          -7.7659  -15.5885   24.1297 C.3     1  UNL1        0.1553
     22 O          -7.8134  -15.1745   21.5652 O.2     1  UNL1       -0.2734
     23 C          -8.4130  -15.7949   22.7923 C.2     1  UNL1        0.2418
     24 N          -9.6596  -16.6218   22.6819 N.am    1  UNL1       -0.2784
     25 C         -10.4146  -16.9145   21.4192 C.3     1  UNL1        0.0935
     26 C         -11.5917  -17.7748   21.7717 C.3     1  UNL1        0.0233
     27 C         -11.5642  -18.0137   23.2524 C.3     1  UNL1        0.0233
     28 C         -10.3702  -17.3012   23.8148 C.3     1  UNL1        0.0935
@<TRIPOS>BOND
     1    22    23    2
     2    23    21    1
     3    21    19    1
     4    19    18    1
     5    18     1    1
     6     1     2    1
     7     1     3    1
     8     1     4    1
     9     4     5   ar
    10     5     6   ar
    11     6     7   ar
    12     7     8   ar
    13     8    10    1
    14    10    11    1
    15    11    12    1
    16    12    13    1
    17    13    14    1
    18    14    15    1
    19    14    16    1
    20    14    17    1
    21     8     9   ar
    22    23    24   am
    23    24    25    1
    24    25    26    1
    25    26    27    1
    26    27    28    1
    27     9     4   ar
    28    28    24    1
    29    19    20    1
@<TRIPOS>MOLECULE
*****
 28 29 0 0 0
SMALL
GASTEIGER

@<TRIPOS>ATOM
      1 C          -8.2058  -19.5578   20.3424 C.3     1  UNL1        0.2969
      2 F          -7.9187  -19.2646   18.8996 F       1  UNL1       -0.1981
      3 F          -8.4930  -19.8510   21.7851 F       1  UNL1       -0.1981
      4 C          -6.7343  -19.6623   20.6141 C.ar    1  UNL1        0.0422
      5 C          -5.9029  -20.6627   19.8672 C.ar    1  UNL1        0.0012
      6 C          -4.4314  -20.7671   20.1389 C.ar    1  UNL1        0.0030
      7 C          -3.7914  -19.8712   21.1576 C.ar    1  UNL1        0.0369
      8 C          -4.6228  -18.8707   21.9044 C.ar    1  UNL1        0.1384
      9 C          -6.0943  -18.7663   21.6327 C.ar    1  UNL1        0.0379
     10 O          -3.9828  -17.9748   22.9231 O.3     1  UNL1       -0.4755
     11 C          -2.5506  -17.5591   22.7620 C.3     1  UNL1        0.2057
     12 C          -2.1888  -16.4764   21.7889 C.3     1  UNL1        0.0561
     13 C          -1.2340  -16.7636   20.6682 C.3     1  UNL1        0.1072
     14 C          -1.6141  -17.7340   19.5893 C.3     1  UNL1        0.3979
     15 F          -1.9941  -18.7044   18.5105 F       1  UNL1       -0.1700
     16 F          -0.3332  -18.4823   19.8113 F       1  UNL1       -0.1700
     17 F          -2.8950  -16.9856   19.3674 F       1  UNL1       -0.1700
     18 C          -9.6773  -19.4533   20.0707 C.3     1  UNL1        0.1409
     19 N         -10.2650  -18.1511   19.6136 N.3     1  UNL1       -0.2850
     20 H          -9.5565  -17.6936   19.0399 H       1  UNL1        0.1239
     21 C         -10.7243  -17.1404   20.6224 C.3     1  UNL1        0.1553
     22 O          -8.7973  -15.7645   21.6917 O.2     1  UNL1       -0.2734
     23 C          -9.8612  -16.8158   21.8054 C.2     1  UNL1        0.2418
     24 N         -10.0619  -17.5425   23.1022 N.am    1  UNL1       -0.2784
     25 C          -9.2798  -17.3270   24.3639 C.3     1  UNL1        0.0935
     26 C          -9.8144  -18.2636   25.4064 C.3     1  UNL1        0.0233
     27 C         -10.9271  -19.0580   24.7890 C.3     1  UNL1        0.0233
     28 C         -11.0799  -18.6123   23.3649 C.3     1  UNL1        0.0935
@<TRIPOS>BOND
     1    22    23    2
     2    23    21    1
     3    21    19    1
     4    19    18    1
     5    18     1    1
     6     1     2    1
     7     1     3    1
     8     1     4    1
     9     4     5   ar
    10     5     6   ar
    11     6     7   ar
    12     7     8   ar
    13     8    10    1
    14    10    11    1
    15    11    12    1
    16    12    13    1
    17    13    14    1
    18    14    15    1
    19    14    16    1
    20    14    17    1
    21     8     9   ar
    22    23    24   am
    23    24    25    1
    24    25    26    1
    25    26    27    1
    26    27    28    1
    27     9     4   ar
    28    28    24    1
    29    19    20    1
@<TRIPOS>MOLECULE
*****
 28 29 0 0 0
SMALL
GASTEIGER

@<TRIPOS>ATOM
      1 C          -6.3324  -18.7338   21.8740 C.3     1  UNL1        0.2969
      2 F          -7.1805  -18.5635   23.0994 F       1  UNL1       -0.1981
      3 F          -5.4844  -18.9041   20.6485 F       1  UNL1       -0.1981
      4 C          -7.5663  -18.9603   21.0515 C.ar    1  UNL1        0.0422
      5 C          -7.4774  -19.7144   19.7579 C.ar    1  UNL1        0.0012
      6 C          -8.7112  -19.9408   18.9355 C.ar    1  UNL1        0.0030
      7 C         -10.0339  -19.4132   19.4068 C.ar    1  UNL1        0.0369
      8 C         -10.1228  -18.6592   20.7004 C.ar    1  UNL1        0.1384
      9 C          -8.8890  -18.4328   21.5227 C.ar    1  UNL1        0.0379
     10 O         -11.4456  -18.1316   21.1716 O.3     1  UNL1       -0.4755
     11 C         -11.4986  -17.1211   22.2788 C.3     1  UNL1        0.2057
     12 C         -11.0421  -17.4948   23.6579 C.3     1  UNL1        0.0561
     13 C         -11.4139  -18.8285   24.2352 C.3     1  UNL1        0.1072
     14 C         -10.3702  -19.8939   24.3949 C.3     1  UNL1        0.3979
     15 F          -9.3264  -20.9593   24.5545 F       1  UNL1       -0.1700
     16 F          -9.8381  -19.1907   25.6083 F       1  UNL1       -0.1700
     17 F         -10.9023  -20.5970   23.1814 F       1  UNL1       -0.1700
     18 C          -5.0986  -18.5074   22.6963 C.3     1  UNL1        0.1409
     19 N          -4.4197  -17.1699   22.6775 N.3     1  UNL1       -0.2850
     20 H          -3.4218  -17.3445   22.7962 H       1  UNL1        0.1239
     21 C          -4.7986  -16.1223   23.6821 C.3     1  UNL1        0.1553
     22 O          -7.0832  -15.4284   22.6577 O.2     1  UNL1       -0.2734
     23 C          -6.2376  -15.7372   23.8576 C.2     1  UNL1        0.2418
     24 N          -6.8311  -15.6609   25.2331 N.am    1  UNL1       -0.2784
     25 C          -8.2471  -15.2919   25.5631 C.3     1  UNL1        0.0935
     26 C          -8.4040  -15.3431   27.0540 C.3     1  UNL1        0.0233
     27 C          -7.0849  -15.7437   27.6454 C.3     1  UNL1        0.0233
     28 C          -6.1129  -15.9401   26.5200 C.3     1  UNL1        0.0935
@<TRIPOS>BOND
     1    22    23    2
     2    23    21    1
     3    21    19    1
     4    19    18    1
     5    18     1    1
     6     1     2    1
     7     1     3    1
     8     1     4    1
     9     4     5   ar
    10     5     6   ar
    11     6     7   ar
    12     7     8   ar
    13     8    10    1
    14    10    11    1
    15    11    12    1
    16    12    13    1
    17    13    14    1
    18    14    15    1
    19    14    16    1
    20    14    17    1
    21     8     9   ar
    22    23    24   am
    23    24    25    1
    24    25    26    1
    25    26    27    1
    26    27    28    1
    27     9     4   ar
    28    28    24    1
    29    19    20    1
@<TRIPOS>MOLECULE
*****
 28 29 0 0 0
SMALL
GASTEIGER

@<TRIPOS>ATOM
      1 C          -6.7771  -19.4110   20.5488 C.3     1  UNL1        0.2969
      2 F          -6.7886  -18.1825   21.4092 F       1  UNL1       -0.1981
      3 F          -6.7656  -20.6396   19.6883 F       1  UNL1       -0.1981
      4 C          -8.2748  -19.4675   20.6093 C.ar    1  UNL1        0.0422
      5 C          -9.0740  -19.5512   19.3427 C.ar    1  UNL1        0.0012
      6 C         -10.5717  -19.6077   19.4032 C.ar    1  UNL1        0.0030
      7 C         -11.2702  -19.5804   20.7304 C.ar    1  UNL1        0.0369
      8 C         -10.4710  -19.4967   21.9970 C.ar    1  UNL1        0.1384
      9 C          -8.9734  -19.4402   21.9364 C.ar    1  UNL1        0.0379
     10 O         -11.1696  -19.4694   23.3241 O.3     1  UNL1       -0.4755
     11 C         -11.7320  -18.1819   23.8493 C.3     1  UNL1        0.2057
     12 C         -11.1523  -16.8726   23.4025 C.3     1  UNL1        0.0561
     13 C         -11.8666  -16.0486   22.3725 C.3     1  UNL1        0.1072
     14 C         -11.4650  -16.1382   20.9300 C.3     1  UNL1        0.3979
     15 F         -11.0635  -16.2278   19.4876 F       1  UNL1       -0.1700
     16 F         -10.0245  -16.2345   21.3370 F       1  UNL1       -0.1700
     17 F         -12.9056  -16.0419   20.5230 F       1  UNL1       -0.1700
     18 C          -5.2794  -19.3546   20.4882 C.3     1  UNL1        0.1409
     19 N          -4.4602  -20.0063   21.5626 N.3     1  UNL1       -0.2850
     20 H          -5.0443  -20.7314   21.9792 H       1  UNL1        0.1239
     21 C          -3.9171  -19.1846   22.6940 C.3     1  UNL1        0.1553
     22 O          -3.9368  -16.6190   23.1035 O.2     1  UNL1       -0.2734
     23 C          -3.3498  -17.8220   22.4264 C.2     1  UNL1        0.2418
     24 N          -2.1956  -17.6624   21.4819 N.am    1  UNL1       -0.2784
     25 C          -1.5264  -16.3702   21.1179 C.3     1  UNL1        0.0935
     26 C          -0.4251  -16.6761   20.1464 C.3     1  UNL1        0.0233
     27 C          -0.4138  -18.1574   19.9100 C.3     1  UNL1        0.0233
     28 C          -1.5080  -18.7669   20.7354 C.3     1  UNL1        0.0935
@<TRIPOS>BOND
     1    22    23    2
     2    23    21    1
     3    21    19    1
     4    19    18    1
     5    18     1    1
     6     1     2    1
     7     1     3    1
     8     1     4    1
     9     4     5   ar
    10     5     6   ar
    11     6     7   ar
    12     7     8   ar
    13     8    10    1
    14    10    11    1
    15    11    12    1
    16    12    13    1
    17    13    14    1
    18    14    15    1
    19    14    16    1
    20    14    17    1
    21     8     9   ar
    22    23    24   am
    23    24    25    1
    24    25    26    1
    25    26    27    1
    26    27    28    1
    27     9     4   ar
    28    28    24    1
    29    19    20    1
@<TRIPOS>MOLECULE
*****
 28 29 0 0 0
SMALL
GASTEIGER

@<TRIPOS>ATOM
      1 C          -7.6034  -16.5215   23.5082 C.3     1  UNL1        0.2969
      2 F          -7.2525  -16.5210   22.0499 F       1  UNL1       -0.1981
      3 F          -7.9543  -16.5220   24.9666 F       1  UNL1       -0.1981
      4 C          -8.5888  -17.6273   23.2708 C.ar    1  UNL1        0.0422
      5 C          -8.4175  -18.5452   22.0969 C.ar    1  UNL1        0.0012
      6 C          -9.4029  -19.6509   21.8595 C.ar    1  UNL1        0.0030
      7 C         -10.5595  -19.8387   22.7960 C.ar    1  UNL1        0.0369
      8 C         -10.7307  -18.9208   23.9699 C.ar    1  UNL1        0.1384
      9 C          -9.7454  -17.8151   24.2073 C.ar    1  UNL1        0.0379
     10 O         -11.8873  -19.1086   24.9064 O.3     1  UNL1       -0.4755
     11 C         -13.1711  -18.3697   24.6703 C.3     1  UNL1        0.2057
     12 C         -13.5134  -17.8816   23.2938 C.3     1  UNL1        0.0561
     13 C         -12.7926  -16.6997   22.7163 C.3     1  UNL1        0.1072
     14 C         -12.0841  -16.8231   21.3999 C.3     1  UNL1        0.3979
     15 F         -11.3757  -16.9465   20.0835 F       1  UNL1       -0.1700
     16 F         -12.8719  -18.0619   21.0922 F       1  UNL1       -0.1700
     17 F         -11.2964  -15.5842   21.7077 F       1  UNL1       -0.1700
     18 C          -6.6180  -15.4158   23.7457 C.3     1  UNL1        0.1409
     19 N          -5.1823  -15.5925   23.3489 N.3     1  UNL1       -0.2850
     20 H          -5.1509  -15.5491   22.3303 H       1  UNL1        0.1239
     21 C          -4.4397  -16.8317   23.7527 C.3     1  UNL1        0.1553
     22 O          -4.9332  -19.1359   22.6585 O.2     1  UNL1       -0.2734
     23 C          -4.1167  -17.8795   22.7291 C.2     1  UNL1        0.2418
     24 N          -2.9773  -17.6710   21.7760 N.am    1  UNL1       -0.2784
     25 C          -2.5381  -18.6246   20.7048 C.3     1  UNL1        0.0935
     26 C          -1.3664  -18.0152   19.9936 C.3     1  UNL1        0.0233
     27 C          -1.0816  -16.6848   20.6253 C.3     1  UNL1        0.0233
     28 C          -2.0772  -16.4721   21.7269 C.3     1  UNL1        0.0935
@<TRIPOS>BOND
     1    22    23    2
     2    23    21    1
     3    21    19    1
     4    19    18    1
     5    18     1    1
     6     1     2    1
     7     1     3    1
     8     1     4    1
     9     4     5   ar
    10     5     6   ar
    11     6     7   ar
    12     7     8   ar
    13     8    10    1
    14    10    11    1
    15    11    12    1
    16    12    13    1
    17    13    14    1
    18    14    15    1
    19    14    16    1
    20    14    17    1
    21     8     9   ar
    22    23    24   am
    23    24    25    1
    24    25    26    1
    25    26    27    1
    26    27    28    1
    27     9     4   ar
    28    28    24    1
    29    19    20    1
@<TRIPOS>MOLECULE
*****
 28 29 0 0 0
SMALL
GASTEIGER

@<TRIPOS>ATOM
      1 C          -7.6116  -16.1437   24.2631 C.3     1  UNL1        0.2969
      2 F          -7.4272  -16.4785   22.8127 F       1  UNL1       -0.1981
      3 F          -7.7959  -15.8088   25.7136 F       1  UNL1       -0.1981
      4 C          -8.8978  -16.9155   24.2778 C.ar    1  UNL1        0.0422
      5 C          -9.0977  -18.0210   25.2717 C.ar    1  UNL1        0.0012
      6 C         -10.3838  -18.7927   25.2863 C.ar    1  UNL1        0.0030
      7 C         -11.4700  -18.4589   24.3072 C.ar    1  UNL1        0.0369
      8 C         -11.2701  -17.3534   23.3134 C.ar    1  UNL1        0.1384
      9 C          -9.9840  -16.5816   23.2987 C.ar    1  UNL1        0.0379
     10 O         -12.3563  -17.0196   22.3342 O.3     1  UNL1       -0.4755
     11 C         -12.5254  -17.8432   21.0921 C.3     1  UNL1        0.2057
     12 C         -11.5199  -18.9031   20.7523 C.3     1  UNL1        0.0561
     13 C         -10.4795  -18.6415   19.7039 C.3     1  UNL1        0.1072
     14 C          -9.1640  -19.3603   19.7569 C.3     1  UNL1        0.3979
     15 F          -7.8485  -20.0791   19.8100 F       1  UNL1       -0.1700
     16 F          -9.6021  -20.2455   18.6280 F       1  UNL1       -0.1700
     17 F          -8.7258  -18.4751   20.8858 F       1  UNL1       -0.1700
     18 C          -6.3255  -15.3719   24.2484 C.3     1  UNL1        0.1409
     19 N          -5.1925  -15.8188   23.3729 N.3     1  UNL1       -0.2850
     20 H          -5.6035  -16.1131   22.4869 H       1  UNL1        0.1239
     21 C          -4.2907  -16.9301   23.8222 C.3     1  UNL1        0.1553
     22 O          -4.5463  -19.3442   22.8963 O.2     1  UNL1       -0.2734
     23 C          -3.8804  -18.0006   22.8549 C.2     1  UNL1        0.2418
     24 N          -2.8043  -17.7277   21.8462 N.am    1  UNL1       -0.2784
     25 C          -2.2911  -18.6948   20.8209 C.3     1  UNL1        0.0935
     26 C          -1.2221  -18.0045   20.0267 C.3     1  UNL1        0.0233
     27 C          -1.0745  -16.6108   20.5614 C.3     1  UNL1        0.0233
     28 C          -2.0524  -16.4397   21.6859 C.3     1  UNL1        0.0935
@<TRIPOS>BOND
     1    22    23    2
     2    23    21    1
     3    21    19    1
     4    19    18    1
     5    18     1    1
     6     1     2    1
     7     1     3    1
     8     1     4    1
     9     4     5   ar
    10     5     6   ar
    11     6     7   ar
    12     7     8   ar
    13     8    10    1
    14    10    11    1
    15    11    12    1
    16    12    13    1
    17    13    14    1
    18    14    15    1
    19    14    16    1
    20    14    17    1
    21     8     9   ar
    22    23    24   am
    23    24    25    1
    24    25    26    1
    25    26    27    1
    26    27    28    1
    27     9     4   ar
    28    28    24    1
    29    19    20    1
