@<TRIPOS>MOLECULE
*****
 24 26 0 0 0
SMALL
GASTEIGER

@<TRIPOS>ATOM
      1 C          -3.7568  -18.6974   21.8574 C.ar    1  UNL1        0.1889
      2 C          -4.2479  -19.7584   20.9178 C.ar    1  UNL1        0.1403
      3 N          -5.7205  -19.9491   20.7055 N.ar    1  UNL1       -0.2204
      4 C          -6.7020  -19.0786   21.4328 C.ar    1  UNL1        0.1816
      5 N          -6.2109  -18.0176   22.3724 N.ar    1  UNL1       -0.2074
      6 C          -4.7383  -17.8270   22.5847 C.ar    1  UNL1        0.1663
      7 C          -8.1746  -19.2693   21.2205 C.ar    1  UNL1        0.1170
      8 C          -9.0656  -19.5850   22.3851 C.ar    1  UNL1        0.0223
      9 C         -10.5382  -19.7757   22.1728 C.ar    1  UNL1        0.0032
     10 C         -11.1198  -19.6505   20.7958 C.ar    1  UNL1        0.0207
     11 C         -10.2288  -19.3348   19.6312 C.ar    1  UNL1        0.0989
     12 N          -8.7562  -19.1441   19.8435 N.ar    1  UNL1       -0.2407
     13 C          -1.4022  -18.1328   20.9155 C.3     1  UNL1        0.2527
     14 O          -2.2842  -18.5068   22.0698 O.3     1  UNL1       -0.4670
     15 N          -4.2472  -16.7658   23.5244 N.pl3   1  UNL1       -0.3119
     16 H          -3.3912  -16.8840   23.9963 H       1  UNL1        0.1486
     17 C          -5.0602  -15.5247   23.7450 C.3     1  UNL1        0.1177
     18 C          -6.1033  -15.4931   24.8225 C.ar    1  UNL1        0.0249
     19 C          -5.6943  -15.5541   26.2643 C.ar    1  UNL1       -0.0004
     20 C          -6.7375  -15.5225   27.3418 C.ar    1  UNL1       -0.0001
     21 C          -8.1895  -15.4299   26.9774 C.ar    1  UNL1        0.0023
     22 C          -8.5985  -15.3689   25.5355 C.ar    1  UNL1        0.0294
     23 C          -7.5554  -15.4005   24.4580 C.ar    1  UNL1        0.1377
     24 F          -7.9644  -15.3396   23.0162 F       1  UNL1       -0.2044
@<TRIPOS>BOND
     1    13    14    1
     2    14     1    1
     3     1     2   ar
     4     2     3   ar
     5     3     4   ar
     6     4     7    1
     7     7     8   ar
     8     8     9   ar
     9     9    10   ar
    10    10    11   ar
    11    11    12   ar
    12     4     5   ar
    13     5     6   ar
    14     6    15    1
    15    15    17    1
    16    17    18    1
    17    18    19   ar
    18    19    20   ar
    19    20    21   ar
    20    21    22   ar
    21    22    23   ar
    22    23    24    1
    23     6     1   ar
    24    23    18   ar
    25    12     7   ar
    26    15    16    1
@<TRIPOS>MOLECULE
*****
 24 26 0 0 0
SMALL
GASTEIGER

@<TRIPOS>ATOM
      1 C         -10.2754  -18.3530   21.3385 C.ar    1  UNL1        0.1889
      2 C          -9.6966  -18.8679   20.0540 C.ar    1  UNL1        0.1403
      3 N          -8.2298  -19.1668   19.9590 N.ar    1  UNL1       -0.2204
      4 C          -7.3417  -18.9507   21.1483 C.ar    1  UNL1        0.1816
      5 N          -7.9205  -18.4358   22.4328 N.ar    1  UNL1       -0.2074
      6 C          -9.3874  -18.1369   22.5278 C.ar    1  UNL1        0.1663
      7 C          -5.8749  -19.2496   21.0533 C.ar    1  UNL1        0.1170
      8 C          -5.3929  -20.3712   20.1817 C.ar    1  UNL1        0.0223
      9 C          -3.9261  -20.6701   20.0867 C.ar    1  UNL1        0.0032
     10 C          -2.9412  -19.8473   20.8631 C.ar    1  UNL1        0.0207
     11 C          -3.4231  -18.7257   21.7347 C.ar    1  UNL1        0.0989
     12 N          -4.8900  -18.4268   21.8298 N.ar    1  UNL1       -0.2407
     13 C         -12.2525  -16.6855   21.0923 C.3     1  UNL1        0.2527
     14 O         -11.7423  -18.0541   21.4335 O.3     1  UNL1       -0.4670
     15 N          -9.9661  -17.6220   23.8124 N.pl3   1  UNL1       -0.3119
     16 H         -10.5382  -18.2041   24.3628 H       1  UNL1        0.1486
     17 C          -9.6732  -16.2200   24.2581 C.3     1  UNL1        0.1177
     18 C          -8.4071  -15.9193   25.0041 C.ar    1  UNL1        0.0249
     19 C          -8.3497  -16.1085   26.4910 C.ar    1  UNL1       -0.0004
     20 C          -7.0835  -15.8078   27.2370 C.ar    1  UNL1       -0.0001
     21 C          -5.8749  -15.3178   26.4961 C.ar    1  UNL1        0.0023
     22 C          -5.9323  -15.1285   25.0092 C.ar    1  UNL1        0.0294
     23 C          -7.1984  -15.4292   24.2632 C.ar    1  UNL1        0.1377
     24 F          -7.2558  -15.2400   22.7763 F       1  UNL1       -0.2044
@<TRIPOS>BOND
     1    13    14    1
     2    14     1    1
     3     1     2   ar
     4     2     3   ar
     5     3     4   ar
     6     4     7    1
     7     7     8   ar
     8     8     9   ar
     9     9    10   ar
    10    10    11   ar
    11    11    12   ar
    12     4     5   ar
    13     5     6   ar
    14     6    15    1
    15    15    17    1
    16    17    18    1
    17    18    19   ar
    18    19    20   ar
    19    20    21   ar
    20    21    22   ar
    21    22    23   ar
    22    23    24    1
    23     6     1   ar
    24    23    18   ar
    25    12     7   ar
    26    15    16    1
@<TRIPOS>MOLECULE
*****
 24 26 0 0 0
SMALL
GASTEIGER

@<TRIPOS>ATOM
      1 C          -6.9176  -15.7345   24.8424 C.ar    1  UNL1        0.1889
      2 C          -8.4146  -15.7734   24.9268 C.ar    1  UNL1        0.1403
      3 N          -9.2105  -16.4281   23.8368 N.ar    1  UNL1       -0.2204
      4 C          -8.5093  -17.0438   22.6625 C.ar    1  UNL1        0.1816
      5 N          -7.0122  -17.0049   22.5781 N.ar    1  UNL1       -0.2074
      6 C          -6.2163  -16.3502   23.6681 C.ar    1  UNL1        0.1663
      7 C          -9.3052  -17.6984   21.5725 C.ar    1  UNL1        0.1170
      8 C          -8.7690  -18.9164   20.8804 C.ar    1  UNL1        0.0223
      9 C          -9.5649  -19.5710   19.7904 C.ar    1  UNL1        0.0032
     10 C         -10.8969  -19.0077   19.3925 C.ar    1  UNL1        0.0207
     11 C         -11.4331  -17.7898   20.0847 C.ar    1  UNL1        0.0989
     12 N         -10.6372  -17.1351   21.1746 N.ar    1  UNL1       -0.2407
     13 C          -6.5893  -15.1619   27.3552 C.3     1  UNL1        0.2527
     14 O          -6.1217  -15.0799   25.9324 O.3     1  UNL1       -0.4670
     15 N          -4.7192  -16.3113   23.5837 N.pl3   1  UNL1       -0.3119
     16 H          -4.2460  -15.4490   23.6256 H       1  UNL1        0.1486
     17 C          -3.9430  -17.5863   23.4353 C.3     1  UNL1        0.1177
     18 C          -3.4798  -18.0288   22.0790 C.ar    1  UNL1        0.0249
     19 C          -4.0325  -19.2832   21.4700 C.ar    1  UNL1       -0.0004
     20 C          -3.5693  -19.7258   20.1137 C.ar    1  UNL1       -0.0001
     21 C          -2.5533  -18.9139   19.3663 C.ar    1  UNL1        0.0023
     22 C          -2.0005  -17.6594   19.9753 C.ar    1  UNL1        0.0294
     23 C          -2.4637  -17.2169   21.3316 C.ar    1  UNL1        0.1377
     24 F          -1.9110  -15.9625   21.9405 F       1  UNL1       -0.2044
@<TRIPOS>BOND
     1    13    14    1
     2    14     1    1
     3     1     2   ar
     4     2     3   ar
     5     3     4   ar
     6     4     7    1
     7     7     8   ar
     8     8     9   ar
     9     9    10   ar
    10    10    11   ar
    11    11    12   ar
    12     4     5   ar
    13     5     6   ar
    14     6    15    1
    15    15    17    1
    16    17    18    1
    17    18    19   ar
    18    19    20   ar
    19    20    21   ar
    20    21    22   ar
    21    22    23   ar
    22    23    24    1
    23     6     1   ar
    24    23    18   ar
    25    12     7   ar
    26    15    16    1
@<TRIPOS>MOLECULE
*****
 24 26 0 0 0
SMALL
GASTEIGER

@<TRIPOS>ATOM
      1 C          -6.6816  -15.5497   25.6371 C.ar    1  UNL1        0.1889
      2 C          -5.3101  -15.9058   26.1288 C.ar    1  UNL1        0.1403
      3 N          -4.2853  -16.4390   25.1720 N.ar    1  UNL1       -0.2204
      4 C          -4.6320  -16.6160   23.7235 C.ar    1  UNL1        0.1816
      5 N          -6.0036  -16.2598   23.2317 N.ar    1  UNL1       -0.2074
      6 C          -7.0284  -15.7267   24.1885 C.ar    1  UNL1        0.1663
      7 C          -3.6072  -17.1492   22.7667 C.ar    1  UNL1        0.1170
      8 C          -3.4727  -18.6287   22.5594 C.ar    1  UNL1        0.0223
      9 C          -2.4479  -19.1619   21.6026 C.ar    1  UNL1        0.0032
     10 C          -1.5576  -18.2156   20.8530 C.ar    1  UNL1        0.0207
     11 C          -1.6921  -16.7361   21.0603 C.ar    1  UNL1        0.0989
     12 N          -2.7170  -16.2029   22.0171 N.ar    1  UNL1       -0.2407
     13 C          -8.4323  -15.9527   27.5140 C.3     1  UNL1        0.2527
     14 O          -7.7064  -15.0165   26.5939 O.3     1  UNL1       -0.4670
     15 N          -8.4001  -15.3705   23.6967 N.pl3   1  UNL1       -0.3119
     16 H          -8.8534  -14.5674   24.0414 H       1  UNL1        0.1486
     17 C          -9.0809  -16.2378   22.6798 C.3     1  UNL1        0.1177
     18 C         -10.4137  -16.8521   22.9898 C.ar    1  UNL1        0.0249
     19 C         -11.6377  -16.4016   22.2487 C.ar    1  UNL1       -0.0004
     20 C         -12.9706  -17.0159   22.5588 C.ar    1  UNL1       -0.0001
     21 C         -13.0795  -18.0806   23.6097 C.ar    1  UNL1        0.0023
     22 C         -11.8556  -18.5310   24.3507 C.ar    1  UNL1        0.0294
     23 C         -10.5227  -17.9168   24.0408 C.ar    1  UNL1        0.1377
     24 F          -9.2988  -18.3672   24.7818 F       1  UNL1       -0.2044
@<TRIPOS>BOND
     1    13    14    1
     2    14     1    1
     3     1     2   ar
     4     2     3   ar
     5     3     4   ar
     6     4     7    1
     7     7     8   ar
     8     8     9   ar
     9     9    10   ar
    10    10    11   ar
    11    11    12   ar
    12     4     5   ar
    13     5     6   ar
    14     6    15    1
    15    15    17    1
    16    17    18    1
    17    18    19   ar
    18    19    20   ar
    19    20    21   ar
    20    21    22   ar
    21    22    23   ar
    22    23    24    1
    23     6     1   ar
    24    23    18   ar
    25    12     7   ar
    26    15    16    1
@<TRIPOS>MOLECULE
*****
 24 26 0 0 0
SMALL
GASTEIGER

@<TRIPOS>ATOM
      1 C          -7.8606  -16.0361   24.6415 C.ar    1  UNL1        0.1889
      2 C          -6.4472  -15.7730   24.2138 C.ar    1  UNL1        0.1403
      3 N          -5.7676  -16.7055   23.2554 N.ar    1  UNL1       -0.2204
      4 C          -6.5015  -17.9012   22.7246 C.ar    1  UNL1        0.1816
      5 N          -7.9149  -18.1643   23.1522 N.ar    1  UNL1       -0.2074
      6 C          -8.5945  -17.2318   24.1107 C.ar    1  UNL1        0.1663
      7 C          -5.8220  -18.8337   21.7662 C.ar    1  UNL1        0.1170
      8 C          -6.5169  -20.0847   21.3169 C.ar    1  UNL1        0.0223
      9 C          -5.8373  -21.0173   20.3585 C.ar    1  UNL1        0.0032
     10 C          -4.4628  -20.6987   19.8493 C.ar    1  UNL1        0.0207
     11 C          -3.7679  -19.4477   20.2986 C.ar    1  UNL1        0.0989
     12 N          -4.4475  -18.5152   21.2570 N.ar    1  UNL1       -0.2407
     13 C          -8.3606  -15.2854   27.0779 C.3     1  UNL1        0.2527
     14 O          -8.5402  -15.1036   25.5999 O.3     1  UNL1       -0.4670
     15 N         -10.0080  -17.4949   24.5383 N.pl3   1  UNL1       -0.3119
     16 H         -10.3376  -17.1388   25.3949 H       1  UNL1        0.1486
     17 C         -10.9193  -18.3008   23.6608 C.3     1  UNL1        0.1177
     18 C         -11.0944  -17.9282   22.2184 C.ar    1  UNL1        0.0249
     19 C         -10.6849  -18.8880   21.1408 C.ar    1  UNL1       -0.0004
     20 C         -10.8600  -18.5153   19.6984 C.ar    1  UNL1       -0.0001
     21 C         -11.4446  -17.1830   19.3336 C.ar    1  UNL1        0.0023
     22 C         -11.8541  -16.2232   20.4112 C.ar    1  UNL1        0.0294
     23 C         -11.6790  -16.5958   21.8536 C.ar    1  UNL1        0.1377
     24 F         -12.0886  -15.6361   22.9311 F       1  UNL1       -0.2044
@<TRIPOS>BOND
     1    13    14    1
     2    14     1    1
     3     1     2   ar
     4     2     3   ar
     5     3     4   ar
     6     4     7    1
     7     7     8   ar
     8     8     9   ar
     9     9    10   ar
    10    10    11   ar
    11    11    12   ar
    12     4     5   ar
    13     5     6   ar
    14     6    15    1
    15    15    17    1
    16    17    18    1
    17    18    19   ar
    18    19    20   ar
    19    20    21   ar
    20    21    22   ar
    21    22    23   ar
    22    23    24    1
    23     6     1   ar
    24    23    18   ar
    25    12     7   ar
    26    15    16    1
@<TRIPOS>MOLECULE
*****
 24 26 0 0 0
SMALL
GASTEIGER

@<TRIPOS>ATOM
      1 C          -6.7040  -15.5805   25.3607 C.ar    1  UNL1        0.1889
      2 C          -5.3152  -15.9287   25.8079 C.ar    1  UNL1        0.1403
      3 N          -4.3957  -16.6747   24.8870 N.ar    1  UNL1       -0.2204
      4 C          -4.8650  -17.0725   23.5190 C.ar    1  UNL1        0.1816
      5 N          -6.2538  -16.7244   23.0719 N.ar    1  UNL1       -0.2074
      6 C          -7.1733  -15.9784   23.9927 C.ar    1  UNL1        0.1663
      7 C          -3.9455  -17.8186   22.5982 C.ar    1  UNL1        0.1170
      8 C          -2.5996  -17.2496   22.2595 C.ar    1  UNL1        0.0223
      9 C          -1.6801  -17.9957   21.3387 C.ar    1  UNL1        0.0032
     10 C          -2.1065  -19.3106   20.7565 C.ar    1  UNL1        0.0207
     11 C          -3.4524  -19.8796   21.0952 C.ar    1  UNL1        0.0989
     12 N          -4.3719  -19.1336   22.0161 N.ar    1  UNL1       -0.2407
     13 C          -8.3259  -15.5607   27.3902 C.3     1  UNL1        0.2527
     14 O          -7.6235  -14.8345   26.2816 O.3     1  UNL1       -0.4670
     15 N          -8.5622  -15.6302   23.5455 N.pl3   1  UNL1       -0.3119
     16 H          -8.7198  -14.8124   23.0206 H       1  UNL1        0.1486
     17 C          -9.7108  -16.5281   23.8982 C.3     1  UNL1        0.1177
     18 C         -10.1683  -17.5767   22.9281 C.ar    1  UNL1        0.0249
     19 C         -10.2364  -19.0135   23.3535 C.ar    1  UNL1       -0.0004
     20 C         -10.6939  -20.0621   22.3834 C.ar    1  UNL1       -0.0001
     21 C         -11.0834  -19.6739   20.9878 C.ar    1  UNL1        0.0023
     22 C         -11.0154  -18.2371   20.5624 C.ar    1  UNL1        0.0294
     23 C         -10.5579  -17.1885   21.5325 C.ar    1  UNL1        0.1377
     24 F         -10.4898  -15.7517   21.1070 F       1  UNL1       -0.2044
@<TRIPOS>BOND
     1    13    14    1
     2    14     1    1
     3     1     2   ar
     4     2     3   ar
     5     3     4   ar
     6     4     7    1
     7     7     8   ar
     8     8     9   ar
     9     9    10   ar
    10    10    11   ar
    11    11    12   ar
    12     4     5   ar
    13     5     6   ar
    14     6    15    1
    15    15    17    1
    16    17    18    1
    17    18    19   ar
    18    19    20   ar
    19    20    21   ar
    20    21    22   ar
    21    22    23   ar
    22    23    24    1
    23     6     1   ar
    24    23    18   ar
    25    12     7   ar
    26    15    16    1
@<TRIPOS>MOLECULE
*****
 24 26 0 0 0
SMALL
GASTEIGER

@<TRIPOS>ATOM
      1 C          -5.2345  -17.3858   23.1416 C.ar    1  UNL1        0.1889
      2 C          -5.9960  -16.2141   23.6868 C.ar    1  UNL1        0.1403
      3 N          -7.4948  -16.2013   23.6293 N.ar    1  UNL1       -0.2204
      4 C          -8.2322  -17.3602   23.0265 C.ar    1  UNL1        0.1816
      5 N          -7.4707  -18.5318   22.4814 N.ar    1  UNL1       -0.2074
      6 C          -5.9718  -18.5446   22.5389 C.ar    1  UNL1        0.1663
      7 C          -9.7310  -17.3473   22.9690 C.ar    1  UNL1        0.1170
      8 C         -10.5135  -18.4901   23.5450 C.ar    1  UNL1        0.0223
      9 C         -12.0123  -18.4772   23.4875 C.ar    1  UNL1        0.0032
     10 C         -12.7287  -17.3217   22.8539 C.ar    1  UNL1        0.0207
     11 C         -11.9462  -16.1790   22.2778 C.ar    1  UNL1        0.0989
     12 N         -10.4474  -16.1918   22.3354 N.ar    1  UNL1       -0.2407
     13 C          -2.9491  -16.3306   22.4989 C.3     1  UNL1        0.2527
     14 O          -3.7357  -17.3986   23.1992 O.3     1  UNL1       -0.4670
     15 N          -5.2103  -19.7164   21.9937 N.pl3   1  UNL1       -0.3119
     16 H          -4.9730  -20.4673   22.5846 H       1  UNL1        0.1486
     17 C          -4.8105  -19.7441   20.5482 C.3     1  UNL1        0.1177
     18 C          -3.5450  -19.0704   20.1071 C.ar    1  UNL1        0.0249
     19 C          -3.5719  -18.0974   18.9658 C.ar    1  UNL1       -0.0004
     20 C          -2.3063  -17.4237   18.5246 C.ar    1  UNL1       -0.0001
     21 C          -1.0140  -17.7230   19.2247 C.ar    1  UNL1        0.0023
     22 C          -0.9871  -18.6961   20.3660 C.ar    1  UNL1        0.0294
     23 C          -2.2526  -19.3697   20.8072 C.ar    1  UNL1        0.1377
     24 F          -2.2257  -20.3428   21.9484 F       1  UNL1       -0.2044
@<TRIPOS>BOND
     1    13    14    1
     2    14     1    1
     3     1     2   ar
     4     2     3   ar
     5     3     4   ar
     6     4     7    1
     7     7     8   ar
     8     8     9   ar
     9     9    10   ar
    10    10    11   ar
    11    11    12   ar
    12     4     5   ar
    13     5     6   ar
    14     6    15    1
    15    15    17    1
    16    17    18    1
    17    18    19   ar
    18    19    20   ar
    19    20    21   ar
    20    21    22   ar
    21    22    23   ar
    22    23    24    1
    23     6     1   ar
    24    23    18   ar
    25    12     7   ar
    26    15    16    1
@<TRIPOS>MOLECULE
*****
 24 26 0 0 0
SMALL
GASTEIGER

@<TRIPOS>ATOM
      1 C          -7.0407  -16.9701   23.6684 C.ar    1  UNL1        0.1889
      2 C          -5.8914  -16.0331   23.8945 C.ar    1  UNL1        0.1403
      3 N          -4.5874  -16.2617   23.1894 N.ar    1  UNL1       -0.2204
      4 C          -4.4326  -17.4274   22.2581 C.ar    1  UNL1        0.1816
      5 N          -5.5819  -18.3643   22.0320 N.ar    1  UNL1       -0.2074
      6 C          -6.8859  -18.1357   22.7371 C.ar    1  UNL1        0.1663
      7 C          -3.1286  -17.6560   21.5529 C.ar    1  UNL1        0.1170
      8 C          -2.7012  -19.0498   21.1998 C.ar    1  UNL1        0.0223
      9 C          -1.3972  -19.2784   20.4947 C.ar    1  UNL1        0.0032
     10 C          -0.5205  -18.1133   20.1427 C.ar    1  UNL1        0.0207
     11 C          -0.9479  -16.7196   20.4958 C.ar    1  UNL1        0.0989
     12 N          -2.2519  -16.4909   21.2009 N.ar    1  UNL1       -0.2407
     13 C          -8.6005  -15.4399   25.0739 C.3     1  UNL1        0.2527
     14 O          -8.3447  -16.7414   24.3735 O.3     1  UNL1       -0.4670
     15 N          -8.0352  -19.0728   22.5109 N.pl3   1  UNL1       -0.3119
     16 H          -8.0805  -19.9241   23.0032 H       1  UNL1        0.1486
     17 C          -9.1156  -18.7126   21.5346 C.3     1  UNL1        0.1177
     18 C         -10.5017  -18.4166   22.0254 C.ar    1  UNL1        0.0249
     19 C         -10.8655  -18.6894   23.4548 C.ar    1  UNL1       -0.0004
     20 C         -12.2517  -18.3933   23.9456 C.ar    1  UNL1       -0.0001
     21 C         -13.2741  -17.8244   23.0069 C.ar    1  UNL1        0.0023
     22 C         -12.9103  -17.5516   21.5775 C.ar    1  UNL1        0.0294
     23 C         -11.5242  -17.8476   21.0867 C.ar    1  UNL1        0.1377
     24 F         -11.1604  -17.5748   19.6573 F       1  UNL1       -0.2044
@<TRIPOS>BOND
     1    13    14    1
     2    14     1    1
     3     1     2   ar
     4     2     3   ar
     5     3     4   ar
     6     4     7    1
     7     7     8   ar
     8     8     9   ar
     9     9    10   ar
    10    10    11   ar
    11    11    12   ar
    12     4     5   ar
    13     5     6   ar
    14     6    15    1
    15    15    17    1
    16    17    18    1
    17    18    19   ar
    18    19    20   ar
    19    20    21   ar
    20    21    22   ar
    21    22    23   ar
    22    23    24    1
    23     6     1   ar
    24    23    18   ar
    25    12     7   ar
    26    15    16    1
@<TRIPOS>MOLECULE
*****
 24 26 0 0 0
SMALL
GASTEIGER

@<TRIPOS>ATOM
      1 C         -10.6993   -5.8349   18.9743 C.ar    1  UNL1        0.1889
      2 C          -9.9623   -4.5440   18.7734 C.ar    1  UNL1        0.1403
      3 N         -10.7187   -3.2502   18.7123 N.ar    1  UNL1       -0.2204
      4 C         -12.2122   -3.2472   18.8521 C.ar    1  UNL1        0.1816
      5 N         -12.9492   -4.5381   19.0530 N.ar    1  UNL1       -0.2074
      6 C         -12.1927   -5.8319   19.1141 C.ar    1  UNL1        0.1663
      7 C         -12.9686   -1.9533   18.7911 C.ar    1  UNL1        0.1170
      8 C         -12.2834   -0.7055   18.3184 C.ar    1  UNL1        0.0223
      9 C         -13.0398    0.5883   18.2573 C.ar    1  UNL1        0.0032
     10 C         -14.4815    0.6344   18.6689 C.ar    1  UNL1        0.0207
     11 C         -15.1667   -0.6134   19.1416 C.ar    1  UNL1        0.0989
     12 N         -14.4103   -1.9072   19.2027 N.ar    1  UNL1       -0.2407
     13 C          -9.9440   -8.0546   17.8552 C.3     1  UNL1        0.2527
     14 O          -9.9429   -7.1288   19.0354 O.3     1  UNL1       -0.4670
     15 N         -12.9298   -7.1228   19.3150 N.pl3   1  UNL1       -0.3119
     16 H         -12.8389   -7.6148   20.1629 H       1  UNL1        0.1486
     17 C         -13.8054   -7.6642   18.2240 C.3     1  UNL1        0.1177
     18 C         -15.1082   -8.3244   18.5659 C.ar    1  UNL1        0.0249
     19 C         -15.3798   -9.7278   18.1113 C.ar    1  UNL1       -0.0004
     20 C         -16.6826  -10.3880   18.4533 C.ar    1  UNL1       -0.0001
     21 C         -17.7137   -9.6448   19.2498 C.ar    1  UNL1        0.0023
     22 C         -17.4420   -8.2414   19.7044 C.ar    1  UNL1        0.0294
     23 C         -16.1393   -7.5812   19.3625 C.ar    1  UNL1        0.1377
     24 F         -15.8677   -6.1778   19.8171 F       1  UNL1       -0.2044
@<TRIPOS>BOND
     1    13    14    1
     2    14     1    1
     3     1     2   ar
     4     2     3   ar
     5     3     4   ar
     6     4     7    1
     7     7     8   ar
     8     8     9   ar
     9     9    10   ar
    10    10    11   ar
    11    11    12   ar
    12     4     5   ar
    13     5     6   ar
    14     6    15    1
    15    15    17    1
    16    17    18    1
    17    18    19   ar
    18    19    20   ar
    19    20    21   ar
    20    21    22   ar
    21    22    23   ar
    22    23    24    1
    23     6     1   ar
    24    23    18   ar
    25    12     7   ar
    26    15    16    1
