@<TRIPOS>MOLECULE
*****
 31 35 0 0 0
SMALL
GASTEIGER

@<TRIPOS>ATOM
      1 O           0.8383    5.3983   18.8808 O.2     1  UNL1       -0.2749
      2 C           0.2134    4.0394   18.9938 C.2     1  UNL1        0.2252
      3 N           1.0741    2.8118   18.9457 N.am    1  UNL1       -0.2794
      4 C           2.5596    2.9432   18.7847 C.3     1  UNL1        0.0951
      5 C           3.4203    1.7157   18.7366 C.3     1  UNL1        0.0418
      6 C           2.7954    0.3566   18.8496 C.3     1  UNL1        0.0848
      7 C           1.3099    0.2253   19.0106 C.3     1  UNL1        0.0418
      8 C           0.4492    1.4529   19.0587 C.3     1  UNL1        0.0951
      9 N           3.6561   -0.8710   18.8016 N.am    1  UNL1       -0.2422
     10 C           4.2718   -1.4684   17.5712 C.2     1  UNL1        0.3310
     11 O           4.1350   -0.9433   16.1728 O.2     1  UNL1       -0.2501
     12 N           5.0484   -2.6833   17.9847 N.am    1  UNL1       -0.1647
     13 C           4.9126   -2.8367   19.4707 C.2     1  UNL1        0.0706
     14 C           5.4613   -3.8515   20.4292 C.3     1  UNL1        0.0705
     15 C           5.1496   -3.7463   21.8927 C.2     1  UNL1       -0.0199
     16 C           4.2891   -2.6261   22.3975 C.2     1  UNL1       -0.0029
     17 C           3.7403   -1.6113   21.4389 C.2     1  UNL1        0.0156
     18 C           4.0521   -1.7165   19.9755 C.2     1  UNL1        0.0668
     19 C          -1.2721    3.9080   19.1548 C.3     1  UNL1        0.0795
     20 C          -1.8552    3.5856   20.4986 C.3     1  UNL1        0.0264
     21 C          -3.3407    3.4542   20.6597 C.3     1  UNL1        0.0729
     22 N          -4.2432    3.6453   19.4768 N.3     1  UNL1       -0.2689
     23 C          -3.6600    3.9678   18.1329 C.3     1  UNL1        0.0729
     24 C          -2.1745    4.0991   17.9719 C.3     1  UNL1        0.0264
     25 C          -5.7287    3.5139   19.6378 C.3     1  UNL1        0.0992
     26 C          -6.4710    4.4523   20.5425 C.ar    1  UNL1       -0.0031
     27 C          -7.0256    5.7358   19.9994 C.ar    1  UNL1        0.0178
     28 C          -7.7679    6.6743   20.9040 C.ar    1  UNL1        0.0986
     29 N          -7.9556    6.3292   22.3516 N.ar    1  UNL1       -0.2423
     30 C          -7.4010    5.0456   22.8947 C.ar    1  UNL1        0.0986
     31 C          -6.6586    4.1072   21.9901 C.ar    1  UNL1        0.0178
@<TRIPOS>BOND
     1     1     2    2
     2     2    19    1
     3    19    20    1
     4    20    21    1
     5    21    22    1
     6    22    25    1
     7    25    26    1
     8    26    27   ar
     9    27    28   ar
    10    28    29   ar
    11    29    30   ar
    12    30    31   ar
    13    22    23    1
    14    23    24    1
    15     2     3   am
    16     3     4    1
    17     4     5    1
    18     5     6    1
    19     6     9    1
    20     9    10   am
    21    10    11    2
    22    10    12    1
    23    12    13    2
    24    13    14    1
    25    14    15    1
    26    15    16    2
    27    16    17    1
    28    17    18    2
    29     6     7    1
    30     7     8    1
    31    24    19    1
    32     8     3    1
    33    31    26   ar
    34    18     9    1
    35    18    13    1
@<TRIPOS>MOLECULE
*****
 31 35 0 0 0
SMALL
GASTEIGER

@<TRIPOS>ATOM
      1 O          -0.0776    4.9821   18.9180 O.2     1  UNL1       -0.2749
      2 C          -0.3475    3.7074   19.6612 C.2     1  UNL1        0.2252
      3 N           0.5870    2.5430   19.5170 N.am    1  UNL1       -0.2794
      4 C           1.7913    2.6533   18.6296 C.3     1  UNL1        0.0951
      5 C           2.7259    1.4888   18.4855 C.3     1  UNL1        0.0418
      6 C           2.4560    0.2141   19.2287 C.3     1  UNL1        0.0848
      7 C           1.2517    0.1039   20.1160 C.3     1  UNL1        0.0418
      8 C           0.3172    1.2683   20.2602 C.3     1  UNL1        0.0951
      9 N           3.3905   -0.9504   19.0845 N.am    1  UNL1       -0.2422
     10 C           3.9556   -1.4732   17.7971 C.2     1  UNL1        0.3310
     11 O           3.6854   -0.9235   16.4279 O.2     1  UNL1       -0.2501
     12 N           4.8383   -2.6424   18.1194 N.am    1  UNL1       -0.1647
     13 C           4.8189   -2.8421   19.6059 C.2     1  UNL1        0.0706
     14 C           5.5003   -3.8410   20.4935 C.3     1  UNL1        0.0705
     15 C           5.2869   -3.7942   21.9774 C.2     1  UNL1       -0.0199
     16 C           4.3921   -2.7485   22.5739 C.2     1  UNL1       -0.0029
     17 C           3.7107   -1.7496   21.6864 C.2     1  UNL1        0.0156
     18 C           3.9240   -1.7963   20.2024 C.2     1  UNL1        0.0668
     19 C          -1.5519    3.5971   20.5485 C.3     1  UNL1        0.0795
     20 C          -1.4063    3.7532   22.0333 C.3     1  UNL1        0.0264
     21 C          -2.6106    3.6430   22.9206 C.3     1  UNL1        0.0729
     22 N          -3.9605    3.3766   22.3232 N.3     1  UNL1       -0.2689
     23 C          -4.1061    3.2205   20.8384 C.3     1  UNL1        0.0729
     24 C          -2.9017    3.3308   19.9511 C.3     1  UNL1        0.0264
     25 C          -5.1649    3.2663   23.2106 C.3     1  UNL1        0.0992
     26 C          -5.1876    3.9700   24.5350 C.ar    1  UNL1       -0.0031
     27 C          -6.1272    5.1177   24.7585 C.ar    1  UNL1        0.0178
     28 C          -6.1501    5.8214   26.0829 C.ar    1  UNL1        0.0986
     29 N          -5.2332    5.3774   27.1840 N.ar    1  UNL1       -0.2423
     30 C          -4.2936    4.2297   26.9606 C.ar    1  UNL1        0.0986
     31 C          -4.2708    3.5260   25.6361 C.ar    1  UNL1        0.0178
@<TRIPOS>BOND
     1     1     2    2
     2     2    19    1
     3    19    20    1
     4    20    21    1
     5    21    22    1
     6    22    25    1
     7    25    26    1
     8    26    27   ar
     9    27    28   ar
    10    28    29   ar
    11    29    30   ar
    12    30    31   ar
    13    22    23    1
    14    23    24    1
    15     2     3   am
    16     3     4    1
    17     4     5    1
    18     5     6    1
    19     6     9    1
    20     9    10   am
    21    10    11    2
    22    10    12    1
    23    12    13    2
    24    13    14    1
    25    14    15    1
    26    15    16    2
    27    16    17    1
    28    17    18    2
    29     6     7    1
    30     7     8    1
    31    24    19    1
    32     8     3    1
    33    31    26   ar
    34    18     9    1
    35    18    13    1
@<TRIPOS>MOLECULE
*****
 31 35 0 0 0
SMALL
GASTEIGER

@<TRIPOS>ATOM
      1 O           9.1786   -3.1648   19.4333 O.2     1  UNL1       -0.2749
      2 C           7.9017   -3.0414   20.2106 C.2     1  UNL1        0.2252
      3 N           7.7933   -3.6517   21.5766 N.am    1  UNL1       -0.2794
      4 C           8.9618   -4.3853   22.1652 C.3     1  UNL1        0.0951
      5 C           8.8534   -4.9956   23.5311 C.3     1  UNL1        0.0418
      6 C           7.5764   -4.8723   24.3085 C.3     1  UNL1        0.0848
      7 C           6.4080   -4.1388   23.7199 C.3     1  UNL1        0.0418
      8 C           6.5164   -3.5285   22.3539 C.3     1  UNL1        0.0951
      9 N           7.4680   -5.4826   25.6744 N.am    1  UNL1       -0.2422
     10 C           7.6190   -6.9381   26.0043 C.2     1  UNL1        0.3310
     11 O           7.9048   -8.0388   25.0262 O.2     1  UNL1       -0.2501
     12 N           7.4339   -7.0995   27.4841 N.am    1  UNL1       -0.1647
     13 C           7.1686   -5.7438   28.0687 C.2     1  UNL1        0.0706
     14 C           6.9105   -5.2903   29.4750 C.3     1  UNL1        0.0705
     15 C           6.6735   -3.8374   29.7628 C.2     1  UNL1       -0.0199
     16 C           6.6946   -2.8381   28.6444 C.2     1  UNL1       -0.0029
     17 C           6.9527   -3.2916   27.2381 C.2     1  UNL1        0.0156
     18 C           7.1897   -4.7445   26.9503 C.2     1  UNL1        0.0668
     19 C           6.7331   -2.3079   19.6220 C.3     1  UNL1        0.0795
     20 C           5.7069   -3.0523   18.8204 C.3     1  UNL1        0.0264
     21 C           4.5384   -2.3188   18.2318 C.3     1  UNL1        0.0729
     22 N           4.3961   -0.8408   18.4449 N.3     1  UNL1       -0.2689
     23 C           5.4224   -0.0963   19.2466 C.3     1  UNL1        0.0729
     24 C           6.5909   -0.8299   19.8351 C.3     1  UNL1        0.0264
     25 C           3.2276   -0.1072   17.8563 C.3     1  UNL1        0.0992
     26 C           2.0804    0.3017   18.7319 C.ar    1  UNL1       -0.0031
     27 C           1.3526    1.5855   18.4635 C.ar    1  UNL1        0.0178
     28 C           0.2054    1.9945   19.3391 C.ar    1  UNL1        0.0986
     29 N          -0.2140    1.1196   20.4830 N.ar    1  UNL1       -0.2423
     30 C           0.5138   -0.1642   20.7514 C.ar    1  UNL1        0.0986
     31 C           1.6610   -0.5732   19.8758 C.ar    1  UNL1        0.0178
@<TRIPOS>BOND
     1     1     2    2
     2     2    19    1
     3    19    20    1
     4    20    21    1
     5    21    22    1
     6    22    25    1
     7    25    26    1
     8    26    27   ar
     9    27    28   ar
    10    28    29   ar
    11    29    30   ar
    12    30    31   ar
    13    22    23    1
    14    23    24    1
    15     2     3   am
    16     3     4    1
    17     4     5    1
    18     5     6    1
    19     6     9    1
    20     9    10   am
    21    10    11    2
    22    10    12    1
    23    12    13    2
    24    13    14    1
    25    14    15    1
    26    15    16    2
    27    16    17    1
    28    17    18    2
    29     6     7    1
    30     7     8    1
    31    24    19    1
    32     8     3    1
    33    31    26   ar
    34    18     9    1
    35    18    13    1
@<TRIPOS>MOLECULE
*****
 31 35 0 0 0
SMALL
GASTEIGER

@<TRIPOS>ATOM
      1 O          -1.1955    3.3123   21.5081 O.2     1  UNL1       -0.2749
      2 C          -0.1932    2.3874   22.1325 C.2     1  UNL1        0.2252
      3 N          -0.1293    2.2479   23.6247 N.am    1  UNL1       -0.2794
      4 C          -1.0677    3.0331   24.4923 C.3     1  UNL1        0.0951
      5 C          -1.0038    2.8935   25.9844 C.3     1  UNL1        0.0418
      6 C          -0.0014    1.9686   26.6089 C.3     1  UNL1        0.0848
      7 C           0.9369    1.1835   25.7413 C.3     1  UNL1        0.0418
      8 C           0.8730    1.3230   24.2492 C.3     1  UNL1        0.0951
      9 N           0.0625    1.8290   28.1011 N.am    1  UNL1       -0.2422
     10 C          -0.4910    0.6897   28.9045 C.2     1  UNL1        0.3310
     11 O          -1.2056   -0.5101   28.3569 O.2     1  UNL1       -0.2501
     12 N          -0.2045    0.9608   30.3517 N.am    1  UNL1       -0.1647
     13 C           0.5261    2.2677   30.4427 C.2     1  UNL1        0.0706
     14 C           1.0624    3.0385   31.6124 C.3     1  UNL1        0.0705
     15 C           1.7637    4.3458   31.3911 C.2     1  UNL1       -0.0199
     16 C           1.9287    4.8824   30.0001 C.2     1  UNL1       -0.0029
     17 C           1.3924    4.1117   28.8304 C.2     1  UNL1        0.0156
     18 C           0.6911    2.8043   29.0517 C.2     1  UNL1        0.0668
     19 C           0.7453    1.6022   21.2649 C.3     1  UNL1        0.0795
     20 C           0.3498    0.2420   20.7716 C.3     1  UNL1        0.0264
     21 C           1.2882   -0.5432   19.9040 C.3     1  UNL1        0.0729
     22 N           2.6221    0.0318   19.5297 N.3     1  UNL1       -0.2689
     23 C           3.0176    1.3921   20.0231 C.3     1  UNL1        0.0729
     24 C           2.0792    2.1773   20.8907 C.3     1  UNL1        0.0264
     25 C           3.5605   -0.7535   18.6621 C.3     1  UNL1        0.0992
     26 C           4.1971   -2.0059   19.1874 C.ar    1  UNL1       -0.0031
     27 C           3.5257   -3.3315   18.9820 C.ar    1  UNL1        0.0178
     28 C           4.1622   -4.5840   19.5073 C.ar    1  UNL1        0.0986
     29 N           5.4701   -4.5110   20.2381 N.ar    1  UNL1       -0.2423
     30 C           6.1415   -3.1855   20.4435 C.ar    1  UNL1        0.0986
     31 C           5.5050   -1.9329   19.9182 C.ar    1  UNL1        0.0178
@<TRIPOS>BOND
     1     1     2    2
     2     2    19    1
     3    19    20    1
     4    20    21    1
     5    21    22    1
     6    22    25    1
     7    25    26    1
     8    26    27   ar
     9    27    28   ar
    10    28    29   ar
    11    29    30   ar
    12    30    31   ar
    13    22    23    1
    14    23    24    1
    15     2     3   am
    16     3     4    1
    17     4     5    1
    18     5     6    1
    19     6     9    1
    20     9    10   am
    21    10    11    2
    22    10    12    1
    23    12    13    2
    24    13    14    1
    25    14    15    1
    26    15    16    2
    27    16    17    1
    28    17    18    2
    29     6     7    1
    30     7     8    1
    31    24    19    1
    32     8     3    1
    33    31    26   ar
    34    18     9    1
    35    18    13    1
@<TRIPOS>MOLECULE
*****
 31 35 0 0 0
SMALL
GASTEIGER

@<TRIPOS>ATOM
      1 O           6.8543   -6.1368   31.4446 O.2     1  UNL1       -0.2749
      2 C           6.8764   -4.7747   30.8169 C.2     1  UNL1        0.2252
      3 N           6.8138   -4.6355   29.3247 N.am    1  UNL1       -0.2794
      4 C           6.7290   -5.8585   28.4602 C.3     1  UNL1        0.0951
      5 C           6.6664   -5.7193   26.9680 C.3     1  UNL1        0.0418
      6 C           6.6885   -4.3571   26.3402 C.3     1  UNL1        0.0848
      7 C           6.7733   -3.1342   27.2046 C.3     1  UNL1        0.0418
      8 C           6.8359   -3.2734   28.6969 C.3     1  UNL1        0.0951
      9 N           6.6259   -4.2179   24.8480 N.am    1  UNL1       -0.2422
     10 C           7.4495   -4.9841   23.8557 C.2     1  UNL1        0.3310
     11 O           8.4803   -6.0239   24.1813 O.2     1  UNL1       -0.2501
     12 N           7.0612   -4.5278   22.4805 N.am    1  UNL1       -0.1647
     13 C           5.9977   -3.4796   22.6229 C.2     1  UNL1        0.0706
     14 C           5.2395   -2.6749   21.6093 C.3     1  UNL1        0.0705
     15 C           4.2123   -1.6786   22.0589 C.2     1  UNL1       -0.0199
     16 C           3.9432   -1.4871   23.5221 C.2     1  UNL1       -0.0029
     17 C           4.7014   -2.2918   24.5357 C.2     1  UNL1        0.0156
     18 C           5.7286   -3.2881   24.0861 C.2     1  UNL1        0.0668
     19 C           6.9612   -3.5518   31.6813 C.3     1  UNL1        0.0795
     20 C           8.3004   -2.9882   32.0540 C.3     1  UNL1        0.0264
     21 C           8.3852   -1.7652   32.9184 C.3     1  UNL1        0.0729
     22 N           7.1308   -1.1059   33.4101 N.3     1  UNL1       -0.2689
     23 C           5.7915   -1.6696   33.0374 C.3     1  UNL1        0.0729
     24 C           5.7067   -2.8925   32.1730 C.3     1  UNL1        0.0264
     25 C           7.2155    0.1170   34.2746 C.3     1  UNL1        0.0992
     26 C           6.0072    0.5881   35.0281 C.ar    1  UNL1       -0.0031
     27 C           5.1401    1.6694   34.4545 C.ar    1  UNL1        0.0178
     28 C           3.9317    2.1406   35.2079 C.ar    1  UNL1        0.0986
     29 N           3.5904    1.5305   36.5350 N.ar    1  UNL1       -0.2423
     30 C           4.4574    0.4492   37.1087 C.ar    1  UNL1        0.0986
     31 C           5.6658   -0.0220   36.3552 C.ar    1  UNL1        0.0178
@<TRIPOS>BOND
     1     1     2    2
     2     2    19    1
     3    19    20    1
     4    20    21    1
     5    21    22    1
     6    22    25    1
     7    25    26    1
     8    26    27   ar
     9    27    28   ar
    10    28    29   ar
    11    29    30   ar
    12    30    31   ar
    13    22    23    1
    14    23    24    1
    15     2     3   am
    16     3     4    1
    17     4     5    1
    18     5     6    1
    19     6     9    1
    20     9    10   am
    21    10    11    2
    22    10    12    1
    23    12    13    2
    24    13    14    1
    25    14    15    1
    26    15    16    2
    27    16    17    1
    28    17    18    2
    29     6     7    1
    30     7     8    1
    31    24    19    1
    32     8     3    1
    33    31    26   ar
    34    18     9    1
    35    18    13    1
@<TRIPOS>MOLECULE
*****
 31 35 0 0 0
SMALL
GASTEIGER

@<TRIPOS>ATOM
      1 O           2.1395    4.7515   17.7460 O.2     1  UNL1       -0.2749
      2 C           1.8451    3.5919   18.6508 C.2     1  UNL1        0.2252
      3 N           0.5922    3.5834   19.4754 N.am    1  UNL1       -0.2794
      4 C          -0.3663    4.7344   19.3953 C.3     1  UNL1        0.0951
      5 C          -1.6193    4.7259   20.2199 C.3     1  UNL1        0.0418
      6 C          -1.9137    3.5662   21.1248 C.3     1  UNL1        0.0848
      7 C          -0.9552    2.4153   21.2049 C.3     1  UNL1        0.0418
      8 C           0.2977    2.4239   20.3803 C.3     1  UNL1        0.0951
      9 N          -3.1667    3.5577   21.9495 N.am    1  UNL1       -0.2422
     10 C          -4.5661    3.4267   21.4256 C.2     1  UNL1        0.3310
     11 O          -4.9583    3.2811   19.9851 O.2     1  UNL1       -0.2501
     12 N          -5.5044    3.4667   22.5952 N.am    1  UNL1       -0.1647
     13 C          -4.6850    3.6225   23.8418 C.2     1  UNL1        0.0706
     14 C          -5.0678    3.7204   25.2888 C.3     1  UNL1        0.0705
     15 C          -4.0057    3.8746   26.3368 C.2     1  UNL1       -0.0199
     16 C          -2.5608    3.9308   25.9377 C.2     1  UNL1       -0.0029
     17 C          -2.1781    3.8329   24.4907 C.2     1  UNL1        0.0156
     18 C          -3.2401    3.6788   23.4428 C.2     1  UNL1        0.0668
     19 C           2.8036    2.4409   18.7310 C.3     1  UNL1        0.0795
     20 C           4.1597    2.6354   19.3418 C.3     1  UNL1        0.0264
     21 C           5.1182    1.4844   19.4220 C.3     1  UNL1        0.0729
     22 N           4.7206    0.1389   18.8913 N.3     1  UNL1       -0.2689
     23 C           3.3644   -0.0556   18.2804 C.3     1  UNL1        0.0729
     24 C           2.4059    1.0954   18.2002 C.3     1  UNL1        0.0264
     25 C           5.6791   -1.0121   18.9715 C.3     1  UNL1        0.0992
     26 C           5.1978   -2.3589   19.4237 C.ar    1  UNL1       -0.0031
     27 C           5.0745   -3.4815   18.4365 C.ar    1  UNL1        0.0178
     28 C           4.5932   -4.8283   18.8886 C.ar    1  UNL1        0.0986
     29 N           4.2352   -5.0525   20.3279 N.ar    1  UNL1       -0.2423
     30 C           4.3585   -3.9299   21.3151 C.ar    1  UNL1        0.0986
     31 C           4.8398   -2.5831   20.8630 C.ar    1  UNL1        0.0178
@<TRIPOS>BOND
     1     1     2    2
     2     2    19    1
     3    19    20    1
     4    20    21    1
     5    21    22    1
     6    22    25    1
     7    25    26    1
     8    26    27   ar
     9    27    28   ar
    10    28    29   ar
    11    29    30   ar
    12    30    31   ar
    13    22    23    1
    14    23    24    1
    15     2     3   am
    16     3     4    1
    17     4     5    1
    18     5     6    1
    19     6     9    1
    20     9    10   am
    21    10    11    2
    22    10    12    1
    23    12    13    2
    24    13    14    1
    25    14    15    1
    26    15    16    2
    27    16    17    1
    28    17    18    2
    29     6     7    1
    30     7     8    1
    31    24    19    1
    32     8     3    1
    33    31    26   ar
    34    18     9    1
    35    18    13    1
@<TRIPOS>MOLECULE
*****
 31 35 0 0 0
SMALL
GASTEIGER

@<TRIPOS>ATOM
      1 O           6.7090   -6.0549   31.2404 O.2     1  UNL1       -0.2749
      2 C           6.8238   -4.6669   30.6833 C.2     1  UNL1        0.2252
      3 N           6.7558   -4.4457   29.2013 N.am    1  UNL1       -0.2794
      4 C           6.5730   -5.6125   28.2764 C.3     1  UNL1        0.0951
      5 C           6.5050   -5.3913   26.7944 C.3     1  UNL1        0.0418
      6 C           6.6198   -4.0032   26.2371 C.3     1  UNL1        0.0848
      7 C           6.8026   -2.8366   27.1620 C.3     1  UNL1        0.0418
      8 C           6.8706   -3.0578   28.6441 C.3     1  UNL1        0.0951
      9 N           6.5518   -3.7820   24.7551 N.am    1  UNL1       -0.2422
     10 C           5.5724   -2.8998   24.0394 C.2     1  UNL1        0.3310
     11 O           4.4890   -2.0838   24.6800 O.2     1  UNL1       -0.2501
     12 N           5.8666   -2.9768   22.5705 N.am    1  UNL1       -0.1647
     13 C           7.0279   -3.9066   22.3785 C.2     1  UNL1        0.0706
     14 C           7.7544   -4.3644   21.1486 C.3     1  UNL1        0.0705
     15 C           8.9044   -5.3199   21.2690 C.2     1  UNL1       -0.0199
     16 C           9.3279   -5.8175   22.6191 C.2     1  UNL1       -0.0029
     17 C           8.6014   -5.3598   23.8490 C.2     1  UNL1        0.0156
     18 C           7.4514   -4.4043   23.7286 C.2     1  UNL1        0.0668
     19 C           7.0065   -3.5002   31.6082 C.3     1  UNL1        0.0795
     20 C           5.8098   -2.7580   32.1247 C.3     1  UNL1        0.0264
     21 C           5.9925   -1.5913   33.0496 C.3     1  UNL1        0.0729
     22 N           7.3720   -1.1668   33.4579 N.3     1  UNL1       -0.2689
     23 C           8.5689   -1.9091   32.9413 C.3     1  UNL1        0.0729
     24 C           8.3861   -3.0758   32.0164 C.3     1  UNL1        0.0264
     25 C           7.5548   -0.0001   34.3827 C.3     1  UNL1        0.0992
     26 C           6.3812    0.5492   35.1382 C.ar    1  UNL1       -0.0031
     27 C           5.7252    1.8196   34.6845 C.ar    1  UNL1        0.0178
     28 C           4.5516    2.3689   35.4399 C.ar    1  UNL1        0.0986
     29 N           4.0338    1.6479   36.6491 N.ar    1  UNL1       -0.2423
     30 C           4.6898    0.3775   37.1028 C.ar    1  UNL1        0.0986
     31 C           5.8634   -0.1719   36.3473 C.ar    1  UNL1        0.0178
@<TRIPOS>BOND
     1     1     2    2
     2     2    19    1
     3    19    20    1
     4    20    21    1
     5    21    22    1
     6    22    25    1
     7    25    26    1
     8    26    27   ar
     9    27    28   ar
    10    28    29   ar
    11    29    30   ar
    12    30    31   ar
    13    22    23    1
    14    23    24    1
    15     2     3   am
    16     3     4    1
    17     4     5    1
    18     5     6    1
    19     6     9    1
    20     9    10   am
    21    10    11    2
    22    10    12    1
    23    12    13    2
    24    13    14    1
    25    14    15    1
    26    15    16    2
    27    16    17    1
    28    17    18    2
    29     6     7    1
    30     7     8    1
    31    24    19    1
    32     8     3    1
    33    31    26   ar
    34    18     9    1
    35    18    13    1
@<TRIPOS>MOLECULE
*****
 31 35 0 0 0
SMALL
GASTEIGER

@<TRIPOS>ATOM
      1 O           3.1185    3.0230   26.9676 O.2     1  UNL1       -0.2749
      2 C           2.0999    2.4950   26.0014 C.2     1  UNL1        0.2252
      3 N           2.5224    1.5753   24.8943 N.am    1  UNL1       -0.2794
      4 C           3.9635    1.1836   24.7534 C.3     1  UNL1        0.0951
      5 C           4.3860    0.2639   23.6463 C.3     1  UNL1        0.0418
      6 C           3.3673   -0.2641   22.6800 C.3     1  UNL1        0.0848
      7 C           1.9263    0.1276   22.8209 C.3     1  UNL1        0.0418
      8 C           1.5038    1.0473   23.9280 C.3     1  UNL1        0.0951
      9 N           3.7898   -1.1838   21.5729 N.am    1  UNL1       -0.2422
     10 C           4.2626   -2.5983   21.7338 C.2     1  UNL1        0.3310
     11 O           4.3959   -3.3413   23.0300 O.2     1  UNL1       -0.2501
     12 N           4.5787   -3.1391   20.3709 N.am    1  UNL1       -0.1647
     13 C           4.3013   -2.0590   19.3677 C.2     1  UNL1        0.0706
     14 C           4.4296   -2.0197   17.8737 C.3     1  UNL1        0.0705
     15 C           4.0704   -0.7719   17.1227 C.2     1  UNL1       -0.0199
     16 C           3.5829    0.4365   17.8657 C.2     1  UNL1       -0.0029
     17 C           3.4545    0.3972   19.3596 C.2     1  UNL1        0.0156
     18 C           3.8137   -0.8505   20.1106 C.2     1  UNL1        0.0668
     19 C           0.6588    2.8867   26.1422 C.3     1  UNL1        0.0795
     20 C           0.1603    4.1521   25.5096 C.3     1  UNL1        0.0264
     21 C          -1.2808    4.5438   25.6504 C.3     1  UNL1        0.0729
     22 N          -2.2234    3.6701   26.4238 N.3     1  UNL1       -0.2689
     23 C          -1.7248    2.4046   27.0565 C.3     1  UNL1        0.0729
     24 C          -0.2837    2.0129   26.9156 C.3     1  UNL1        0.0264
     25 C          -3.6645    4.0618   26.5647 C.3     1  UNL1        0.0992
     26 C          -4.5708    4.0291   25.3699 C.ar    1  UNL1       -0.0031
     27 C          -4.1860    3.2329   24.1583 C.ar    1  UNL1        0.0178
     28 C          -5.0923    3.2002   22.9635 C.ar    1  UNL1        0.0986
     29 N          -6.3834    3.9637   22.9803 N.ar    1  UNL1       -0.2423
     30 C          -6.7681    4.7599   24.1920 C.ar    1  UNL1        0.0986
     31 C          -5.8618    4.7926   25.3868 C.ar    1  UNL1        0.0178
@<TRIPOS>BOND
     1     1     2    2
     2     2    19    1
     3    19    20    1
     4    20    21    1
     5    21    22    1
     6    22    25    1
     7    25    26    1
     8    26    27   ar
     9    27    28   ar
    10    28    29   ar
    11    29    30   ar
    12    30    31   ar
    13    22    23    1
    14    23    24    1
    15     2     3   am
    16     3     4    1
    17     4     5    1
    18     5     6    1
    19     6     9    1
    20     9    10   am
    21    10    11    2
    22    10    12    1
    23    12    13    2
    24    13    14    1
    25    14    15    1
    26    15    16    2
    27    16    17    1
    28    17    18    2
    29     6     7    1
    30     7     8    1
    31    24    19    1
    32     8     3    1
    33    31    26   ar
    34    18     9    1
    35    18    13    1
@<TRIPOS>MOLECULE
*****
 31 35 0 0 0
SMALL
GASTEIGER

@<TRIPOS>ATOM
      1 O          -1.0403    2.8905   24.6997 O.2     1  UNL1       -0.2749
      2 C           0.0802    2.0388   25.2184 C.2     1  UNL1        0.2252
      3 N           0.9069    1.2260   24.2666 N.am    1  UNL1       -0.2794
      4 C           0.6130    1.2649   22.7962 C.3     1  UNL1        0.0951
      5 C           1.4397    0.4521   21.8444 C.3     1  UNL1        0.0418
      6 C           2.5604   -0.3996   22.3630 C.3     1  UNL1        0.0848
      7 C           2.8542   -0.4384   23.8333 C.3     1  UNL1        0.0418
      8 C           2.0275    0.3744   24.7852 C.3     1  UNL1        0.0951
      9 N           3.3871   -1.2124   21.4112 N.am    1  UNL1       -0.2422
     10 C           4.1802   -2.4377   21.7569 C.2     1  UNL1        0.3310
     11 O           4.2860   -3.0653   23.1152 O.2     1  UNL1       -0.2501
     12 N           4.8491   -2.9251   20.5059 N.am    1  UNL1       -0.1647
     13 C           4.4693   -2.0011   19.3870 C.2     1  UNL1        0.0706
     14 C           4.8294   -1.9869   17.9310 C.3     1  UNL1        0.0705
     15 C           4.2861   -0.9141   17.0345 C.2     1  UNL1       -0.0199
     16 C           3.3825    0.1445   17.5940 C.2     1  UNL1       -0.0029
     17 C           3.0223    0.1302   19.0500 C.2     1  UNL1        0.0156
     18 C           3.5657   -0.9426   19.9465 C.2     1  UNL1        0.0668
     19 C           0.3741    2.0000   26.6888 C.3     1  UNL1        0.0795
     20 C          -0.4213    1.1019   27.5891 C.3     1  UNL1        0.0264
     21 C          -0.1274    1.0630   29.0595 C.3     1  UNL1        0.0729
     22 N           0.9619    1.9223   29.6296 N.3     1  UNL1       -0.2689
     23 C           1.7574    2.8205   28.7292 C.3     1  UNL1        0.0729
     24 C           1.4635    2.8593   27.2588 C.3     1  UNL1        0.0264
     25 C           1.2558    1.8834   31.1000 C.3     1  UNL1        0.0992
     26 C           2.3135    0.9609   31.6294 C.ar    1  UNL1       -0.0031
     27 C           2.8981    1.1932   32.9911 C.ar    1  UNL1        0.0178
     28 C           3.9558    0.2708   33.5206 C.ar    1  UNL1        0.0986
     29 N           4.4289   -0.8840   32.6883 N.ar    1  UNL1       -0.2423
     30 C           3.8443   -1.1163   31.3265 C.ar    1  UNL1        0.0986
     31 C           2.7866   -0.1938   30.7971 C.ar    1  UNL1        0.0178
@<TRIPOS>BOND
     1     1     2    2
     2     2    19    1
     3    19    20    1
     4    20    21    1
     5    21    22    1
     6    22    25    1
     7    25    26    1
     8    26    27   ar
     9    27    28   ar
    10    28    29   ar
    11    29    30   ar
    12    30    31   ar
    13    22    23    1
    14    23    24    1
    15     2     3   am
    16     3     4    1
    17     4     5    1
    18     5     6    1
    19     6     9    1
    20     9    10   am
    21    10    11    2
    22    10    12    1
    23    12    13    2
    24    13    14    1
    25    14    15    1
    26    15    16    2
    27    16    17    1
    28    17    18    2
    29     6     7    1
    30     7     8    1
    31    24    19    1
    32     8     3    1
    33    31    26   ar
    34    18     9    1
    35    18    13    1
