@<TRIPOS>MOLECULE
*****
 36 40 0 0 0
SMALL
GASTEIGER

@<TRIPOS>ATOM
      1 C           7.8179   -3.0888   20.9525 C.3     1  UNL1        0.0972
      2 C           7.6630   -4.5468   21.2689 C.3     1  UNL1        0.0431
      3 C           7.4644   -4.6814   22.7496 C.3     1  UNL1        0.0968
      4 N           7.4966   -3.3065   23.3484 N.am    1  UNL1       -0.2623
      5 C           7.3381   -2.9741   24.8025 C.2     1  UNL1        0.3073
      6 O           7.3930   -1.5452   25.2556 O.2     1  UNL1       -0.2523
      7 N           7.1247   -4.0707   25.8035 N.am    1  UNL1       -0.2626
      8 C           7.0477   -5.5378   25.5010 C.3     1  UNL1        0.0964
      9 C           6.8262   -6.2665   26.7934 C.3     1  UNL1        0.0390
     10 C           6.7664   -5.2497   27.8945 C.3     1  UNL1        0.0758
     11 C           6.9509   -3.8926   27.2827 C.3     1  UNL1        0.1106
     12 C           7.7150   -2.3222   22.2378 C.3     1  UNL1        0.1147
     13 C           6.8890   -1.8882   18.8440 C.2     1  UNL1        0.2551
     14 O           7.1083   -1.3001   17.4817 O.2     1  UNL1       -0.2694
     15 N           8.0372   -2.5006   19.5902 N.am    1  UNL1       -0.2738
     16 C           9.4045   -2.5248   18.9741 C.3     1  UNL1        0.1152
     17 C           3.5942   -1.1974   20.7760 C.ar    1  UNL1        0.0296
     18 C           3.2406   -2.4561   20.0407 C.ar    1  UNL1        0.0071
     19 C           4.4318   -2.8681   19.2275 C.ar    1  UNL1        0.0115
     20 C           5.5216   -1.8640   19.4601 C.ar    1  UNL1        0.0830
     21 S           5.0039   -0.8315   20.4172 S.2     1  UNL1       -0.0824
     22 C           0.8990    1.0810   23.5679 C.ar    1  UNL1       -0.0222
     23 C           2.0474    0.2867   24.1158 C.ar    1  UNL1       -0.0043
     24 C           2.9458   -0.4728   23.1852 C.ar    1  UNL1        0.0002
     25 C           2.6958   -0.4379   21.7066 C.ar    1  UNL1        0.0060
     26 C           1.5474    0.3564   21.1587 C.ar    1  UNL1        0.0002
     27 C           0.6490    1.1158   22.0893 C.ar    1  UNL1       -0.0043
     28 C          -0.1149    1.4247   25.9351 C.3     1  UNL1        0.0050
     29 C           0.0006    1.8404   24.4986 C.3     1  UNL1        0.0264
     30 N           6.5586   -5.5392   29.3515 N.3     1  UNL1       -0.2982
     31 H           6.9033   -6.4850   29.5159 H       1  UNL1        0.1232
     32 C           7.1932   -4.6607   30.3886 C.3     1  UNL1        0.0540
     33 C           6.4797   -3.6745   31.2652 C.3     1  UNL1        0.0157
     34 C           7.4983   -3.0186   32.1496 C.3     1  UNL1        0.0014
     35 C           8.8413   -3.5993   31.8196 C.3     1  UNL1        0.0014
     36 C           8.6528   -4.6143   30.7313 C.3     1  UNL1        0.0157
@<TRIPOS>BOND
     1    28    29    1
     2    29    22    1
     3    22    23   ar
     4    23    24   ar
     5    24    25   ar
     6    25    17    1
     7    17    18   ar
     8    18    19   ar
     9    19    20   ar
    10    20    13    1
    11    13    14    2
    12    13    15   am
    13    15    16    1
    14     1    15    1
    15     1     2    1
    16     2     3    1
    17     3     4    1
    18     4     5   am
    19     5     6    2
    20     5     7   am
    21     7     8    1
    22     8     9    1
    23     9    10    1
    24    10    30    1
    25    30    32    1
    26    32    33    1
    27    33    34    1
    28    34    35    1
    29    35    36    1
    30    10    11    1
    31     4    12    1
    32    20    21   ar
    33    25    26   ar
    34    26    27   ar
    35    27    22   ar
    36    21    17   ar
    37    12     1    1
    38    11     7    1
    39    36    32    1
    40    30    31    1
@<TRIPOS>MOLECULE
*****
 36 40 0 0 0
SMALL
GASTEIGER

@<TRIPOS>ATOM
      1 C           7.6278   -2.8230   20.9388 C.3     1  UNL1        0.0972
      2 C           7.2913   -1.7535   21.9353 C.3     1  UNL1        0.0431
      3 C           7.1600   -2.3999   23.2825 C.3     1  UNL1        0.0968
      4 N           7.4153   -3.8689   23.1187 N.am    1  UNL1       -0.2623
      5 C           7.3865   -4.8961   24.2114 C.2     1  UNL1        0.3073
      6 O           7.6635   -6.3359   23.8948 O.2     1  UNL1       -0.2523
      7 N           7.0807   -4.4834   25.6207 N.am    1  UNL1       -0.2626
      8 C           6.7850   -3.0886   26.0865 C.3     1  UNL1        0.0964
      9 C           6.5385   -3.1363   27.5654 C.3     1  UNL1        0.0390
     10 C           6.6818   -4.5605   28.0135 C.3     1  UNL1        0.0758
     11 C           7.0169   -5.3931   26.8117 C.3     1  UNL1        0.1106
     12 C           7.7044   -4.1304   21.6702 C.3     1  UNL1        0.1147
     13 C           6.6935   -2.2734   18.5777 C.2     1  UNL1        0.2551
     14 O           6.9145   -2.0711   17.1079 O.2     1  UNL1       -0.2694
     15 N           7.8488   -2.6207   19.4691 N.am    1  UNL1       -0.2738
     16 C           9.2251   -2.7657   18.8907 C.3     1  UNL1        0.1152
     17 C           3.2501   -1.1597   19.9807 C.ar    1  UNL1        0.0296
     18 C           3.1479   -2.6505   20.1113 C.ar    1  UNL1        0.0071
     19 C           4.4253   -3.2492   19.6016 C.ar    1  UNL1        0.0115
     20 C           5.3171   -2.1284   19.1560 C.ar    1  UNL1        0.0830
     21 S           4.5908   -0.8370   19.3903 S.2     1  UNL1       -0.0824
     22 C           0.0899    1.8212   21.1542 C.ar    1  UNL1       -0.0222
     23 C           0.9572    1.1947   22.2054 C.ar    1  UNL1       -0.0043
     24 C           2.0106    0.2011   21.8143 C.ar    1  UNL1        0.0002
     25 C           2.1967   -0.1661   20.3719 C.ar    1  UNL1        0.0060
     26 C           1.3294    0.4604   19.3206 C.ar    1  UNL1        0.0002
     27 C           0.2760    1.4541   19.7118 C.ar    1  UNL1       -0.0043
     28 C          -2.0479    3.1794   20.5752 C.3     1  UNL1        0.0050
     29 C          -0.9635    2.8148   21.5453 C.3     1  UNL1        0.0264
     30 N           6.5187   -5.0638   29.4171 N.3     1  UNL1       -0.2982
     31 H           6.9592   -5.9831   29.4534 H       1  UNL1        0.1232
     32 C           7.0708   -4.2734   30.5662 C.3     1  UNL1        0.0540
     33 C           6.2818   -3.3977   31.4939 C.3     1  UNL1        0.0157
     34 C           7.2323   -2.8031   32.4904 C.3     1  UNL1        0.0014
     35 C           8.6087   -3.3112   32.1785 C.3     1  UNL1        0.0014
     36 C           8.5089   -4.2200   30.9893 C.3     1  UNL1        0.0157
@<TRIPOS>BOND
     1    28    29    1
     2    29    22    1
     3    22    23   ar
     4    23    24   ar
     5    24    25   ar
     6    25    17    1
     7    17    18   ar
     8    18    19   ar
     9    19    20   ar
    10    20    13    1
    11    13    14    2
    12    13    15   am
    13    15    16    1
    14     1    15    1
    15     1     2    1
    16     2     3    1
    17     3     4    1
    18     4     5   am
    19     5     6    2
    20     5     7   am
    21     7     8    1
    22     8     9    1
    23     9    10    1
    24    10    30    1
    25    30    32    1
    26    32    33    1
    27    33    34    1
    28    34    35    1
    29    35    36    1
    30    10    11    1
    31     4    12    1
    32    20    21   ar
    33    25    26   ar
    34    26    27   ar
    35    27    22   ar
    36    21    17   ar
    37    12     1    1
    38    11     7    1
    39    36    32    1
    40    30    31    1
@<TRIPOS>MOLECULE
*****
 36 40 0 0 0
SMALL
GASTEIGER

@<TRIPOS>ATOM
      1 C          -0.9064    2.8063   25.6683 C.3     1  UNL1        0.0972
      2 C          -0.4821    1.3688   25.7295 C.3     1  UNL1        0.0431
      3 C           0.2381    1.1529   27.0275 C.3     1  UNL1        0.0968
      4 N           0.2589    2.4569   27.7685 N.am    1  UNL1       -0.2623
      5 C           0.8783    2.6969   29.1134 C.2     1  UNL1        0.3073
      6 O           0.8205    4.0618   29.7329 O.2     1  UNL1       -0.2523
      7 N           1.5554    1.5721   29.8388 N.am    1  UNL1       -0.2626
      8 C           1.6910    0.1613   29.3476 C.3     1  UNL1        0.0964
      9 C           2.4353   -0.6221   30.3880 C.3     1  UNL1        0.0390
     10 C           2.7595    0.3045   31.5222 C.3     1  UNL1        0.0758
     11 C           2.2158    1.6606   31.1827 C.3     1  UNL1        0.1106
     12 C          -0.4484    3.4787   26.9286 C.3     1  UNL1        0.1147
     13 C          -1.0958    3.4306   23.1535 C.2     1  UNL1        0.2551
     14 O          -1.8463    4.0813   22.0295 O.2     1  UNL1       -0.2694
     15 N          -1.6569    3.4570   24.5444 N.am    1  UNL1       -0.2738
     16 C          -2.9684    4.1341   24.8112 C.3     1  UNL1        0.1152
     17 C           1.8713    1.1253   22.1801 C.ar    1  UNL1        0.0296
     18 C           2.5968    2.2974   22.7716 C.ar    1  UNL1        0.0071
     19 C           1.5736    3.3036   23.2082 C.ar    1  UNL1        0.0115
     20 C           0.2157    2.7534   22.8866 C.ar    1  UNL1        0.0830
     21 S           0.3997    1.4071   22.2512 S.2     1  UNL1       -0.0824
     22 C           3.7752   -2.5850   20.4893 C.ar    1  UNL1       -0.0222
     23 C           2.8940   -1.7334   19.6243 C.ar    1  UNL1       -0.0043
     24 C           2.2594   -0.4966   20.1879 C.ar    1  UNL1        0.0002
     25 C           2.5059   -0.1115   21.6165 C.ar    1  UNL1        0.0060
     26 C           3.3871   -0.9631   22.4815 C.ar    1  UNL1        0.0002
     27 C           4.0217   -2.1999   21.9179 C.ar    1  UNL1       -0.0043
     28 C           3.5642   -5.0175   19.6012 C.3     1  UNL1        0.0050
     29 C           4.4098   -3.8218   19.9257 C.3     1  UNL1        0.0264
     30 N           3.4980   -0.0610   32.7756 N.3     1  UNL1       -0.2982
     31 H           2.8108   -0.4558   33.4177 H       1  UNL1        0.1232
     32 C           4.6421   -1.0292   32.7168 C.3     1  UNL1        0.0540
     33 C           6.0864   -0.6763   32.5176 C.3     1  UNL1        0.0157
     34 C           6.8797   -1.9493   32.5246 C.3     1  UNL1        0.0014
     35 C           5.9259   -3.0889   32.7281 C.3     1  UNL1        0.0014
     36 C           4.5429   -2.5202   32.8469 C.3     1  UNL1        0.0157
@<TRIPOS>BOND
     1    28    29    1
     2    29    22    1
     3    22    23   ar
     4    23    24   ar
     5    24    25   ar
     6    25    17    1
     7    17    18   ar
     8    18    19   ar
     9    19    20   ar
    10    20    13    1
    11    13    14    2
    12    13    15   am
    13    15    16    1
    14     1    15    1
    15     1     2    1
    16     2     3    1
    17     3     4    1
    18     4     5   am
    19     5     6    2
    20     5     7   am
    21     7     8    1
    22     8     9    1
    23     9    10    1
    24    10    30    1
    25    30    32    1
    26    32    33    1
    27    33    34    1
    28    34    35    1
    29    35    36    1
    30    10    11    1
    31     4    12    1
    32    20    21   ar
    33    25    26   ar
    34    26    27   ar
    35    27    22   ar
    36    21    17   ar
    37    12     1    1
    38    11     7    1
    39    36    32    1
    40    30    31    1
@<TRIPOS>MOLECULE
*****
 36 40 0 0 0
SMALL
GASTEIGER

@<TRIPOS>ATOM
      1 C           3.2976    0.6198   29.0894 C.3     1  UNL1        0.0972
      2 C           3.1855   -0.8298   28.7204 C.3     1  UNL1        0.0431
      3 C           3.6470   -0.9841   27.3016 C.3     1  UNL1        0.0968
      4 N           4.0444    0.3702   26.7935 N.am    1  UNL1       -0.2623
      5 C           4.5662    0.6790   25.4216 C.2     1  UNL1        0.3073
      6 O           4.9242    2.0888   25.0550 O.2     1  UNL1       -0.2523
      7 N           4.7299   -0.4220   24.4161 N.am    1  UNL1       -0.2626
      8 C           4.4152   -1.8719   24.6372 C.3     1  UNL1        0.0964
      9 C           4.7279   -2.6124   23.3707 C.3     1  UNL1        0.0390
     10 C           5.2359   -1.6202   22.3669 C.3     1  UNL1        0.0758
     11 C           5.2371   -0.2665   23.0130 C.3     1  UNL1        0.1106
     12 C           3.8285    1.3614   27.8984 C.3     1  UNL1        0.1147
     13 C           1.5397    1.6887   30.6760 C.2     1  UNL1        0.2551
     14 O           1.1835    2.2910   32.0028 O.2     1  UNL1       -0.2694
     15 N           2.9414    1.2221   30.4161 N.am    1  UNL1       -0.2738
     16 C           3.9869    1.3577   31.4831 C.3     1  UNL1        0.1152
     17 C          -0.8905    1.9933   27.6648 C.ar    1  UNL1        0.0296
     18 C          -1.3390    0.6958   28.2692 C.ar    1  UNL1        0.0071
     19 C          -0.4832    0.4237   29.4708 C.ar    1  UNL1        0.0115
     20 C           0.4942    1.5531   29.6090 C.ar    1  UNL1        0.0830
     21 S           0.2425    2.5231   28.4928 S.2     1  UNL1       -0.0824
     22 C          -2.6370    3.9522   24.0094 C.ar    1  UNL1       -0.0222
     23 C          -1.3366    3.2109   23.9140 C.ar    1  UNL1       -0.0043
     24 C          -0.7544    2.5579   25.1325 C.ar    1  UNL1        0.0002
     25 C          -1.4727    2.6462   26.4463 C.ar    1  UNL1        0.0060
     26 C          -2.7731    3.3875   26.5417 C.ar    1  UNL1        0.0002
     27 C          -3.3553    4.0405   25.3232 C.ar    1  UNL1       -0.0043
     28 C          -4.0881    3.8139   21.8588 C.3     1  UNL1        0.0050
     29 C          -3.2192    4.6051   22.7909 C.3     1  UNL1        0.0264
     30 N           5.6669   -1.9277   20.9635 N.3     1  UNL1       -0.2982
     31 H           6.6508   -2.1928   21.0091 H       1  UNL1        0.1232
     32 C           4.9657   -2.9984   20.1812 C.3     1  UNL1        0.0540
     33 C           5.5713   -4.2888   19.7140 C.3     1  UNL1        0.0157
     34 C           4.5157   -5.0546   18.9729 C.3     1  UNL1        0.0014
     35 C           3.2578   -4.2375   18.9820 C.3     1  UNL1        0.0014
     36 C           3.5359   -2.9667   19.7288 C.3     1  UNL1        0.0157
@<TRIPOS>BOND
     1    28    29    1
     2    29    22    1
     3    22    23   ar
     4    23    24   ar
     5    24    25   ar
     6    25    17    1
     7    17    18   ar
     8    18    19   ar
     9    19    20   ar
    10    20    13    1
    11    13    14    2
    12    13    15   am
    13    15    16    1
    14     1    15    1
    15     1     2    1
    16     2     3    1
    17     3     4    1
    18     4     5   am
    19     5     6    2
    20     5     7   am
    21     7     8    1
    22     8     9    1
    23     9    10    1
    24    10    30    1
    25    30    32    1
    26    32    33    1
    27    33    34    1
    28    34    35    1
    29    35    36    1
    30    10    11    1
    31     4    12    1
    32    20    21   ar
    33    25    26   ar
    34    26    27   ar
    35    27    22   ar
    36    21    17   ar
    37    12     1    1
    38    11     7    1
    39    36    32    1
    40    30    31    1
@<TRIPOS>MOLECULE
*****
 36 40 0 0 0
SMALL
GASTEIGER

@<TRIPOS>ATOM
      1 C           5.1909   -0.9296   34.1097 C.3     1  UNL1        0.0972
      2 C           4.4153   -2.0393   33.4640 C.3     1  UNL1        0.0431
      3 C           5.3444   -2.7846   32.5521 C.3     1  UNL1        0.0968
      4 N           6.6941   -2.1355   32.6343 N.am    1  UNL1       -0.2623
      5 C           7.9230   -2.5585   31.8853 C.2     1  UNL1        0.3073
      6 O           9.2091   -1.8089   32.0700 O.2     1  UNL1       -0.2523
      7 N           7.8657   -3.7311   30.9517 N.am    1  UNL1       -0.2626
      8 C           6.6574   -4.5728   30.6664 C.3     1  UNL1        0.0964
      9 C           7.0516   -5.6297   29.6778 C.3     1  UNL1        0.0390
     10 C           8.5037   -5.4412   29.3520 C.3     1  UNL1        0.0758
     11 C           9.0068   -4.2678   30.1393 C.3     1  UNL1        0.1106
     12 C           6.5993   -0.9890   33.5969 C.3     1  UNL1        0.1147
     13 C           3.9371    1.2905   34.6091 C.2     1  UNL1        0.2551
     14 O           3.3988    2.2850   35.5946 O.2     1  UNL1       -0.2694
     15 N           4.6526    0.0650   35.0951 N.am    1  UNL1       -0.2738
     16 C           4.8298   -0.1659   36.5666 C.3     1  UNL1        0.1152
     17 C           2.7442    1.8091   30.9521 C.ar    1  UNL1        0.0296
     18 C           4.2297    1.9447   30.7945 C.ar    1  UNL1        0.0071
     19 C           4.8574    1.7669   32.1452 C.ar    1  UNL1        0.0115
     20 C           3.7598    1.5215   33.1377 C.ar    1  UNL1        0.0830
     21 S           2.4538    1.5475   32.4003 S.2     1  UNL1       -0.0824
     22 C          -0.3055    2.1306   27.6589 C.ar    1  UNL1       -0.0222
     23 C          -0.2030    0.8703   28.4657 C.ar    1  UNL1       -0.0043
     24 C           0.8136    0.7631   29.5634 C.ar    1  UNL1        0.0002
     25 C           1.7276    1.9163   29.8544 C.ar    1  UNL1        0.0060
     26 C           1.6251    3.1766   29.0476 C.ar    1  UNL1        0.0002
     27 C           0.6085    3.2838   27.9498 C.ar    1  UNL1       -0.0043
     28 C          -2.2196    3.4372   26.4845 C.3     1  UNL1        0.0050
     29 C          -1.3221    2.2378   26.5611 C.3     1  UNL1        0.0264
     30 N           9.3108   -6.2791   28.4051 N.3     1  UNL1       -0.2982
     31 H           9.4299   -7.1907   28.8469 H       1  UNL1        0.1232
     32 C           8.8089   -6.5339   27.0148 C.3     1  UNL1        0.0540
     33 C           8.5156   -5.4902   25.9781 C.3     1  UNL1        0.0157
     34 C           8.0377   -6.1885   24.7396 C.3     1  UNL1        0.0014
     35 C           8.0356   -7.6637   25.0107 C.3     1  UNL1        0.0014
     36 C           8.5123   -7.8773   26.4169 C.3     1  UNL1        0.0157
@<TRIPOS>BOND
     1    28    29    1
     2    29    22    1
     3    22    23   ar
     4    23    24   ar
     5    24    25   ar
     6    25    17    1
     7    17    18   ar
     8    18    19   ar
     9    19    20   ar
    10    20    13    1
    11    13    14    2
    12    13    15   am
    13    15    16    1
    14     1    15    1
    15     1     2    1
    16     2     3    1
    17     3     4    1
    18     4     5   am
    19     5     6    2
    20     5     7   am
    21     7     8    1
    22     8     9    1
    23     9    10    1
    24    10    30    1
    25    30    32    1
    26    32    33    1
    27    33    34    1
    28    34    35    1
    29    35    36    1
    30    10    11    1
    31     4    12    1
    32    20    21   ar
    33    25    26   ar
    34    26    27   ar
    35    27    22   ar
    36    21    17   ar
    37    12     1    1
    38    11     7    1
    39    36    32    1
    40    30    31    1
@<TRIPOS>MOLECULE
*****
 36 40 0 0 0
SMALL
GASTEIGER

@<TRIPOS>ATOM
      1 C          -1.8070    4.5257   19.4412 C.3     1  UNL1        0.0972
      2 C          -0.5594    5.0565   18.7995 C.3     1  UNL1        0.0431
      3 C           0.4806    3.9765   18.8445 C.3     1  UNL1        0.0968
      4 N          -0.1242    2.7782   19.5139 N.am    1  UNL1       -0.2623
      5 C           0.5639    1.4702   19.7697 C.2     1  UNL1        0.3073
      6 O          -0.1725    0.3564   20.4533 O.2     1  UNL1       -0.2523
      7 N           1.9884    1.2759   19.3419 N.am    1  UNL1       -0.2626
      8 C           2.8482    2.2929   18.6517 C.3     1  UNL1        0.0964
      9 C           4.1944    1.6760   18.4124 C.3     1  UNL1        0.0390
     10 C           4.1666    0.2777   18.9548 C.3     1  UNL1        0.0758
     11 C           2.8032    0.0304   19.5292 C.3     1  UNL1        0.1106
     12 C          -1.5380    3.1176   19.8827 C.3     1  UNL1        0.1147
     13 C          -3.5137    5.7490   20.9711 C.2     1  UNL1        0.2551
     14 O          -4.8037    6.4952   21.1414 O.2     1  UNL1       -0.2694
     15 N          -3.0970    5.2719   19.6114 N.am    1  UNL1       -0.2738
     16 C          -3.9704    5.5410   18.4220 C.3     1  UNL1        0.1152
     17 C          -1.6184    4.3937   24.0754 C.ar    1  UNL1        0.0296
     18 C          -0.9744    5.7379   23.9067 C.ar    1  UNL1        0.0071
     19 C          -1.6060    6.4092   22.7233 C.ar    1  UNL1        0.0115
     20 C          -2.6403    5.4799   22.1606 C.ar    1  UNL1        0.0830
     21 S          -2.6479    4.2343   22.9962 S.2     1  UNL1       -0.0824
     22 C          -0.6342    1.3702   27.2597 C.ar    1  UNL1       -0.0222
     23 C          -0.0894    1.2026   25.8723 C.ar    1  UNL1       -0.0043
     24 C          -0.4174    2.2104   24.8109 C.ar    1  UNL1        0.0002
     25 C          -1.2903    3.3859   25.1368 C.ar    1  UNL1        0.0060
     26 C          -1.8352    3.5535   26.5243 C.ar    1  UNL1        0.0002
     27 C          -1.5071    2.5457   27.5857 C.ar    1  UNL1       -0.0043
     28 C          -1.3582   -0.5950   28.7972 C.3     1  UNL1        0.0050
     29 C          -0.3062    0.3624   28.3212 C.3     1  UNL1        0.0264
     30 N           5.3027   -0.7013   18.9274 N.3     1  UNL1       -0.2982
     31 H           5.9965   -0.3660   19.5958 H       1  UNL1        0.1232
     32 C           5.0558   -2.1458   19.2475 C.3     1  UNL1        0.0540
     33 C           4.8648   -3.2497   18.2500 C.3     1  UNL1        0.0157
     34 C           4.6475   -4.5262   19.0073 C.3     1  UNL1        0.0014
     35 C           4.7043   -4.2112   20.4727 C.3     1  UNL1        0.0014
     36 C           4.9566   -2.7400   20.6212 C.3     1  UNL1        0.0157
@<TRIPOS>BOND
     1    28    29    1
     2    29    22    1
     3    22    23   ar
     4    23    24   ar
     5    24    25   ar
     6    25    17    1
     7    17    18   ar
     8    18    19   ar
     9    19    20   ar
    10    20    13    1
    11    13    14    2
    12    13    15   am
    13    15    16    1
    14     1    15    1
    15     1     2    1
    16     2     3    1
    17     3     4    1
    18     4     5   am
    19     5     6    2
    20     5     7   am
    21     7     8    1
    22     8     9    1
    23     9    10    1
    24    10    30    1
    25    30    32    1
    26    32    33    1
    27    33    34    1
    28    34    35    1
    29    35    36    1
    30    10    11    1
    31     4    12    1
    32    20    21   ar
    33    25    26   ar
    34    26    27   ar
    35    27    22   ar
    36    21    17   ar
    37    12     1    1
    38    11     7    1
    39    36    32    1
    40    30    31    1
@<TRIPOS>MOLECULE
*****
 36 40 0 0 0
SMALL
GASTEIGER

@<TRIPOS>ATOM
      1 C           1.6437    2.1671   25.1650 C.3     1  UNL1        0.0972
      2 C           1.2127    0.9508   24.4002 C.3     1  UNL1        0.0431
      3 C           2.4037    0.0514   24.2503 C.3     1  UNL1        0.0968
      4 N           3.5708    0.7117   24.9224 N.am    1  UNL1       -0.2623
      5 C           4.9631    0.1612   25.0133 C.2     1  UNL1        0.3073
      6 O           6.0326    0.9392   25.7211 O.2     1  UNL1       -0.2523
      7 N           5.2861   -1.1674   24.3963 N.am    1  UNL1       -0.2626
      8 C           4.3260   -2.0545   23.6607 C.3     1  UNL1        0.0964
      9 C           5.0723   -3.2775   23.2164 C.3     1  UNL1        0.0390
     10 C           6.4936   -3.1462   23.6775 C.3     1  UNL1        0.0758
     11 C           6.6257   -1.8421   24.4068 C.3     1  UNL1        0.1106
     12 C           3.1011    2.0193   25.4878 C.3     1  UNL1        0.1147
     13 C           0.1392    3.3812   26.9007 C.2     1  UNL1        0.2551
     14 O          -0.7339    4.5415   27.2768 O.2     1  UNL1       -0.2694
     15 N           0.7706    3.3273   25.5411 N.am    1  UNL1       -0.2738
     16 C           0.5289    4.4338   24.5577 C.3     1  UNL1        0.1152
     17 C           1.3331    0.9523   29.6829 C.ar    1  UNL1        0.0296
     18 C           0.1726    0.1920   29.1127 C.ar    1  UNL1        0.0071
     19 C          -0.4159    1.0093   28.0011 C.ar    1  UNL1        0.0115
     20 C           0.3809    2.2747   27.8842 C.ar    1  UNL1        0.0830
     21 S           1.4618    2.2395   28.9236 S.2     1  UNL1       -0.0824
     22 C           3.9662   -0.3924   33.0753 C.ar    1  UNL1       -0.0222
     23 C           3.1801    0.8795   33.1947 C.ar    1  UNL1       -0.0043
     24 C           2.3024    1.3277   32.0639 C.ar    1  UNL1        0.0002
     25 C           2.2108    0.5041   30.8137 C.ar    1  UNL1        0.0060
     26 C           2.9969   -0.7678   30.6943 C.ar    1  UNL1        0.0002
     27 C           3.8746   -1.2160   31.8251 C.ar    1  UNL1       -0.0043
     28 C           4.6103   -0.3139   35.5910 C.3     1  UNL1        0.0050
     29 C           4.8439   -0.8406   34.2061 C.3     1  UNL1        0.0264
     30 N           7.5903   -4.1438   23.4494 N.3     1  UNL1       -0.2982
     31 H           8.4717   -3.6488   23.5853 H       1  UNL1        0.1232
     32 C           7.6587   -5.3874   24.2854 C.3     1  UNL1        0.0540
     33 C           7.1345   -5.5405   25.6825 C.3     1  UNL1        0.0157
     34 C           7.4152   -6.9439   26.1316 C.3     1  UNL1        0.0014
     35 C           8.1127   -7.6581   25.0122 C.3     1  UNL1        0.0014
     36 C           8.2633   -6.6961   23.8711 C.3     1  UNL1        0.0157
@<TRIPOS>BOND
     1    28    29    1
     2    29    22    1
     3    22    23   ar
     4    23    24   ar
     5    24    25   ar
     6    25    17    1
     7    17    18   ar
     8    18    19   ar
     9    19    20   ar
    10    20    13    1
    11    13    14    2
    12    13    15   am
    13    15    16    1
    14     1    15    1
    15     1     2    1
    16     2     3    1
    17     3     4    1
    18     4     5   am
    19     5     6    2
    20     5     7   am
    21     7     8    1
    22     8     9    1
    23     9    10    1
    24    10    30    1
    25    30    32    1
    26    32    33    1
    27    33    34    1
    28    34    35    1
    29    35    36    1
    30    10    11    1
    31     4    12    1
    32    20    21   ar
    33    25    26   ar
    34    26    27   ar
    35    27    22   ar
    36    21    17   ar
    37    12     1    1
    38    11     7    1
    39    36    32    1
    40    30    31    1
@<TRIPOS>MOLECULE
*****
 36 40 0 0 0
SMALL
GASTEIGER

@<TRIPOS>ATOM
      1 C           3.3146    2.1000   32.1127 C.3     1  UNL1        0.0972
      2 C           4.5450    2.1098   31.2549 C.3     1  UNL1        0.0431
      3 C           5.1984    0.7641   31.3662 C.3     1  UNL1        0.0968
      4 N           4.3717   -0.0773   32.2928 N.am    1  UNL1       -0.2623
      5 C           4.6588   -1.4954   32.6886 C.2     1  UNL1        0.3073
      6 O           3.7367   -2.2128   33.6293 O.2     1  UNL1       -0.2523
      7 N           5.8680   -2.1959   32.1436 N.am    1  UNL1       -0.2626
      8 C           6.8753   -1.6102   31.1990 C.3     1  UNL1        0.0964
      9 C           7.9121   -2.6576   30.9191 C.3     1  UNL1        0.0390
     10 C           7.5455   -3.8905   31.6908 C.3     1  UNL1        0.0758
     11 C           6.2822   -3.6052   32.4475 C.3     1  UNL1        0.1106
     12 C           3.2074    0.7483   32.7541 C.3     1  UNL1        0.1147
     13 C           1.1994    3.4074   31.3597 C.2     1  UNL1        0.2551
     14 O           0.2439    4.5489   31.5437 O.2     1  UNL1       -0.2694
     15 N           2.3590    3.2415   32.2967 N.am    1  UNL1       -0.2738
     16 C           2.5630    4.2171   33.4176 C.3     1  UNL1        0.1152
     17 C           1.0542    1.3864   28.0492 C.ar    1  UNL1        0.0296
     18 C           0.3087    0.4748   28.9782 C.ar    1  UNL1        0.0071
     19 C           0.2723    1.1209   30.3315 C.ar    1  UNL1        0.0115
     20 C           0.9954    2.4318   30.2388 C.ar    1  UNL1        0.0830
     21 S           1.4786    2.5959   28.8282 S.2     1  UNL1       -0.0824
     22 C           1.8737    0.6261   23.6902 C.ar    1  UNL1       -0.0222
     23 C           2.8371    0.1374   24.7308 C.ar    1  UNL1       -0.0043
     24 C           2.5639    0.3908   26.1838 C.ar    1  UNL1        0.0002
     25 C           1.3274    1.1330   26.5962 C.ar    1  UNL1        0.0060
     26 C           0.3640    1.6217   25.5555 C.ar    1  UNL1        0.0002
     27 C           0.6372    1.3683   24.1026 C.ar    1  UNL1       -0.0043
     28 C           2.9782   -0.8057   21.8248 C.3     1  UNL1        0.0050
     29 C           2.1469    0.3727   22.2372 C.3     1  UNL1        0.0264
     30 N           8.3083   -5.1820   31.7034 N.3     1  UNL1       -0.2982
     31 H           7.8687   -5.7768   32.4058 H       1  UNL1        0.1232
     32 C           8.4188   -6.0001   30.4510 C.3     1  UNL1        0.0540
     33 C           7.5531   -5.8689   29.2330 C.3     1  UNL1        0.0157
     34 C           8.0136   -6.8807   28.2259 C.3     1  UNL1        0.0014
     35 C           9.1638   -7.6372   28.8215 C.3     1  UNL1        0.0014
     36 C           9.4142   -7.0929   30.1967 C.3     1  UNL1        0.0157
@<TRIPOS>BOND
     1    28    29    1
     2    29    22    1
     3    22    23   ar
     4    23    24   ar
     5    24    25   ar
     6    25    17    1
     7    17    18   ar
     8    18    19   ar
     9    19    20   ar
    10    20    13    1
    11    13    14    2
    12    13    15   am
    13    15    16    1
    14     1    15    1
    15     1     2    1
    16     2     3    1
    17     3     4    1
    18     4     5   am
    19     5     6    2
    20     5     7   am
    21     7     8    1
    22     8     9    1
    23     9    10    1
    24    10    30    1
    25    30    32    1
    26    32    33    1
    27    33    34    1
    28    34    35    1
    29    35    36    1
    30    10    11    1
    31     4    12    1
    32    20    21   ar
    33    25    26   ar
    34    26    27   ar
    35    27    22   ar
    36    21    17   ar
    37    12     1    1
    38    11     7    1
    39    36    32    1
    40    30    31    1
@<TRIPOS>MOLECULE
*****
 36 40 0 0 0
SMALL
GASTEIGER

@<TRIPOS>ATOM
      1 C           3.2290    1.5803   20.3738 C.3     1  UNL1        0.0972
      2 C           1.7526    1.4648   20.6124 C.3     1  UNL1        0.0431
      3 C           1.5231    1.4394   22.0945 C.3     1  UNL1        0.0968
      4 N           2.8576    1.5392   22.7720 N.am    1  UNL1       -0.2623
      5 C           3.0960    1.5500   24.2529 C.2     1  UNL1        0.3073
      6 O           4.4938    1.6554   24.7868 O.2     1  UNL1       -0.2523
      7 N           1.9366    1.4553   25.1999 N.am    1  UNL1       -0.2626
      8 C           0.4909    1.3454   24.8154 C.3     1  UNL1        0.0964
      9 C          -0.3199    1.2761   26.0755 C.3     1  UNL1        0.0390
     10 C           0.6247    1.3433   27.2388 C.3     1  UNL1        0.0758
     11 C           2.0193    1.4540   26.6976 C.3     1  UNL1        0.1106
     12 C           3.9119    1.6263   21.7086 C.3     1  UNL1        0.1147
     13 C           4.6006    0.4270   18.4927 C.2     1  UNL1        0.2551
     14 O           5.2756    0.4862   17.1545 O.2     1  UNL1       -0.2694
     15 N           3.9040    1.6395   19.0356 N.am    1  UNL1       -0.2738
     16 C           3.8823    2.9110   18.2402 C.3     1  UNL1        0.1152
     17 C           5.3437   -2.6345   20.7600 C.ar    1  UNL1        0.0296
     18 C           3.9679   -2.9682   20.2640 C.ar    1  UNL1        0.0071
     19 C           3.5221   -1.8620   19.3543 C.ar    1  UNL1        0.0115
     20 C           4.6223   -0.8445   19.2881 C.ar    1  UNL1        0.0830
     21 S           5.7481   -1.3220   20.1568 S.2     1  UNL1       -0.0824
     22 C           7.8223   -5.1322   23.5650 C.ar    1  UNL1       -0.0222
     23 C           8.2500   -4.9593   22.1377 C.ar    1  UNL1       -0.0043
     24 C           7.4238   -4.1268   21.2027 C.ar    1  UNL1        0.0002
     25 C           6.1699   -3.4670   21.6950 C.ar    1  UNL1        0.0060
     26 C           5.7422   -3.6399   23.1223 C.ar    1  UNL1        0.0002
     27 C           6.5684   -4.4725   24.0572 C.ar    1  UNL1       -0.0043
     28 C           8.3985   -7.4396   24.6108 C.3     1  UNL1        0.0050
     29 C           8.6485   -5.9648   24.4999 C.3     1  UNL1        0.0264
     30 N           0.2419    1.3061   28.6886 N.3     1  UNL1       -0.2982
     31 H          -0.5666    0.6888   28.7640 H       1  UNL1        0.1232
     32 C           1.2347    0.8467   29.7149 C.3     1  UNL1        0.0540
     33 C           1.9452   -0.4744   29.7248 C.3     1  UNL1        0.0157
     34 C           2.8409   -0.5100   30.9275 C.3     1  UNL1        0.0014
     35 C           2.6841    0.7891   31.6608 C.3     1  UNL1        0.0014
     36 C           1.6914    1.6276   30.9113 C.3     1  UNL1        0.0157
@<TRIPOS>BOND
     1    28    29    1
     2    29    22    1
     3    22    23   ar
     4    23    24   ar
     5    24    25   ar
     6    25    17    1
     7    17    18   ar
     8    18    19   ar
     9    19    20   ar
    10    20    13    1
    11    13    14    2
    12    13    15   am
    13    15    16    1
    14     1    15    1
    15     1     2    1
    16     2     3    1
    17     3     4    1
    18     4     5   am
    19     5     6    2
    20     5     7   am
    21     7     8    1
    22     8     9    1
    23     9    10    1
    24    10    30    1
    25    30    32    1
    26    32    33    1
    27    33    34    1
    28    34    35    1
    29    35    36    1
    30    10    11    1
    31     4    12    1
    32    20    21   ar
    33    25    26   ar
    34    26    27   ar
    35    27    22   ar
    36    21    17   ar
    37    12     1    1
    38    11     7    1
    39    36    32    1
    40    30    31    1
