@<TRIPOS>MOLECULE
*****
 40 43 0 0 0
SMALL
GASTEIGER

@<TRIPOS>ATOM
      1 C           0.6481    0.5892   28.2090 C.2     1  UNL1        0.2257
      2 O           1.8686   -0.0337   28.8192 O.2     1  UNL1       -0.2749
      3 N           0.7182    1.1869   26.8350 N.am    1  UNL1       -0.2778
      4 C          -0.5023    1.8098   26.2248 C.3     1  UNL1        0.0936
      5 C          -0.4321    2.4075   24.8509 C.3     1  UNL1        0.0246
      6 C           0.8586    2.3824   24.0871 C.3     1  UNL1        0.0374
      7 C           2.0791    1.7595   24.6973 C.3     1  UNL1        0.0942
      8 C           2.0089    1.1618   26.0712 C.3     1  UNL1        0.1129
      9 N           3.3699    1.7344   23.9335 N.am    1  UNL1       -0.2885
     10 C           3.7606    0.5093   23.1611 C.2     1  UNL1        0.3059
     11 O           2.8606   -0.6906   23.1525 O.2     1  UNL1       -0.2524
     12 N           5.0514    0.4842   22.3973 N.am    1  UNL1       -0.2485
     13 H           3.9606    2.5219   23.9391 H       1  UNL1        0.1510
     14 H           5.6421    1.2717   22.4029 H       1  UNL1        0.1583
     15 C           5.4421   -0.7409   21.6249 C.ar    1  UNL1        0.1664
     16 N           4.6043   -1.4376   20.5941 N.ar    1  UNL1       -0.2282
     17 C           5.3836   -2.6116   20.0798 C.ar    1  UNL1        0.0701
     18 C           4.9242   -3.5858   19.0358 C.3     1  UNL1        0.0528
     19 C           6.7030   -2.6405   20.7929 C.ar    1  UNL1        0.0803
     20 S           6.7391   -1.4843   21.7479 S.2     1  UNL1       -0.0488
     21 C           7.7945   -3.6486   20.5872 C.2     1  UNL1        0.1807
     22 C           9.1071   -3.2231   19.9990 C.3     1  UNL1        0.0779
     23 O           7.5734   -5.0820   20.9697 O.2     1  UNL1       -0.2908
     24 C          -1.5742   -0.5597   28.9100 C.3     1  UNL1        0.0101
     25 C          -0.6426    0.6143   28.9728 C.3     1  UNL1        0.0853
     26 C           0.9288    2.9801   22.7131 C.3     1  UNL1        0.0738
     27 N           1.1671    2.0987   21.5230 N.3     1  UNL1       -0.2726
     28 C           0.3922    0.8239   21.3667 C.3     1  UNL1        0.0721
     29 C           0.6305   -0.0575   20.1766 C.3     1  UNL1        0.0174
     30 C           1.6437    0.3358   19.1429 C.3     1  UNL1        0.0031
     31 C           2.4186    1.6106   19.2992 C.3     1  UNL1        0.0204
     32 C           2.1803    2.4920   20.4893 C.3     1  UNL1        0.0724
     33 C           3.4318    2.0039   18.2654 C.3     1  UNL1        0.0277
     34 C           4.8257    1.4541   18.3341 C.ar    1  UNL1       -0.0220
     35 C           5.8336    2.0781   19.2533 C.ar    1  UNL1       -0.0020
     36 C           7.2275    1.5283   19.3220 C.ar    1  UNL1        0.0293
     37 C           7.6136    0.3546   18.4716 C.ar    1  UNL1        0.1401
     38 F           9.0075   -0.1952   18.5403 F       1  UNL1       -0.2042
     39 C           6.6057   -0.2694   17.5525 C.ar    1  UNL1        0.0293
     40 C           5.2118    0.2804   17.4837 C.ar    1  UNL1       -0.0020
@<TRIPOS>BOND
     1    24    25    1
     2    25     1    1
     3     1     2    2
     4     1     3   am
     5     3     4    1
     6     4     5    1
     7     5     6    1
     8     6    26    1
     9    26    27    1
    10    27    28    1
    11    28    29    1
    12    29    30    1
    13    30    31    1
    14    31    33    1
    15    33    34    1
    16    34    35   ar
    17    35    36   ar
    18    36    37   ar
    19    37    38    1
    20    37    39   ar
    21    39    40   ar
    22    31    32    1
    23     6     7    1
    24     7     9    1
    25     9    10   am
    26    10    11    2
    27    10    12   am
    28    12    15    1
    29    15    16   ar
    30    16    17   ar
    31    17    18    1
    32    17    19   ar
    33    19    21    1
    34    21    22    1
    35    21    23    2
    36    19    20   ar
    37     7     8    1
    38     8     3    1
    39    32    27    1
    40    20    15   ar
    41    40    34   ar
    42     9    13    1
    43    12    14    1
@<TRIPOS>MOLECULE
*****
 40 43 0 0 0
SMALL
GASTEIGER

@<TRIPOS>ATOM
      1 C           0.4818    0.2219   29.0497 C.2     1  UNL1        0.2257
      2 O           1.5433   -0.3741   29.9260 O.2     1  UNL1       -0.2749
      3 N           0.8458    0.7847   27.7078 N.am    1  UNL1       -0.2778
      4 C          -0.2158    1.3807   26.8315 C.3     1  UNL1        0.0936
      5 C           0.1482    1.9435   25.4896 C.3     1  UNL1        0.0246
      6 C           1.5737    1.9103   25.0239 C.3     1  UNL1        0.0374
      7 C           2.6352    1.3143   25.9002 C.3     1  UNL1        0.0942
      8 C           2.2712    0.7515   27.2421 C.3     1  UNL1        0.1129
      9 N           4.0608    1.2811   25.4346 N.am    1  UNL1       -0.2885
     10 C           4.6421    0.0106   24.8890 C.2     1  UNL1        0.3059
     11 O           3.7980   -1.2268   24.8090 O.2     1  UNL1       -0.2524
     12 N           6.0677   -0.0226   24.4233 N.am    1  UNL1       -0.2485
     13 H           4.6148    2.0932   25.4871 H       1  UNL1        0.1510
     14 H           6.6217    0.7895   24.4758 H       1  UNL1        0.1583
     15 C           6.6491   -1.2931   23.8777 C.ar    1  UNL1        0.1664
     16 N           7.1357   -2.4588   24.6868 N.ar    1  UNL1       -0.2282
     17 C           7.6333   -3.5072   23.7364 C.ar    1  UNL1        0.0701
     18 C           8.2089   -4.8394   24.1158 C.3     1  UNL1        0.0528
     19 C           7.4542   -2.9895   22.3399 C.ar    1  UNL1        0.0803
     20 S           6.8459   -1.6211   22.4273 S.2     1  UNL1       -0.0488
     21 C           7.8193   -3.7131   21.0777 C.2     1  UNL1        0.1807
     22 C           8.5112   -2.9805   19.9666 C.3     1  UNL1        0.0779
     23 O           7.4925   -5.1693   20.9267 O.2     1  UNL1       -0.2908
     24 C          -1.9200   -0.7681   29.0155 C.3     1  UNL1        0.0101
     25 C          -0.9437    0.2551   29.5154 C.3     1  UNL1        0.0853
     26 C           1.9376    2.4731   23.6820 C.3     1  UNL1        0.0738
     27 N           1.8360    1.6148   22.4561 N.3     1  UNL1       -0.2726
     28 C           0.4891    1.2315   21.9184 C.3     1  UNL1        0.0721
     29 C           0.3874    0.3732   20.6925 C.3     1  UNL1        0.0174
     30 C           1.6326   -0.1020   20.0042 C.3     1  UNL1        0.0031
     31 C           2.9795    0.2813   20.5418 C.3     1  UNL1        0.0204
     32 C           3.0812    1.1396   21.7678 C.3     1  UNL1        0.0724
     33 C           4.2247   -0.1939   19.8536 C.3     1  UNL1        0.0277
     34 C           4.4037   -1.6517   19.5492 C.ar    1  UNL1       -0.0220
     35 C           3.8231   -2.6863   20.4672 C.ar    1  UNL1       -0.0020
     36 C           4.0021   -4.1441   20.1629 C.ar    1  UNL1        0.0293
     37 C           4.7617   -4.5674   18.9407 C.ar    1  UNL1        0.1401
     38 F           4.9407   -6.0253   18.6364 F       1  UNL1       -0.2042
     39 C           5.3423   -3.5329   18.0227 C.ar    1  UNL1        0.0293
     40 C           5.1633   -2.0750   18.3270 C.ar    1  UNL1       -0.0020
@<TRIPOS>BOND
     1    24    25    1
     2    25     1    1
     3     1     2    2
     4     1     3   am
     5     3     4    1
     6     4     5    1
     7     5     6    1
     8     6    26    1
     9    26    27    1
    10    27    28    1
    11    28    29    1
    12    29    30    1
    13    30    31    1
    14    31    33    1
    15    33    34    1
    16    34    35   ar
    17    35    36   ar
    18    36    37   ar
    19    37    38    1
    20    37    39   ar
    21    39    40   ar
    22    31    32    1
    23     6     7    1
    24     7     9    1
    25     9    10   am
    26    10    11    2
    27    10    12   am
    28    12    15    1
    29    15    16   ar
    30    16    17   ar
    31    17    18    1
    32    17    19   ar
    33    19    21    1
    34    21    22    1
    35    21    23    2
    36    19    20   ar
    37     7     8    1
    38     8     3    1
    39    32    27    1
    40    20    15   ar
    41    40    34   ar
    42     9    13    1
    43    12    14    1
@<TRIPOS>MOLECULE
*****
 40 43 0 0 0
SMALL
GASTEIGER

@<TRIPOS>ATOM
      1 C           0.0495    1.0917   27.9256 C.2     1  UNL1        0.2257
      2 O          -0.5120    2.0432   26.9110 O.2     1  UNL1       -0.2749
      3 N           1.4374    0.5485   27.7568 N.am    1  UNL1       -0.2778
      4 C           1.9989   -0.4030   28.7713 C.3     1  UNL1        0.0936
      5 C           3.3869   -0.9462   28.6026 C.3     1  UNL1        0.0246
      6 C           4.2134   -0.5379   27.4193 C.3     1  UNL1        0.0374
      7 C           3.6519    0.4136   26.4048 C.3     1  UNL1        0.0942
      8 C           2.2639    0.9568   26.5735 C.3     1  UNL1        0.1129
      9 N           4.4783    0.8219   25.2214 N.am    1  UNL1       -0.2885
     10 C           4.2185    0.2084   23.8775 C.2     1  UNL1        0.3059
     11 O           3.1322   -0.8134   23.7169 O.2     1  UNL1       -0.2524
     12 N           5.0450    0.6167   22.6942 N.am    1  UNL1       -0.2485
     13 H           5.1913    1.4926   25.3268 H       1  UNL1        0.1510
     14 H           5.7579    1.2874   22.7996 H       1  UNL1        0.1583
     15 C           4.7851    0.0032   21.3503 C.ar    1  UNL1        0.1664
     16 N           3.9561    0.6023   20.2531 N.ar    1  UNL1       -0.2282
     17 C           3.9673   -0.3477   19.0923 C.ar    1  UNL1        0.0701
     18 C           3.2657   -0.1469   17.7818 C.3     1  UNL1        0.0528
     19 C           4.8032   -1.5340   19.4722 C.ar    1  UNL1        0.0803
     20 S           5.3086   -1.3170   20.8677 S.2     1  UNL1       -0.0488
     21 C           5.0843   -2.7275   18.6082 C.2     1  UNL1        0.1807
     22 C           4.4216   -4.0403   18.9041 C.3     1  UNL1        0.0779
     23 O           6.0280   -2.6083   17.4484 O.2     1  UNL1       -0.2908
     24 C          -1.6993   -0.4952   29.0087 C.3     1  UNL1        0.0101
     25 C          -0.7770    0.6834   29.1089 C.3     1  UNL1        0.0853
     26 C           5.6013   -1.0811   27.2505 C.3     1  UNL1        0.0738
     27 N           6.0682   -2.2240   28.1025 N.3     1  UNL1       -0.2726
     28 C           5.9995   -3.6276   27.5778 C.3     1  UNL1        0.0721
     29 C           6.4663   -4.7705   28.4297 C.3     1  UNL1        0.0174
     30 C           7.0018   -4.5099   29.8064 C.3     1  UNL1        0.0031
     31 C           7.0706   -3.1064   30.3311 C.3     1  UNL1        0.0204
     32 C           6.6037   -1.9634   29.4792 C.3     1  UNL1        0.0724
     33 C           7.6061   -2.8457   31.7078 C.3     1  UNL1        0.0277
     34 C           6.7577   -2.1357   32.7206 C.ar    1  UNL1       -0.0220
     35 C           7.3445   -1.0312   33.5488 C.ar    1  UNL1       -0.0020
     36 C           6.4961   -0.3211   34.5616 C.ar    1  UNL1        0.0293
     37 C           5.0607   -0.7155   34.7464 C.ar    1  UNL1        0.1401
     38 F           4.2122   -0.0054   35.7592 F       1  UNL1       -0.2042
     39 C           4.4738   -1.8199   33.9183 C.ar    1  UNL1        0.0293
     40 C           5.3223   -2.5301   32.9054 C.ar    1  UNL1       -0.0020
@<TRIPOS>BOND
     1    24    25    1
     2    25     1    1
     3     1     2    2
     4     1     3   am
     5     3     4    1
     6     4     5    1
     7     5     6    1
     8     6    26    1
     9    26    27    1
    10    27    28    1
    11    28    29    1
    12    29    30    1
    13    30    31    1
    14    31    33    1
    15    33    34    1
    16    34    35   ar
    17    35    36   ar
    18    36    37   ar
    19    37    38    1
    20    37    39   ar
    21    39    40   ar
    22    31    32    1
    23     6     7    1
    24     7     9    1
    25     9    10   am
    26    10    11    2
    27    10    12   am
    28    12    15    1
    29    15    16   ar
    30    16    17   ar
    31    17    18    1
    32    17    19   ar
    33    19    21    1
    34    21    22    1
    35    21    23    2
    36    19    20   ar
    37     7     8    1
    38     8     3    1
    39    32    27    1
    40    20    15   ar
    41    40    34   ar
    42     9    13    1
    43    12    14    1
@<TRIPOS>MOLECULE
*****
 40 43 0 0 0
SMALL
GASTEIGER

@<TRIPOS>ATOM
      1 C           1.3669    0.3133   29.3304 C.2     1  UNL1        0.2257
      2 O           1.9040   -0.0442   30.6845 O.2     1  UNL1       -0.2749
      3 N           2.2589    0.2410   28.1266 N.am    1  UNL1       -0.2778
      4 C           1.7218    0.5985   26.7725 C.3     1  UNL1        0.0936
      5 C           2.6138    0.5262   25.5688 C.3     1  UNL1        0.0246
      6 C           4.0430    0.0963   25.7191 C.3     1  UNL1        0.0374
      7 C           4.5801   -0.2612   27.0732 C.3     1  UNL1        0.0942
      8 C           3.6881   -0.1889   28.2769 C.3     1  UNL1        0.1129
      9 N           6.0094   -0.6911   27.2236 N.am    1  UNL1       -0.2885
     10 C           6.3436   -2.1461   27.3689 C.2     1  UNL1        0.3059
     11 O           5.2486   -3.1713   27.3639 O.2     1  UNL1       -0.2524
     12 N           7.7728   -2.5760   27.5193 N.am    1  UNL1       -0.2485
     13 H           6.7280   -0.0182   27.2269 H       1  UNL1        0.1510
     14 H           8.4915   -1.9031   27.5226 H       1  UNL1        0.1583
     15 C           8.1071   -4.0310   27.6647 C.ar    1  UNL1        0.1664
     16 N           8.6136   -4.6993   28.9084 N.ar    1  UNL1       -0.2282
     17 C           8.8130   -6.1545   28.6043 C.ar    1  UNL1        0.0701
     18 C           9.3087   -7.1959   29.5635 C.3     1  UNL1        0.0528
     19 C           8.4298   -6.3857   27.1726 C.ar    1  UNL1        0.0803
     20 S           7.9935   -5.0733   26.5919 S.2     1  UNL1       -0.0488
     21 C           8.4749   -7.6986   26.4487 C.2     1  UNL1        0.1807
     22 C           9.3289   -7.8514   25.2250 C.3     1  UNL1        0.0779
     23 O           7.6660   -8.8588   26.9485 O.2     1  UNL1       -0.2908
     24 C          -1.1291   -0.2782   28.9178 C.3     1  UNL1        0.0101
     25 C          -0.0623    0.7431   29.1800 C.3     1  UNL1        0.0853
     26 C           4.9350    0.0240   24.5153 C.3     1  UNL1        0.0738
     27 N           4.8922   -1.1797   23.6214 N.3     1  UNL1       -0.2726
     28 C           5.6232   -2.4302   24.0116 C.3     1  UNL1        0.0721
     29 C           5.5804   -3.6339   23.1177 C.3     1  UNL1        0.0174
     30 C           4.8067   -3.5873   21.8334 C.3     1  UNL1        0.0031
     31 C           4.0758   -2.3369   21.4432 C.3     1  UNL1        0.0204
     32 C           4.1185   -1.1331   22.3372 C.3     1  UNL1        0.0724
     33 C           3.3020   -2.2903   20.1590 C.3     1  UNL1        0.0277
     34 C           2.6155   -1.0233   19.7426 C.ar    1  UNL1       -0.0220
     35 C           1.2249   -0.7310   20.2231 C.ar    1  UNL1       -0.0020
     36 C           0.5383    0.5360   19.8068 C.ar    1  UNL1        0.0293
     37 C           1.2423    1.5106   18.9099 C.ar    1  UNL1        0.1401
     38 F           0.5557    2.7776   18.4935 F       1  UNL1       -0.2042
     39 C           2.6328    1.2184   18.4293 C.ar    1  UNL1        0.0293
     40 C           3.3195   -0.0486   18.8457 C.ar    1  UNL1       -0.0020
@<TRIPOS>BOND
     1    24    25    1
     2    25     1    1
     3     1     2    2
     4     1     3   am
     5     3     4    1
     6     4     5    1
     7     5     6    1
     8     6    26    1
     9    26    27    1
    10    27    28    1
    11    28    29    1
    12    29    30    1
    13    30    31    1
    14    31    33    1
    15    33    34    1
    16    34    35   ar
    17    35    36   ar
    18    36    37   ar
    19    37    38    1
    20    37    39   ar
    21    39    40   ar
    22    31    32    1
    23     6     7    1
    24     7     9    1
    25     9    10   am
    26    10    11    2
    27    10    12   am
    28    12    15    1
    29    15    16   ar
    30    16    17   ar
    31    17    18    1
    32    17    19   ar
    33    19    21    1
    34    21    22    1
    35    21    23    2
    36    19    20   ar
    37     7     8    1
    38     8     3    1
    39    32    27    1
    40    20    15   ar
    41    40    34   ar
    42     9    13    1
    43    12    14    1
@<TRIPOS>MOLECULE
*****
 40 43 0 0 0
SMALL
GASTEIGER

@<TRIPOS>ATOM
      1 C           2.4238   -0.1968   30.1954 C.2     1  UNL1        0.2257
      2 O           0.9909   -0.4941   29.8666 O.2     1  UNL1       -0.2749
      3 N           3.4934   -0.4348   29.1710 N.am    1  UNL1       -0.2778
      4 C           4.9263   -0.1375   29.4997 C.3     1  UNL1        0.0936
      5 C           5.9959   -0.3756   28.4753 C.3     1  UNL1        0.0246
      6 C           5.6324   -0.9110   27.1221 C.3     1  UNL1        0.0374
      7 C           4.1995   -1.2083   26.7933 C.3     1  UNL1        0.0942
      8 C           3.1300   -0.9702   27.8177 C.3     1  UNL1        0.1129
      9 N           3.8360   -1.7438   25.4401 N.am    1  UNL1       -0.2885
     10 C           3.7345   -0.8134   24.2679 C.2     1  UNL1        0.3059
     11 O           3.9965    0.6524   24.4488 O.2     1  UNL1       -0.2524
     12 N           3.3710   -1.3489   22.9146 N.am    1  UNL1       -0.2485
     13 H           3.6640   -2.7058   25.3213 H       1  UNL1        0.1510
     14 H           3.1990   -2.3109   22.7958 H       1  UNL1        0.1583
     15 C           3.2696   -0.4185   21.7424 C.ar    1  UNL1        0.1664
     16 N           4.4160    0.0956   20.9230 N.ar    1  UNL1       -0.2282
     17 C           3.8589    0.9929   19.8580 C.ar    1  UNL1        0.0701
     18 C           4.6530    1.7218   18.8149 C.3     1  UNL1        0.0528
     19 C           2.3680    1.0335   20.0191 C.ar    1  UNL1        0.0803
     20 S           2.0039    0.1611   21.1838 S.2     1  UNL1       -0.0488
     21 C           1.4097    1.8100   19.1655 C.2     1  UNL1        0.1807
     22 C           1.2707    3.2918   19.3517 C.3     1  UNL1        0.0779
     23 O           0.5904    1.1046   18.1257 O.2     1  UNL1       -0.2908
     24 C           2.4648    1.7598   31.9042 C.3     1  UNL1        0.0101
     25 C           2.7873    0.3387   31.5486 C.3     1  UNL1        0.0853
     26 C           6.7020   -1.1490   26.0977 C.3     1  UNL1        0.0738
     27 N           6.8825   -2.5153   25.5055 N.3     1  UNL1       -0.2726
     28 C           6.7738   -3.7310   26.3774 C.3     1  UNL1        0.0721
     29 C           6.9543   -5.0973   25.7851 C.3     1  UNL1        0.0174
     30 C           7.2434   -5.2478   24.3210 C.3     1  UNL1        0.0031
     31 C           7.3521   -4.0321   23.4491 C.3     1  UNL1        0.0204
     32 C           7.1716   -2.6658   24.0413 C.3     1  UNL1        0.0724
     33 C           7.6412   -4.1826   21.9849 C.3     1  UNL1        0.0277
     34 C           6.6617   -3.6713   20.9705 C.ar    1  UNL1       -0.0220
     35 C           7.1423   -2.8480   19.8124 C.ar    1  UNL1       -0.0020
     36 C           6.1628   -2.3366   18.7980 C.ar    1  UNL1        0.0293
     37 C           4.7026   -2.6485   18.9417 C.ar    1  UNL1        0.1401
     38 F           3.7231   -2.1371   17.9273 F       1  UNL1       -0.2042
     39 C           4.2220   -3.4717   20.0998 C.ar    1  UNL1        0.0293
     40 C           5.2015   -3.9831   21.1143 C.ar    1  UNL1       -0.0020
@<TRIPOS>BOND
     1    24    25    1
     2    25     1    1
     3     1     2    2
     4     1     3   am
     5     3     4    1
     6     4     5    1
     7     5     6    1
     8     6    26    1
     9    26    27    1
    10    27    28    1
    11    28    29    1
    12    29    30    1
    13    30    31    1
    14    31    33    1
    15    33    34    1
    16    34    35   ar
    17    35    36   ar
    18    36    37   ar
    19    37    38    1
    20    37    39   ar
    21    39    40   ar
    22    31    32    1
    23     6     7    1
    24     7     9    1
    25     9    10   am
    26    10    11    2
    27    10    12   am
    28    12    15    1
    29    15    16   ar
    30    16    17   ar
    31    17    18    1
    32    17    19   ar
    33    19    21    1
    34    21    22    1
    35    21    23    2
    36    19    20   ar
    37     7     8    1
    38     8     3    1
    39    32    27    1
    40    20    15   ar
    41    40    34   ar
    42     9    13    1
    43    12    14    1
@<TRIPOS>MOLECULE
*****
 40 43 0 0 0
SMALL
GASTEIGER

@<TRIPOS>ATOM
      1 C           1.3897    1.3000   29.0700 C.2     1  UNL1        0.2257
      2 O           1.0421   -0.1048   29.4644 O.2     1  UNL1       -0.2749
      3 N           1.8435    1.5959   27.6713 N.am    1  UNL1       -0.2778
      4 C           2.1911    3.0007   27.2769 C.3     1  UNL1        0.0936
      5 C           2.6450    3.2966   25.8782 C.3     1  UNL1        0.0246
      6 C           2.7512    2.1876   24.8738 C.3     1  UNL1        0.0374
      7 C           2.4036    0.7828   25.2682 C.3     1  UNL1        0.0942
      8 C           1.9498    0.4869   26.6669 C.3     1  UNL1        0.1129
      9 N           2.5099   -0.3263   24.2638 N.am    1  UNL1       -0.2885
     10 C           3.8344   -0.9820   24.0078 C.2     1  UNL1        0.3059
     11 O           5.0528   -0.5286   24.7561 O.2     1  UNL1       -0.2524
     12 N           3.9407   -2.0910   23.0034 N.am    1  UNL1       -0.2485
     13 H           1.7102   -0.6238   23.7726 H       1  UNL1        0.1510
     14 H           3.1410   -2.3886   22.5122 H       1  UNL1        0.1583
     15 C           5.2652   -2.7467   22.7474 C.ar    1  UNL1        0.1664
     16 N           6.2328   -2.3845   21.6599 N.ar    1  UNL1       -0.2282
     17 C           7.4203   -3.2936   21.7743 C.ar    1  UNL1        0.0701
     18 C           8.6293   -3.2808   20.8864 C.3     1  UNL1        0.0528
     19 C           7.1867   -4.2178   22.9325 C.ar    1  UNL1        0.0803
     20 S           5.8548   -3.8798   23.5339 S.2     1  UNL1       -0.0488
     21 C           8.1210   -5.2915   23.4061 C.2     1  UNL1        0.1807
     22 C           8.7136   -5.2166   24.7821 C.3     1  UNL1        0.0779
     23 O           8.4628   -6.4400   22.5038 O.2     1  UNL1       -0.2908
     24 C           0.7967    2.1190   31.4633 C.3     1  UNL1        0.0101
     25 C           1.2834    2.4090   30.0744 C.3     1  UNL1        0.0853
     26 C           3.2051    2.4835   23.4751 C.3     1  UNL1        0.0738
     27 N           2.4254    1.9575   22.3066 N.3     1  UNL1       -0.2726
     28 C           0.9260    1.9960   22.3269 C.3     1  UNL1        0.0721
     29 C           0.1463    1.4701   21.1584 C.3     1  UNL1        0.0174
     30 C           0.8659    0.9057   19.9695 C.3     1  UNL1        0.0031
     31 C           2.3653    0.8672   19.9491 C.3     1  UNL1        0.0204
     32 C           3.1451    1.3931   21.1176 C.3     1  UNL1        0.0724
     33 C           3.0849    0.3028   18.7601 C.3     1  UNL1        0.0277
     34 C           3.6124   -1.1008   18.7995 C.ar    1  UNL1       -0.0220
     35 C           4.8854   -1.4440   18.0840 C.ar    1  UNL1       -0.0020
     36 C           5.4129   -2.8476   18.1234 C.ar    1  UNL1        0.0293
     37 C           4.6675   -3.9081   18.8783 C.ar    1  UNL1        0.1401
     38 F           5.1950   -5.3117   18.9176 F       1  UNL1       -0.2042
     39 C           3.3946   -3.5649   19.5937 C.ar    1  UNL1        0.0293
     40 C           2.8670   -2.1613   19.5544 C.ar    1  UNL1       -0.0020
@<TRIPOS>BOND
     1    24    25    1
     2    25     1    1
     3     1     2    2
     4     1     3   am
     5     3     4    1
     6     4     5    1
     7     5     6    1
     8     6    26    1
     9    26    27    1
    10    27    28    1
    11    28    29    1
    12    29    30    1
    13    30    31    1
    14    31    33    1
    15    33    34    1
    16    34    35   ar
    17    35    36   ar
    18    36    37   ar
    19    37    38    1
    20    37    39   ar
    21    39    40   ar
    22    31    32    1
    23     6     7    1
    24     7     9    1
    25     9    10   am
    26    10    11    2
    27    10    12   am
    28    12    15    1
    29    15    16   ar
    30    16    17   ar
    31    17    18    1
    32    17    19   ar
    33    19    21    1
    34    21    22    1
    35    21    23    2
    36    19    20   ar
    37     7     8    1
    38     8     3    1
    39    32    27    1
    40    20    15   ar
    41    40    34   ar
    42     9    13    1
    43    12    14    1
@<TRIPOS>MOLECULE
*****
 40 43 0 0 0
SMALL
GASTEIGER

@<TRIPOS>ATOM
      1 C           7.4816   -6.2711   26.9159 C.2     1  UNL1        0.2257
      2 O           7.3280   -6.0842   28.3962 O.2     1  UNL1       -0.2749
      3 N           7.3006   -5.1049   25.9900 N.am    1  UNL1       -0.2778
      4 C           7.4541   -5.2917   24.5096 C.3     1  UNL1        0.0936
      5 C           7.2731   -4.1256   23.5837 C.3     1  UNL1        0.0246
      6 C           6.9386   -2.7726   24.1382 C.3     1  UNL1        0.0374
      7 C           6.7850   -2.5857   25.6185 C.3     1  UNL1        0.0942
      8 C           6.9660   -3.7519   26.5444 C.3     1  UNL1        0.1129
      9 N           6.4505   -1.2327   26.1730 N.am    1  UNL1       -0.2885
     10 C           5.0323   -0.8976   26.5287 C.2     1  UNL1        0.3059
     11 O           3.9487   -1.9156   26.3299 O.2     1  UNL1       -0.2524
     12 N           4.6977    0.4554   27.0832 N.am    1  UNL1       -0.2485
     13 H           7.1617   -0.5646   26.3035 H       1  UNL1        0.1510
     14 H           5.4090    1.1235   27.2137 H       1  UNL1        0.1583
     15 C           3.2796    0.7905   27.4389 C.ar    1  UNL1        0.1664
     16 N           2.2049    1.2073   26.4791 N.ar    1  UNL1       -0.2282
     17 C           0.9482    1.4420   27.2638 C.ar    1  UNL1        0.0701
     18 C          -0.3744    1.8728   26.7023 C.3     1  UNL1        0.0528
     19 C           1.2463    1.1702   28.7086 C.ar    1  UNL1        0.0803
     20 S           2.6872    0.7676   28.8168 S.2     1  UNL1       -0.0488
     21 C           0.2742    1.2815   29.8455 C.2     1  UNL1        0.1807
     22 C           0.5304    2.2536   30.9588 C.3     1  UNL1        0.0779
     23 O          -0.9541    0.4208   29.8691 O.2     1  UNL1       -0.2908
     24 C           8.2796   -8.7167   27.2786 C.3     1  UNL1        0.0101
     25 C           7.8161   -7.6240   26.3614 C.3     1  UNL1        0.0853
     26 C           6.7576   -1.6064   23.2122 C.3     1  UNL1        0.0738
     27 N           6.3764   -1.8379   21.7801 N.3     1  UNL1       -0.2726
     28 C           7.4421   -2.0226   20.7407 C.3     1  UNL1        0.0721
     29 C           7.0609   -2.2541   19.3086 C.3     1  UNL1        0.0174
     30 C           5.6140   -2.3010   18.9158 C.3     1  UNL1        0.0031
     31 C           4.5483   -2.1164   19.9551 C.3     1  UNL1        0.0204
     32 C           4.9295   -1.8848   21.3873 C.3     1  UNL1        0.0724
     33 C           3.1014   -2.1633   19.5623 C.3     1  UNL1        0.0277
     34 C           2.3095   -0.8933   19.4635 C.ar    1  UNL1       -0.0220
     35 C           2.7432    0.1896   18.5204 C.ar    1  UNL1       -0.0020
     36 C           1.9513    1.4597   18.4216 C.ar    1  UNL1        0.0293
     37 C           0.7257    1.6470   19.2659 C.ar    1  UNL1        0.1401
     38 F          -0.0662    2.9170   19.1671 F       1  UNL1       -0.2042
     39 C           0.2920    0.5642   20.2090 C.ar    1  UNL1        0.0293
     40 C           1.0839   -0.7060   20.3078 C.ar    1  UNL1       -0.0020
@<TRIPOS>BOND
     1    24    25    1
     2    25     1    1
     3     1     2    2
     4     1     3   am
     5     3     4    1
     6     4     5    1
     7     5     6    1
     8     6    26    1
     9    26    27    1
    10    27    28    1
    11    28    29    1
    12    29    30    1
    13    30    31    1
    14    31    33    1
    15    33    34    1
    16    34    35   ar
    17    35    36   ar
    18    36    37   ar
    19    37    38    1
    20    37    39   ar
    21    39    40   ar
    22    31    32    1
    23     6     7    1
    24     7     9    1
    25     9    10   am
    26    10    11    2
    27    10    12   am
    28    12    15    1
    29    15    16   ar
    30    16    17   ar
    31    17    18    1
    32    17    19   ar
    33    19    21    1
    34    21    22    1
    35    21    23    2
    36    19    20   ar
    37     7     8    1
    38     8     3    1
    39    32    27    1
    40    20    15   ar
    41    40    34   ar
    42     9    13    1
    43    12    14    1
@<TRIPOS>MOLECULE
*****
 40 43 0 0 0
SMALL
GASTEIGER

@<TRIPOS>ATOM
      1 C          -5.7304    3.9760   20.5455 C.2     1  UNL1        0.2257
      2 O          -6.4912    4.1183   21.8304 O.2     1  UNL1       -0.2749
      3 N          -4.2378    4.1236   20.5374 N.am    1  UNL1       -0.2778
      4 C          -3.4770    3.9813   19.2526 C.3     1  UNL1        0.0936
      5 C          -1.9843    4.1289   19.2445 C.3     1  UNL1        0.0246
      6 C          -1.2524    4.4188   20.5212 C.3     1  UNL1        0.0374
      7 C          -2.0131    4.5611   21.8061 C.3     1  UNL1        0.0942
      8 C          -3.5058    4.4135   21.8142 C.3     1  UNL1        0.1129
      9 N          -1.2812    4.8510   23.0830 N.am    1  UNL1       -0.2885
     10 C          -0.7988    3.7214   23.9440 C.2     1  UNL1        0.3059
     11 O          -1.0482    2.3020   23.5282 O.2     1  UNL1       -0.2524
     12 N          -0.0668    4.0114   25.2208 N.am    1  UNL1       -0.2485
     13 H          -1.1175    5.7826   23.3559 H       1  UNL1        0.1510
     14 H           0.0969    4.9430   25.4937 H       1  UNL1        0.1583
     15 C           0.4156    2.8818   26.0818 C.ar    1  UNL1        0.1664
     16 N           1.7858    2.2722   26.0504 N.ar    1  UNL1       -0.2282
     17 C           1.8296    1.1772   27.0746 C.ar    1  UNL1        0.0701
     18 C           3.0094    0.3029   27.3806 C.3     1  UNL1        0.0528
     19 C           0.4864    1.1100   27.7391 C.ar    1  UNL1        0.0803
     20 S          -0.3874    2.1636   27.1255 S.2     1  UNL1       -0.0488
     21 C           0.0873    0.1568   28.8262 C.2     1  UNL1        0.1807
     22 C          -1.2432   -0.5334   28.7673 C.3     1  UNL1        0.0779
     23 O           1.0187   -0.1064   29.9723 O.2     1  UNL1       -0.2908
     24 C          -7.2853    4.7571   18.6162 C.3     1  UNL1        0.0101
     25 C          -6.4624    3.6861   19.2688 C.3     1  UNL1        0.0853
     26 C           0.2403    4.5664   20.5131 C.3     1  UNL1        0.0738
     27 N           1.0982    3.4806   19.9343 N.3     1  UNL1       -0.2726
     28 C           2.2228    3.8287   19.0045 C.3     1  UNL1        0.0721
     29 C           3.0806    2.7429   18.4256 C.3     1  UNL1        0.0174
     30 C           2.8141    1.3091   18.7765 C.3     1  UNL1        0.0031
     31 C           1.6896    0.9610   19.7062 C.3     1  UNL1        0.0204
     32 C           0.8317    2.0468   20.2851 C.3     1  UNL1        0.0724
     33 C           1.4231   -0.4728   20.0570 C.3     1  UNL1        0.0277
     34 C           2.5375   -1.3414   20.5605 C.ar    1  UNL1       -0.0220
     35 C           3.1728   -2.3496   19.6494 C.ar    1  UNL1       -0.0020
     36 C           4.2872   -3.2182   20.1528 C.ar    1  UNL1        0.0293
     37 C           4.7664   -3.0787   21.5674 C.ar    1  UNL1        0.1401
     38 F           5.8808   -3.9473   22.0708 F       1  UNL1       -0.2042
     39 C           4.1312   -2.0706   22.4785 C.ar    1  UNL1        0.0293
     40 C           3.0167   -1.2019   21.9750 C.ar    1  UNL1       -0.0020
@<TRIPOS>BOND
     1    24    25    1
     2    25     1    1
     3     1     2    2
     4     1     3   am
     5     3     4    1
     6     4     5    1
     7     5     6    1
     8     6    26    1
     9    26    27    1
    10    27    28    1
    11    28    29    1
    12    29    30    1
    13    30    31    1
    14    31    33    1
    15    33    34    1
    16    34    35   ar
    17    35    36   ar
    18    36    37   ar
    19    37    38    1
    20    37    39   ar
    21    39    40   ar
    22    31    32    1
    23     6     7    1
    24     7     9    1
    25     9    10   am
    26    10    11    2
    27    10    12   am
    28    12    15    1
    29    15    16   ar
    30    16    17   ar
    31    17    18    1
    32    17    19   ar
    33    19    21    1
    34    21    22    1
    35    21    23    2
    36    19    20   ar
    37     7     8    1
    38     8     3    1
    39    32    27    1
    40    20    15   ar
    41    40    34   ar
    42     9    13    1
    43    12    14    1
@<TRIPOS>MOLECULE
*****
 40 43 0 0 0
SMALL
GASTEIGER

@<TRIPOS>ATOM
      1 C          -3.5284    4.6918   26.2006 C.2     1  UNL1        0.2257
      2 O          -4.3609    3.9192   27.1803 O.2     1  UNL1       -0.2749
      3 N          -2.2157    4.1381   25.7312 N.am    1  UNL1       -0.2778
      4 C          -1.3831    4.9108   24.7515 C.3     1  UNL1        0.0936
      5 C          -0.0705    4.3571   24.2820 C.3     1  UNL1        0.0246
      6 C           0.4096    3.0308   24.7922 C.3     1  UNL1        0.0374
      7 C          -0.4230    2.2582   25.7719 C.3     1  UNL1        0.0942
      8 C          -1.7356    2.8118   26.2414 C.3     1  UNL1        0.1129
      9 N           0.0571    0.9318   26.2822 N.am    1  UNL1       -0.2885
     10 C           1.0762    0.8753   27.3814 C.2     1  UNL1        0.3059
     11 O           1.6153    2.1452   27.9703 O.2     1  UNL1       -0.2524
     12 N           1.5563   -0.4510   27.8917 N.am    1  UNL1       -0.2485
     13 H          -0.2967    0.0983   25.8957 H       1  UNL1        0.1510
     14 H           1.2025   -1.2845   27.5052 H       1  UNL1        0.1583
     15 C           2.5754   -0.5075   28.9908 C.ar    1  UNL1        0.1664
     16 N           4.0548   -0.6804   28.8134 N.ar    1  UNL1       -0.2282
     17 C           4.6879   -0.6808   30.1733 C.ar    1  UNL1        0.0701
     18 C           6.1520   -0.8280   30.4642 C.3     1  UNL1        0.0528
     19 C           3.5997   -0.5080   31.1912 C.ar    1  UNL1        0.0803
     20 S           2.2941   -0.4009   30.4604 S.2     1  UNL1       -0.0488
     21 C           3.7846   -0.4522   32.6787 C.2     1  UNL1        0.1807
     22 C           4.3289   -1.6421   33.4120 C.3     1  UNL1        0.0779
     23 O           3.4251    0.7936   33.4329 O.2     1  UNL1       -0.2908
     24 C          -5.4690    6.3563   25.7389 C.3     1  UNL1        0.0101
     25 C          -4.0085    6.0181   25.6904 C.3     1  UNL1        0.0853
     26 C           1.7222    2.4771   24.3228 C.3     1  UNL1        0.0738
     27 N           1.7858    1.6623   23.0651 N.3     1  UNL1       -0.2726
     28 C           0.5314    1.3718   22.2954 C.3     1  UNL1        0.0721
     29 C           0.5950    0.5570   21.0376 C.3     1  UNL1        0.0174
     30 C           1.9128    0.0325   20.5495 C.3     1  UNL1        0.0031
     31 C           3.1671    0.3229   21.3191 C.3     1  UNL1        0.0204
     32 C           3.1036    1.1378   22.5769 C.3     1  UNL1        0.0724
     33 C           4.4849   -0.2015   20.8310 C.3     1  UNL1        0.0277
     34 C           4.5688   -1.5704   20.2235 C.ar    1  UNL1       -0.0220
     35 C           4.9869   -1.7313   18.7919 C.ar    1  UNL1       -0.0020
     36 C           5.0708   -3.1002   18.1844 C.ar    1  UNL1        0.0293
     37 C           4.7366   -4.3082   19.0085 C.ar    1  UNL1        0.1401
     38 F           4.8205   -5.6771   18.4010 F       1  UNL1       -0.2042
     39 C           4.3186   -4.1474   20.4400 C.ar    1  UNL1        0.0293
     40 C           4.2347   -2.7784   21.0476 C.ar    1  UNL1       -0.0020
@<TRIPOS>BOND
     1    24    25    1
     2    25     1    1
     3     1     2    2
     4     1     3   am
     5     3     4    1
     6     4     5    1
     7     5     6    1
     8     6    26    1
     9    26    27    1
    10    27    28    1
    11    28    29    1
    12    29    30    1
    13    30    31    1
    14    31    33    1
    15    33    34    1
    16    34    35   ar
    17    35    36   ar
    18    36    37   ar
    19    37    38    1
    20    37    39   ar
    21    39    40   ar
    22    31    32    1
    23     6     7    1
    24     7     9    1
    25     9    10   am
    26    10    11    2
    27    10    12   am
    28    12    15    1
    29    15    16   ar
    30    16    17   ar
    31    17    18    1
    32    17    19   ar
    33    19    21    1
    34    21    22    1
    35    21    23    2
    36    19    20   ar
    37     7     8    1
    38     8     3    1
    39    32    27    1
    40    20    15   ar
    41    40    34   ar
    42     9    13    1
    43    12    14    1
