@<TRIPOS>MOLECULE
*****
 25 28 0 0 0
SMALL
GASTEIGER

@<TRIPOS>ATOM
      1 N           6.8431   -3.9630   23.0739 N.3     1  UNL1       -0.2665
      2 C           7.6363   -4.0081   21.8015 C.3     1  UNL1        0.0899
      3 C           6.9331   -3.9620   20.4774 C.3     1  UNL1        0.0900
      4 N           5.4367   -3.8709   20.4256 N.3     1  UNL1       -0.2624
      5 C           4.6436   -3.8259   21.6979 C.3     1  UNL1        0.0900
      6 C           5.3468   -3.8719   23.0221 C.3     1  UNL1        0.0899
      7 C           7.5463   -4.0091   24.3981 C.3     1  UNL1        0.0992
      8 C           7.7741   -7.8742   26.6914 C.ar    1  UNL1       -0.0000
      9 C           8.2330   -7.8207   25.2643 C.ar    1  UNL1       -0.0003
     10 C           8.1571   -6.5323   24.4999 C.ar    1  UNL1       -0.0029
     11 C           7.6222   -5.2975   25.1625 C.ar    1  UNL1       -0.0061
     12 C           7.1633   -5.3510   26.5895 C.ar    1  UNL1       -0.0029
     13 C           7.2393   -6.6394   27.3540 C.ar    1  UNL1       -0.0003
     14 C           4.7336   -3.8248   19.1014 C.3     1  UNL1        0.1615
     15 C           4.4217   -2.5035   18.4634 C.ar    1  UNL1        0.2529
     16 N           3.5218   -1.4435   19.0258 N.ar    1  UNL1       -0.1896
     17 C           3.4988   -0.2952   18.0610 C.ar    1  UNL1        0.2033
     18 N           4.3846   -0.6456   16.9022 N.ar    1  UNL1       -0.0560
     19 O           4.9549   -2.0104   17.1509 O.2     1  UNL1       -0.3356
     20 C           2.7259    0.9797   18.2260 C.ar    1  UNL1        0.0391
     21 C           3.4523    2.2847   18.3651 C.ar    1  UNL1        0.0032
     22 C           2.6795    3.5595   18.5301 C.ar    1  UNL1        0.0001
     23 C           1.1799    3.5295   18.5560 C.ar    1  UNL1        0.0000
     24 C           0.4534    2.2246   18.4169 C.ar    1  UNL1        0.0001
     25 C           1.2264    0.9497   18.2519 C.ar    1  UNL1        0.0032
@<TRIPOS>BOND
     1     8     9   ar
     2     9    10   ar
     3    10    11   ar
     4    11     7    1
     5     7     1    1
     6     1     2    1
     7     2     3    1
     8     3     4    1
     9     4    14    1
    10    14    15    1
    11    15    16   ar
    12    16    17   ar
    13    17    20    1
    14    20    21   ar
    15    21    22   ar
    16    22    23   ar
    17    23    24   ar
    18    24    25   ar
    19    17    18   ar
    20    18    19   ar
    21     4     5    1
    22     5     6    1
    23    11    12   ar
    24    12    13   ar
    25    13     8   ar
    26     6     1    1
    27    19    15   ar
    28    25    20   ar
@<TRIPOS>MOLECULE
*****
 25 28 0 0 0
SMALL
GASTEIGER

@<TRIPOS>ATOM
      1 N         -12.7510   -3.5218   19.0423 N.3     1  UNL1       -0.2665
      2 C         -13.6166   -4.1448   20.0972 C.3     1  UNL1        0.0899
      3 C         -15.0670   -3.7744   20.1923 C.3     1  UNL1        0.0900
      4 N         -15.6519   -2.7810   19.2326 N.3     1  UNL1       -0.2624
      5 C         -14.7864   -2.1580   18.1777 C.3     1  UNL1        0.0900
      6 C         -13.3359   -2.5284   18.0826 C.3     1  UNL1        0.0899
      7 C         -11.3006   -3.8921   18.9472 C.3     1  UNL1        0.0992
      8 C         -10.1183   -8.0918   17.8447 C.ar    1  UNL1       -0.0000
      9 C          -9.3076   -7.3225   18.8451 C.ar    1  UNL1       -0.0003
     10 C          -9.7017   -5.9226   19.2126 C.ar    1  UNL1       -0.0029
     11 C         -10.9065   -5.2920   18.5797 C.ar    1  UNL1       -0.0061
     12 C         -11.7173   -6.0613   17.5793 C.ar    1  UNL1       -0.0029
     13 C         -11.3232   -7.4612   17.2118 C.ar    1  UNL1       -0.0003
     14 C         -17.1024   -2.4107   19.3278 C.3     1  UNL1        0.1615
     15 C         -17.5136   -1.1746   20.0713 C.ar    1  UNL1        0.2529
     16 N         -16.6141   -0.0385   20.4586 N.ar    1  UNL1       -0.1896
     17 C         -17.4411    0.9807   21.1848 C.ar    1  UNL1        0.2033
     18 N         -18.8518    0.4745   21.2463 N.ar    1  UNL1       -0.0560
     19 O         -18.8966   -0.8576   20.5581 O.2     1  UNL1       -0.3356
     20 C         -16.9446    2.2784   21.7502 C.ar    1  UNL1        0.0391
     21 C         -16.2570    3.2703   20.8596 C.ar    1  UNL1        0.0032
     22 C         -15.7605    4.5679   21.4249 C.ar    1  UNL1        0.0001
     23 C         -15.9516    4.8736   22.8811 C.ar    1  UNL1        0.0000
     24 C         -16.6392    3.8816   23.7717 C.ar    1  UNL1        0.0001
     25 C         -17.1357    2.5840   23.2062 C.ar    1  UNL1        0.0032
@<TRIPOS>BOND
     1     8     9   ar
     2     9    10   ar
     3    10    11   ar
     4    11     7    1
     5     7     1    1
     6     1     2    1
     7     2     3    1
     8     3     4    1
     9     4    14    1
    10    14    15    1
    11    15    16   ar
    12    16    17   ar
    13    17    20    1
    14    20    21   ar
    15    21    22   ar
    16    22    23   ar
    17    23    24   ar
    18    24    25   ar
    19    17    18   ar
    20    18    19   ar
    21     4     5    1
    22     5     6    1
    23    11    12   ar
    24    12    13   ar
    25    13     8   ar
    26     6     1    1
    27    19    15   ar
    28    25    20   ar
@<TRIPOS>MOLECULE
*****
 25 28 0 0 0
SMALL
GASTEIGER

@<TRIPOS>ATOM
      1 N           7.8187   -5.4868   23.3290 N.3     1  UNL1       -0.2665
      2 C           6.9128   -4.2957   23.2255 C.3     1  UNL1        0.0899
      3 C           6.9761   -3.4079   22.0182 C.3     1  UNL1        0.0900
      4 N           7.9454   -3.7111   20.9143 N.3     1  UNL1       -0.2624
      5 C           8.8513   -4.9021   21.0177 C.3     1  UNL1        0.0900
      6 C           8.7880   -5.7900   22.2251 C.3     1  UNL1        0.0899
      7 C           7.7554   -6.3746   24.5363 C.3     1  UNL1        0.0992
      8 C           7.7028   -4.5681   28.6575 C.ar    1  UNL1       -0.0000
      9 C           8.8794   -4.3429   27.7548 C.ar    1  UNL1       -0.0003
     10 C           8.8970   -4.9451   26.3811 C.ar    1  UNL1       -0.0029
     11 C           7.7379   -5.7725   25.9100 C.ar    1  UNL1       -0.0061
     12 C           6.5613   -5.9976   26.8127 C.ar    1  UNL1       -0.0029
     13 C           6.5437   -5.3955   28.1864 C.ar    1  UNL1       -0.0003
     14 C           8.0087   -2.8232   19.7069 C.3     1  UNL1        0.1615
     15 C           6.7425   -2.3434   19.0615 C.ar    1  UNL1        0.2529
     16 N           5.5949   -1.6763   19.7600 N.ar    1  UNL1       -0.1896
     17 C           4.5447   -1.3671   18.7345 C.ar    1  UNL1        0.2033
     18 N           5.0434   -1.8431   17.4023 N.ar    1  UNL1       -0.0560
     19 O           6.4017   -2.4465   17.6044 O.2     1  UNL1       -0.3356
     20 C           3.2273   -0.6991   18.9955 C.ar    1  UNL1        0.0391
     21 C           2.3364   -1.2006   20.0931 C.ar    1  UNL1        0.0032
     22 C           1.0190   -0.5327   20.3541 C.ar    1  UNL1        0.0001
     23 C           0.5923    0.6369   19.5173 C.ar    1  UNL1        0.0000
     24 C           1.4831    1.1384   18.4197 C.ar    1  UNL1        0.0001
     25 C           2.8006    0.4704   18.1587 C.ar    1  UNL1        0.0032
@<TRIPOS>BOND
     1     8     9   ar
     2     9    10   ar
     3    10    11   ar
     4    11     7    1
     5     7     1    1
     6     1     2    1
     7     2     3    1
     8     3     4    1
     9     4    14    1
    10    14    15    1
    11    15    16   ar
    12    16    17   ar
    13    17    20    1
    14    20    21   ar
    15    21    22   ar
    16    22    23   ar
    17    23    24   ar
    18    24    25   ar
    19    17    18   ar
    20    18    19   ar
    21     4     5    1
    22     5     6    1
    23    11    12   ar
    24    12    13   ar
    25    13     8   ar
    26     6     1    1
    27    19    15   ar
    28    25    20   ar
@<TRIPOS>MOLECULE
*****
 25 28 0 0 0
SMALL
GASTEIGER

@<TRIPOS>ATOM
      1 N           5.0205   -3.7896   20.8362 N.3     1  UNL1       -0.2665
      2 C           4.6343   -3.7300   22.2844 C.3     1  UNL1        0.0899
      3 C           5.6891   -3.8266   23.3465 C.3     1  UNL1        0.0900
      4 N           7.1301   -3.9830   22.9603 N.3     1  UNL1       -0.2624
      5 C           7.5163   -4.0426   21.5122 C.3     1  UNL1        0.0900
      6 C           6.4615   -3.9459   20.4500 C.3     1  UNL1        0.0899
      7 C           3.9657   -3.6929   19.7741 C.3     1  UNL1        0.0992
      8 C           2.8884    0.3134   18.0310 C.ar    1  UNL1       -0.0000
      9 C           3.8773   -0.5687   17.3284 C.ar    1  UNL1       -0.0003
     10 C           4.2364   -1.9042   17.9094 C.ar    1  UNL1       -0.0029
     11 C           3.6066   -2.3575   19.1931 C.ar    1  UNL1       -0.0061
     12 C           2.6177   -1.4753   19.8957 C.ar    1  UNL1       -0.0029
     13 C           2.2586   -0.1398   19.3146 C.ar    1  UNL1       -0.0003
     14 C           8.1850   -4.0797   24.0225 C.3     1  UNL1        0.1615
     15 C           7.8577   -4.6950   25.3507 C.ar    1  UNL1        0.2529
     16 N           7.6696   -3.9560   26.6424 N.ar    1  UNL1       -0.1896
     17 C           7.3567   -4.9617   27.7104 C.ar    1  UNL1        0.2033
     18 N           7.3515   -6.3223   27.0788 N.ar    1  UNL1       -0.0560
     19 O           7.6611   -6.1574   25.6205 O.2     1  UNL1       -0.3356
     20 C           7.0950   -4.6598   29.1563 C.ar    1  UNL1        0.0391
     21 C           6.7376   -3.2656   29.5786 C.ar    1  UNL1        0.0032
     22 C           6.4759   -2.9636   31.0243 C.ar    1  UNL1        0.0001
     23 C           6.5716   -4.0560   32.0479 C.ar    1  UNL1        0.0000
     24 C           6.9290   -5.4503   31.6256 C.ar    1  UNL1        0.0001
     25 C           7.1907   -5.7521   30.1798 C.ar    1  UNL1        0.0032
@<TRIPOS>BOND
     1     8     9   ar
     2     9    10   ar
     3    10    11   ar
     4    11     7    1
     5     7     1    1
     6     1     2    1
     7     2     3    1
     8     3     4    1
     9     4    14    1
    10    14    15    1
    11    15    16   ar
    12    16    17   ar
    13    17    20    1
    14    20    21   ar
    15    21    22   ar
    16    22    23   ar
    17    23    24   ar
    18    24    25   ar
    19    17    18   ar
    20    18    19   ar
    21     4     5    1
    22     5     6    1
    23    11    12   ar
    24    12    13   ar
    25    13     8   ar
    26     6     1    1
    27    19    15   ar
    28    25    20   ar
@<TRIPOS>MOLECULE
*****
 25 28 0 0 0
SMALL
GASTEIGER

@<TRIPOS>ATOM
      1 N           2.3932   -0.4293   19.7237 N.3     1  UNL1       -0.2665
      2 C           2.8981    0.9007   19.2481 C.3     1  UNL1        0.0899
      3 C           1.9913    2.0955   19.2611 C.3     1  UNL1        0.0900
      4 N           0.5796    1.9603   19.7498 N.3     1  UNL1       -0.2624
      5 C           0.0747    0.6304   20.2254 C.3     1  UNL1        0.0900
      6 C           0.9815   -0.5645   20.2124 C.3     1  UNL1        0.0899
      7 C           3.3000   -1.6241   19.7106 C.3     1  UNL1        0.0992
      8 C           5.0919   -3.1309   23.5536 C.ar    1  UNL1       -0.0000
      9 C           4.2527   -1.8877   23.5541 C.ar    1  UNL1       -0.0003
     10 C           3.6554   -1.3854   22.2731 C.ar    1  UNL1       -0.0029
     11 C           3.8973   -2.1263   20.9916 C.ar    1  UNL1       -0.0061
     12 C           4.7365   -3.3696   20.9910 C.ar    1  UNL1       -0.0029
     13 C           5.3338   -3.8719   22.2720 C.ar    1  UNL1       -0.0003
     14 C          -0.3272    3.1552   19.7629 C.3     1  UNL1        0.1615
     15 C          -1.5269    3.1764   20.6630 C.ar    1  UNL1        0.2529
     16 N          -1.5304    3.5372   22.1189 N.ar    1  UNL1       -0.1896
     17 C          -2.9394    3.4244   22.6210 C.ar    1  UNL1        0.2033
     18 N          -3.8067    2.9939   21.4753 N.ar    1  UNL1       -0.0560
     19 O          -2.9337    2.8406   20.2652 O.2     1  UNL1       -0.3356
     20 C          -3.4002    3.6946   24.0227 C.ar    1  UNL1        0.0391
     21 C          -4.8325    4.0548   24.2850 C.ar    1  UNL1        0.0032
     22 C          -5.2934    4.3250   25.6865 C.ar    1  UNL1        0.0001
     23 C          -4.3219    4.2351   26.8260 C.ar    1  UNL1        0.0000
     24 C          -2.8896    3.8749   26.5637 C.ar    1  UNL1        0.0001
     25 C          -2.4288    3.6046   25.1620 C.ar    1  UNL1        0.0032
@<TRIPOS>BOND
     1     8     9   ar
     2     9    10   ar
     3    10    11   ar
     4    11     7    1
     5     7     1    1
     6     1     2    1
     7     2     3    1
     8     3     4    1
     9     4    14    1
    10    14    15    1
    11    15    16   ar
    12    16    17   ar
    13    17    20    1
    14    20    21   ar
    15    21    22   ar
    16    22    23   ar
    17    23    24   ar
    18    24    25   ar
    19    17    18   ar
    20    18    19   ar
    21     4     5    1
    22     5     6    1
    23    11    12   ar
    24    12    13   ar
    25    13     8   ar
    26     6     1    1
    27    19    15   ar
    28    25    20   ar
@<TRIPOS>MOLECULE
*****
 25 28 0 0 0
SMALL
GASTEIGER

@<TRIPOS>ATOM
      1 N           3.4571    1.7954   33.7995 N.3     1  UNL1       -0.2665
      2 C           4.1670    0.5197   33.4545 C.3     1  UNL1        0.0899
      3 C           3.7399   -0.2760   32.2568 C.3     1  UNL1        0.0900
      4 N           2.6030    0.2039   31.4041 N.3     1  UNL1       -0.2624
      5 C           1.8932    1.4795   31.7490 C.3     1  UNL1        0.0900
      6 C           2.3203    2.2753   32.9467 C.3     1  UNL1        0.0899
      7 C           3.8842    2.5910   34.9972 C.3     1  UNL1        0.0992
      8 C           1.7438    2.0744   38.9216 C.ar    1  UNL1       -0.0000
      9 C           1.4432    3.2603   38.0539 C.ar    1  UNL1       -0.0003
     10 C           2.1567    3.4325   36.7457 C.ar    1  UNL1       -0.0029
     11 C           3.1707    2.4188   36.3053 C.ar    1  UNL1       -0.0061
     12 C           3.4713    1.2329   37.1731 C.ar    1  UNL1       -0.0029
     13 C           2.7578    1.0606   38.4813 C.ar    1  UNL1       -0.0003
     14 C           2.1759   -0.5918   30.2064 C.3     1  UNL1        0.1615
     15 C           1.0567   -0.0984   29.3383 C.ar    1  UNL1        0.2529
     16 N           1.2043    0.7168   28.0878 N.ar    1  UNL1       -0.1896
     17 C          -0.1679    0.9856   27.5449 C.ar    1  UNL1        0.2033
     18 N          -1.1637    0.3365   28.4599 N.ar    1  UNL1       -0.0560
     19 O          -0.4069   -0.3334   29.5682 O.2     1  UNL1       -0.3356
     20 C          -0.4881    1.7663   26.3048 C.ar    1  UNL1        0.0391
     21 C          -1.5700    2.8050   26.3309 C.ar    1  UNL1        0.0032
     22 C          -1.8903    3.5857   25.0909 C.ar    1  UNL1        0.0001
     23 C          -1.1286    3.3279   23.8246 C.ar    1  UNL1        0.0000
     24 C          -0.0467    2.2892   23.7985 C.ar    1  UNL1        0.0001
     25 C           0.2736    1.5085   25.0386 C.ar    1  UNL1        0.0032
@<TRIPOS>BOND
     1     8     9   ar
     2     9    10   ar
     3    10    11   ar
     4    11     7    1
     5     7     1    1
     6     1     2    1
     7     2     3    1
     8     3     4    1
     9     4    14    1
    10    14    15    1
    11    15    16   ar
    12    16    17   ar
    13    17    20    1
    14    20    21   ar
    15    21    22   ar
    16    22    23   ar
    17    23    24   ar
    18    24    25   ar
    19    17    18   ar
    20    18    19   ar
    21     4     5    1
    22     5     6    1
    23    11    12   ar
    24    12    13   ar
    25    13     8   ar
    26     6     1    1
    27    19    15   ar
    28    25    20   ar
@<TRIPOS>MOLECULE
*****
 25 28 0 0 0
SMALL
GASTEIGER

@<TRIPOS>ATOM
      1 N         -10.3648  -17.9529   21.1820 N.3     1  UNL1       -0.2665
      2 C          -8.9707  -17.9150   21.7345 C.3     1  UNL1        0.0899
      3 C          -7.8947  -18.7553   21.1131 C.3     1  UNL1        0.0900
      4 N          -8.2127  -19.6334   19.9393 N.3     1  UNL1       -0.2624
      5 C          -9.6067  -19.6713   19.3869 C.3     1  UNL1        0.0900
      6 C         -10.6828  -18.8310   20.0082 C.3     1  UNL1        0.0899
      7 C         -11.4409  -17.1127   21.8034 C.3     1  UNL1        0.0992
      8 C         -13.7717  -18.6806   25.3189 C.ar    1  UNL1       -0.0000
      9 C         -14.4828  -17.9770   24.2012 C.ar    1  UNL1       -0.0003
     10 C         -13.7058  -17.4543   23.0294 C.ar    1  UNL1       -0.0029
     11 C         -12.2178  -17.6353   22.9752 C.ar    1  UNL1       -0.0061
     12 C         -11.5068  -18.3390   24.0929 C.ar    1  UNL1       -0.0029
     13 C         -12.2837  -18.8616   25.2647 C.ar    1  UNL1       -0.0003
     14 C          -7.1366  -20.4736   19.3180 C.3     1  UNL1        0.1615
     15 C          -5.7080  -20.2941   19.7386 C.ar    1  UNL1        0.2529
     16 N          -4.9488  -19.0005   19.7517 N.ar    1  UNL1       -0.1896
     17 C          -3.5594  -19.2835   20.2412 C.ar    1  UNL1        0.2033
     18 N          -3.4600  -20.7520   20.5306 N.ar    1  UNL1       -0.0560
     19 O          -4.7879  -21.3765   20.2199 O.2     1  UNL1       -0.3356
     20 C          -2.4621  -18.2750   20.4114 C.ar    1  UNL1        0.0391
     21 C          -2.6574  -17.1010   21.3244 C.ar    1  UNL1        0.0032
     22 C          -1.5602  -16.0926   21.4947 C.ar    1  UNL1        0.0001
     23 C          -0.2675  -16.2581   20.7519 C.ar    1  UNL1        0.0000
     24 C          -0.0722  -17.4321   19.8389 C.ar    1  UNL1        0.0001
     25 C          -1.1695  -18.4406   19.6687 C.ar    1  UNL1        0.0032
@<TRIPOS>BOND
     1     8     9   ar
     2     9    10   ar
     3    10    11   ar
     4    11     7    1
     5     7     1    1
     6     1     2    1
     7     2     3    1
     8     3     4    1
     9     4    14    1
    10    14    15    1
    11    15    16   ar
    12    16    17   ar
    13    17    20    1
    14    20    21   ar
    15    21    22   ar
    16    22    23   ar
    17    23    24   ar
    18    24    25   ar
    19    17    18   ar
    20    18    19   ar
    21     4     5    1
    22     5     6    1
    23    11    12   ar
    24    12    13   ar
    25    13     8   ar
    26     6     1    1
    27    19    15   ar
    28    25    20   ar
@<TRIPOS>MOLECULE
*****
 25 28 0 0 0
SMALL
GASTEIGER

@<TRIPOS>ATOM
      1 N           2.4695    0.1270   19.0466 N.3     1  UNL1       -0.2665
      2 C           2.9062    1.5585   19.1486 C.3     1  UNL1        0.0899
      3 C           2.1562    2.5102   20.0328 C.3     1  UNL1        0.0900
      4 N           0.9695    2.0305   20.8149 N.3     1  UNL1       -0.2624
      5 C           0.5328    0.5991   20.7129 C.3     1  UNL1        0.0900
      6 C           1.2828   -0.3527   19.8287 C.3     1  UNL1        0.0899
      7 C           3.2195   -0.8247   18.1624 C.3     1  UNL1        0.0992
      8 C           5.8470   -3.9918   19.9832 C.ar    1  UNL1       -0.0000
      9 C           6.4436   -2.6932   19.5276 C.ar    1  UNL1       -0.0003
     10 C           5.5677   -1.6374   18.9207 C.ar    1  UNL1       -0.0029
     11 C           4.0953   -1.8804   18.7693 C.ar    1  UNL1       -0.0061
     12 C           3.4988   -3.1791   19.2249 C.ar    1  UNL1       -0.0029
     13 C           4.3746   -4.2348   19.8318 C.ar    1  UNL1       -0.0003
     14 C           0.2195    2.9822   21.6991 C.3     1  UNL1        0.1615
     15 C          -1.2738    3.0809   21.5986 C.ar    1  UNL1        0.2529
     16 N          -2.1958    3.6086   22.6576 N.ar    1  UNL1       -0.1896
     17 C          -3.5992    3.5230   22.1349 C.ar    1  UNL1        0.2033
     18 N          -3.5446    2.9425   20.7529 N.ar    1  UNL1       -0.0560
     19 O          -2.1074    2.6692   20.4214 O.2     1  UNL1       -0.3356
     20 C          -4.8395    3.9441   22.8659 C.ar    1  UNL1        0.0391
     21 C          -4.7942    4.1785   24.3468 C.ar    1  UNL1        0.0032
     22 C          -6.0344    4.5995   25.0779 C.ar    1  UNL1        0.0001
     23 C          -7.3201    4.7863   24.3280 C.ar    1  UNL1        0.0000
     24 C          -7.3654    4.5519   22.8471 C.ar    1  UNL1        0.0001
     25 C          -6.1251    4.1308   22.1161 C.ar    1  UNL1        0.0032
@<TRIPOS>BOND
     1     8     9   ar
     2     9    10   ar
     3    10    11   ar
     4    11     7    1
     5     7     1    1
     6     1     2    1
     7     2     3    1
     8     3     4    1
     9     4    14    1
    10    14    15    1
    11    15    16   ar
    12    16    17   ar
    13    17    20    1
    14    20    21   ar
    15    21    22   ar
    16    22    23   ar
    17    23    24   ar
    18    24    25   ar
    19    17    18   ar
    20    18    19   ar
    21     4     5    1
    22     5     6    1
    23    11    12   ar
    24    12    13   ar
    25    13     8   ar
    26     6     1    1
    27    19    15   ar
    28    25    20   ar
@<TRIPOS>MOLECULE
*****
 25 28 0 0 0
SMALL
GASTEIGER

@<TRIPOS>ATOM
      1 N           2.3157   -0.7450   19.6215 N.3     1  UNL1       -0.2665
      2 C           1.0161   -0.6704   20.3668 C.3     1  UNL1        0.0899
      3 C           0.1833    0.5754   20.2995 C.3     1  UNL1        0.0900
      4 N           0.6501    1.7466   19.4869 N.3     1  UNL1       -0.2624
      5 C           1.9497    1.6720   18.7415 C.3     1  UNL1        0.0900
      6 C           2.7825    0.4262   18.8088 C.3     1  UNL1        0.0899
      7 C           3.1484   -1.9908   19.6888 C.3     1  UNL1        0.0992
      8 C           7.5993   -1.7583   19.0677 C.ar    1  UNL1       -0.0000
      9 C           7.0011   -1.3312   20.3752 C.ar    1  UNL1       -0.0003
     10 C           5.5175   -1.4087   20.5823 C.ar    1  UNL1       -0.0029
     11 C           4.6320   -1.9133   19.4817 C.ar    1  UNL1       -0.0061
     12 C           5.2302   -2.3405   18.1742 C.ar    1  UNL1       -0.0029
     13 C           6.7138   -2.2630   17.9672 C.ar    1  UNL1       -0.0003
     14 C          -0.1827    2.9924   19.4196 C.3     1  UNL1        0.1615
     15 C          -1.3904    3.1355   20.2976 C.ar    1  UNL1        0.2529
     16 N          -1.3815    3.3123   21.7871 N.ar    1  UNL1       -0.1896
     17 C          -2.8046    3.4131   22.2504 C.ar    1  UNL1        0.2033
     18 N          -3.6930    3.2985   21.0472 N.ar    1  UNL1       -0.0560
     19 O          -2.8189    3.1270   19.8403 O.2     1  UNL1       -0.3356
     20 C          -3.2595    3.5962   23.6680 C.ar    1  UNL1        0.0391
     21 C          -2.2532    3.6324   24.7798 C.ar    1  UNL1        0.0032
     22 C          -2.7080    3.8155   26.1974 C.ar    1  UNL1        0.0001
     23 C          -4.1692    3.9625   26.5032 C.ar    1  UNL1        0.0000
     24 C          -5.1754    3.9264   25.3914 C.ar    1  UNL1        0.0001
     25 C          -4.7206    3.7432   23.9738 C.ar    1  UNL1        0.0032
@<TRIPOS>BOND
     1     8     9   ar
     2     9    10   ar
     3    10    11   ar
     4    11     7    1
     5     7     1    1
     6     1     2    1
     7     2     3    1
     8     3     4    1
     9     4    14    1
    10    14    15    1
    11    15    16   ar
    12    16    17   ar
    13    17    20    1
    14    20    21   ar
    15    21    22   ar
    16    22    23   ar
    17    23    24   ar
    18    24    25   ar
    19    17    18   ar
    20    18    19   ar
    21     4     5    1
    22     5     6    1
    23    11    12   ar
    24    12    13   ar
    25    13     8   ar
    26     6     1    1
    27    19    15   ar
    28    25    20   ar
