@<TRIPOS>MOLECULE
*****
 32 36 0 0 0
SMALL
GASTEIGER

@<TRIPOS>ATOM
      1 C           4.5346   -4.1897   21.1125 C.3     1  UNL1        0.0215
      2 C           4.4152   -3.0467   22.0766 C.3     1  UNL1        0.0759
      3 C           5.0419   -3.1435   23.4359 C.3     1  UNL1        0.0236
      4 C           4.9226   -2.0006   24.3999 C.3     1  UNL1        0.0470
      5 C           4.1766   -0.7608   24.0047 C.3     1  UNL1        0.1856
      6 C           3.5498   -0.6639   22.6453 C.3     1  UNL1        0.1370
      7 N           3.6692   -1.8069   21.6812 N.am    1  UNL1       -0.2740
      8 C           3.0425   -1.7100   20.3219 C.2     1  UNL1        0.2506
      9 O           3.1618   -2.8530   19.3578 O.2     1  UNL1       -0.2699
     10 C           2.2964   -0.4702   19.9266 C.ar    1  UNL1        0.0729
     11 C           0.8811   -0.2696   20.3810 C.ar    1  UNL1        0.0061
     12 C           0.1350    0.9702   19.9857 C.ar    1  UNL1        0.0002
     13 C           0.8044    2.0094   19.1360 C.ar    1  UNL1        0.0016
     14 C           2.2197    1.8088   18.6816 C.ar    1  UNL1        0.0211
     15 C           2.9658    0.5690   19.0768 C.ar    1  UNL1        0.1072
     16 N           4.3811    0.3684   18.6224 N.ar    1  UNL1       -0.1477
     17 N           4.8113   -0.1960   17.3009 N.ar    1  UNL1       -0.1447
     18 C           6.3108   -0.2163   17.2715 C.ar    1  UNL1        0.1446
     19 C           6.8075    0.3356   18.5748 C.ar    1  UNL1        0.1446
     20 N           5.6149    0.6970   19.4097 N.ar    1  UNL1       -0.1447
     21 O           4.0572    0.3822   24.9687 O.3     1  UNL1       -0.4773
     22 C           3.0475    0.3265   26.0766 C.ar    1  UNL1        0.1414
     23 C           3.3735   -0.3906   27.3531 C.ar    1  UNL1        0.0576
     24 C           2.3638   -0.4462   28.4610 C.ar    1  UNL1        0.1020
     25 N           1.0281    0.2153   28.2924 N.ar    1  UNL1       -0.2414
     26 C           0.7022    0.9324   27.0159 C.ar    1  UNL1        0.1116
     27 C          -0.6335    1.5939   26.8473 C.ar    1  UNL1        0.1577
     28 F          -1.6432    1.5383   27.9551 F       1  UNL1       -0.2026
     29 C          -0.9595    2.3110   25.5708 C.ar    1  UNL1        0.0312
     30 C           0.0502    2.3667   24.4629 C.ar    1  UNL1        0.0025
     31 C           1.3859    1.7052   24.6315 C.ar    1  UNL1        0.0047
     32 C           1.7118    0.9880   25.9080 C.ar    1  UNL1        0.0539
@<TRIPOS>BOND
     1     2     1    1
     2     2     3    1
     3     3     4    1
     4     4     5    1
     5     5    21    1
     6    21    22    1
     7    22    23   ar
     8    23    24   ar
     9    24    25   ar
    10    25    26   ar
    11    26    27   ar
    12    27    28    1
    13    27    29   ar
    14    29    30   ar
    15    30    31   ar
    16    31    32   ar
    17     5     6    1
    18     6     7    1
    19     7     8   am
    20     8     9    2
    21     8    10    1
    22    10    11   ar
    23    11    12   ar
    24    12    13   ar
    25    13    14   ar
    26    14    15   ar
    27    15    16    1
    28    16    17   ar
    29    17    18   ar
    30    18    19   ar
    31    19    20   ar
    32     7     2    1
    33    15    10   ar
    34    20    16   ar
    35    32    22   ar
    36    32    26   ar
@<TRIPOS>MOLECULE
*****
 32 36 0 0 0
SMALL
GASTEIGER

@<TRIPOS>ATOM
      1 C          -4.0582  -16.2638   25.5130 C.3     1  UNL1        0.0215
      2 C          -5.3262  -16.0584   24.7383 C.3     1  UNL1        0.0759
      3 C          -6.2530  -14.9360   25.1006 C.3     1  UNL1        0.0236
      4 C          -7.5209  -14.7306   24.3260 C.3     1  UNL1        0.0470
      5 C          -7.8621  -15.6476   23.1890 C.3     1  UNL1        0.1856
      6 C          -6.9353  -16.7701   22.8267 C.3     1  UNL1        0.1370
      7 N          -5.6673  -16.9755   23.6014 N.am    1  UNL1       -0.2740
      8 C          -4.7405  -18.0979   23.2391 C.2     1  UNL1        0.2506
      9 O          -3.4726  -18.3032   24.0137 O.2     1  UNL1       -0.2699
     10 C          -5.0817  -19.0149   22.1021 C.ar    1  UNL1        0.0729
     11 C          -6.3469  -19.8197   22.1415 C.ar    1  UNL1        0.0061
     12 C          -6.6880  -20.7368   21.0044 C.ar    1  UNL1        0.0002
     13 C          -5.7640  -20.8489   19.8282 C.ar    1  UNL1        0.0016
     14 C          -4.4989  -20.0440   19.7889 C.ar    1  UNL1        0.0211
     15 C          -4.1577  -19.1270   20.9258 C.ar    1  UNL1        0.1072
     16 N          -2.8925  -18.3222   20.8865 N.ar    1  UNL1       -0.1477
     17 N          -2.7906  -16.8322   21.0271 N.ar    1  UNL1       -0.1447
     18 C          -1.3423  -16.4551   20.9272 C.ar    1  UNL1        0.1446
     19 C          -0.5490  -17.7120   20.7248 C.ar    1  UNL1        0.1446
     20 N          -1.5071  -18.8659   20.6997 N.ar    1  UNL1       -0.1447
     21 O          -9.1300  -15.4423   22.4144 O.3     1  UNL1       -0.4773
     22 C          -9.8276  -16.6158   21.7928 C.ar    1  UNL1        0.1414
     23 C         -10.3229  -16.5315   20.3794 C.ar    1  UNL1        0.0576
     24 C         -11.0204  -17.7050   19.7579 C.ar    1  UNL1        0.1020
     25 N         -11.2227  -18.9628   20.5498 N.ar    1  UNL1       -0.2414
     26 C         -10.7274  -19.0471   21.9631 C.ar    1  UNL1        0.1116
     27 C         -10.9297  -20.3049   22.7549 C.ar    1  UNL1        0.1577
     28 F         -11.6273  -21.4784   22.1334 F       1  UNL1       -0.2026
     29 C         -10.4345  -20.3892   24.1683 C.ar    1  UNL1        0.0312
     30 C          -9.7369  -19.2157   24.7898 C.ar    1  UNL1        0.0025
     31 C          -9.5346  -17.9579   23.9980 C.ar    1  UNL1        0.0047
     32 C         -10.0299  -17.8736   22.5846 C.ar    1  UNL1        0.0539
@<TRIPOS>BOND
     1     2     1    1
     2     2     3    1
     3     3     4    1
     4     4     5    1
     5     5    21    1
     6    21    22    1
     7    22    23   ar
     8    23    24   ar
     9    24    25   ar
    10    25    26   ar
    11    26    27   ar
    12    27    28    1
    13    27    29   ar
    14    29    30   ar
    15    30    31   ar
    16    31    32   ar
    17     5     6    1
    18     6     7    1
    19     7     8   am
    20     8     9    2
    21     8    10    1
    22    10    11   ar
    23    11    12   ar
    24    12    13   ar
    25    13    14   ar
    26    14    15   ar
    27    15    16    1
    28    16    17   ar
    29    17    18   ar
    30    18    19   ar
    31    19    20   ar
    32     7     2    1
    33    15    10   ar
    34    20    16   ar
    35    32    22   ar
    36    32    26   ar
@<TRIPOS>MOLECULE
*****
 32 36 0 0 0
SMALL
GASTEIGER

@<TRIPOS>ATOM
      1 C           4.6183   -4.0125   21.4864 C.3     1  UNL1        0.0215
      2 C           4.3731   -2.8181   22.3602 C.3     1  UNL1        0.0759
      3 C           4.8928   -2.7989   23.7671 C.3     1  UNL1        0.0236
      4 C           4.6477   -1.6045   24.6409 C.3     1  UNL1        0.0470
      5 C           3.8829   -0.4295   24.1077 C.3     1  UNL1        0.1856
      6 C           3.3632   -0.4487   22.7007 C.3     1  UNL1        0.1370
      7 N           3.6083   -1.6430   21.8269 N.am    1  UNL1       -0.2740
      8 C           3.0886   -1.6623   20.4200 C.2     1  UNL1        0.2506
      9 O           3.3337   -2.8566   19.5462 O.2     1  UNL1       -0.2699
     10 C           2.3238   -0.4873   19.8869 C.ar    1  UNL1        0.0729
     11 C           0.8876   -0.2899   20.2720 C.ar    1  UNL1        0.0061
     12 C           0.1228    0.8852   19.7388 C.ar    1  UNL1        0.0002
     13 C           0.7942    1.8629   18.8205 C.ar    1  UNL1        0.0016
     14 C           2.2304    1.6656   18.4354 C.ar    1  UNL1        0.0211
     15 C           2.9952    0.4905   18.9685 C.ar    1  UNL1        0.1072
     16 N           4.4314    0.2932   18.5834 N.ar    1  UNL1       -0.1477
     17 N           5.6254    0.7514   19.3672 N.ar    1  UNL1       -0.1447
     18 C           6.8578    0.3444   18.6151 C.ar    1  UNL1        0.1446
     19 C           6.4254   -0.3655   17.3664 C.ar    1  UNL1        0.1446
     20 N           4.9259   -0.3971   17.3469 N.ar    1  UNL1       -0.1447
     21 O           3.6378    0.7648   24.9815 O.3     1  UNL1       -0.4773
     22 C           2.2975    0.9600   25.6263 C.ar    1  UNL1        0.1414
     23 C           1.1634    1.5438   24.8370 C.ar    1  UNL1        0.0576
     24 C          -0.1768    1.7389   25.4818 C.ar    1  UNL1        0.1020
     25 N          -0.3829    1.3502   26.9158 N.ar    1  UNL1       -0.2414
     26 C           0.7512    0.7665   27.7051 C.ar    1  UNL1        0.1116
     27 C           0.5451    0.3778   29.1392 C.ar    1  UNL1        0.1577
     28 F          -0.7951    0.5730   29.7839 F       1  UNL1       -0.2026
     29 C           1.6792   -0.2059   29.9284 C.ar    1  UNL1        0.0312
     30 C           3.0195   -0.4011   29.2837 C.ar    1  UNL1        0.0025
     31 C           3.2256   -0.0124   27.8496 C.ar    1  UNL1        0.0047
     32 C           2.0914    0.5714   27.0603 C.ar    1  UNL1        0.0539
@<TRIPOS>BOND
     1     2     1    1
     2     2     3    1
     3     3     4    1
     4     4     5    1
     5     5    21    1
     6    21    22    1
     7    22    23   ar
     8    23    24   ar
     9    24    25   ar
    10    25    26   ar
    11    26    27   ar
    12    27    28    1
    13    27    29   ar
    14    29    30   ar
    15    30    31   ar
    16    31    32   ar
    17     5     6    1
    18     6     7    1
    19     7     8   am
    20     8     9    2
    21     8    10    1
    22    10    11   ar
    23    11    12   ar
    24    12    13   ar
    25    13    14   ar
    26    14    15   ar
    27    15    16    1
    28    16    17   ar
    29    17    18   ar
    30    18    19   ar
    31    19    20   ar
    32     7     2    1
    33    15    10   ar
    34    20    16   ar
    35    32    22   ar
    36    32    26   ar
@<TRIPOS>MOLECULE
*****
 32 36 0 0 0
SMALL
GASTEIGER

@<TRIPOS>ATOM
      1 C           9.3127   -5.0038   21.1730 C.3     1  UNL1        0.0215
      2 C           8.7615   -5.5541   22.4549 C.3     1  UNL1        0.0759
      3 C           9.2817   -6.8514   22.9993 C.3     1  UNL1        0.0236
      4 C           8.7306   -7.4017   24.2812 C.3     1  UNL1        0.0470
      5 C           7.6592   -6.6547   25.0188 C.3     1  UNL1        0.1856
      6 C           7.1389   -5.3573   24.4745 C.3     1  UNL1        0.1370
      7 N           7.6901   -4.8070   23.1925 N.am    1  UNL1       -0.2740
      8 C           7.1699   -3.5097   22.6482 C.2     1  UNL1        0.2506
      9 O           7.7210   -2.9594   21.3662 O.2     1  UNL1       -0.2699
     10 C           6.0985   -2.7628   23.3858 C.ar    1  UNL1        0.0729
     11 C           6.3738   -2.2128   24.7539 C.ar    1  UNL1        0.0061
     12 C           5.3023   -1.4657   25.4915 C.ar    1  UNL1        0.0002
     13 C           3.9556   -1.2687   24.8610 C.ar    1  UNL1        0.0016
     14 C           3.6803   -1.8187   23.4928 C.ar    1  UNL1        0.0211
     15 C           4.7517   -2.5657   22.7553 C.ar    1  UNL1        0.1072
     16 N           4.4764   -3.1157   21.3871 N.ar    1  UNL1       -0.1477
     17 N           4.2921   -4.5632   21.0394 N.ar    1  UNL1       -0.1447
     18 C           4.0389   -4.6569   19.5639 C.ar    1  UNL1        0.1446
     19 C           4.0666   -3.2673   18.9997 C.ar    1  UNL1        0.1446
     20 N           4.3370   -2.3148   20.1265 N.ar    1  UNL1       -0.1447
     21 O           7.1080   -7.2050   26.3008 O.3     1  UNL1       -0.4773
     22 C           7.8144   -6.9375   27.5968 C.ar    1  UNL1        0.1414
     23 C           8.8250   -7.9167   28.1162 C.ar    1  UNL1        0.0576
     24 C           9.5313   -7.6492   29.4122 C.ar    1  UNL1        0.1020
     25 N           9.2268   -6.4025   30.1888 N.ar    1  UNL1       -0.2414
     26 C           8.2162   -5.4234   29.6695 C.ar    1  UNL1        0.1116
     27 C           7.9118   -4.1767   30.4461 C.ar    1  UNL1        0.1577
     28 F           8.6180   -3.9092   31.7421 F       1  UNL1       -0.2026
     29 C           6.9011   -3.1975   29.9268 C.ar    1  UNL1        0.0312
     30 C           6.1948   -3.4650   28.6307 C.ar    1  UNL1        0.0025
     31 C           6.4992   -4.7117   27.8541 C.ar    1  UNL1        0.0047
     32 C           7.5099   -5.6908   28.3735 C.ar    1  UNL1        0.0539
@<TRIPOS>BOND
     1     2     1    1
     2     2     3    1
     3     3     4    1
     4     4     5    1
     5     5    21    1
     6    21    22    1
     7    22    23   ar
     8    23    24   ar
     9    24    25   ar
    10    25    26   ar
    11    26    27   ar
    12    27    28    1
    13    27    29   ar
    14    29    30   ar
    15    30    31   ar
    16    31    32   ar
    17     5     6    1
    18     6     7    1
    19     7     8   am
    20     8     9    2
    21     8    10    1
    22    10    11   ar
    23    11    12   ar
    24    12    13   ar
    25    13    14   ar
    26    14    15   ar
    27    15    16    1
    28    16    17   ar
    29    17    18   ar
    30    18    19   ar
    31    19    20   ar
    32     7     2    1
    33    15    10   ar
    34    20    16   ar
    35    32    22   ar
    36    32    26   ar
@<TRIPOS>MOLECULE
*****
 32 36 0 0 0
SMALL
GASTEIGER

@<TRIPOS>ATOM
      1 C           7.5840    1.8681   38.1889 C.3     1  UNL1        0.0215
      2 C           6.7198    1.1085   37.2266 C.3     1  UNL1        0.0759
      3 C           7.3400    0.4055   36.0556 C.3     1  UNL1        0.0236
      4 C           6.4758   -0.3541   35.0932 C.3     1  UNL1        0.0470
      5 C           4.9915   -0.4108   35.3018 C.3     1  UNL1        0.1856
      6 C           4.3713    0.2922   36.4728 C.3     1  UNL1        0.1370
      7 N           5.2354    1.0518   37.4352 N.am    1  UNL1       -0.2740
      8 C           4.6153    1.7547   38.6062 C.2     1  UNL1        0.2506
      9 O           5.4794    2.5144   39.5686 O.2     1  UNL1       -0.2699
     10 C           3.1310    1.6980   38.8147 C.ar    1  UNL1        0.0729
     11 C           2.5015    0.4657   39.3937 C.ar    1  UNL1        0.0061
     12 C           1.0171    0.4091   39.6023 C.ar    1  UNL1        0.0002
     13 C           0.1622    1.5847   39.2319 C.ar    1  UNL1        0.0016
     14 C           0.7917    2.8169   38.6529 C.ar    1  UNL1        0.0211
     15 C           2.2760    2.8736   38.4443 C.ar    1  UNL1        0.1072
     16 N           2.9055    4.1059   37.8654 N.ar    1  UNL1       -0.1477
     17 N           3.0143    4.4383   36.4067 N.ar    1  UNL1       -0.1447
     18 C           3.7128    5.7600   36.2832 C.ar    1  UNL1        0.1446
     19 C           4.0357    6.2445   37.6656 C.ar    1  UNL1        0.1446
     20 N           3.5368    5.2223   38.6434 N.ar    1  UNL1       -0.1447
     21 O           4.1274   -1.1704   34.3394 O.3     1  UNL1       -0.4773
     22 C           4.2807   -0.9551   32.8628 C.ar    1  UNL1        0.1414
     23 C           3.5705    0.1840   32.1933 C.ar    1  UNL1        0.0576
     24 C           3.7238    0.3993   30.7168 C.ar    1  UNL1        0.1020
     25 N           4.5872   -0.5244   29.9098 N.ar    1  UNL1       -0.2414
     26 C           5.2974   -1.6635   30.5793 C.ar    1  UNL1        0.1116
     27 C           6.1608   -2.5872   29.7723 C.ar    1  UNL1        0.1577
     28 F           6.3141   -2.3719   28.2958 F       1  UNL1       -0.2026
     29 C           6.8709   -3.7262   30.4418 C.ar    1  UNL1        0.0312
     30 C           6.7176   -3.9416   31.9184 C.ar    1  UNL1        0.0025
     31 C           5.8542   -3.0179   32.7254 C.ar    1  UNL1        0.0047
     32 C           5.1441   -1.8788   32.0558 C.ar    1  UNL1        0.0539
@<TRIPOS>BOND
     1     2     1    1
     2     2     3    1
     3     3     4    1
     4     4     5    1
     5     5    21    1
     6    21    22    1
     7    22    23   ar
     8    23    24   ar
     9    24    25   ar
    10    25    26   ar
    11    26    27   ar
    12    27    28    1
    13    27    29   ar
    14    29    30   ar
    15    30    31   ar
    16    31    32   ar
    17     5     6    1
    18     6     7    1
    19     7     8   am
    20     8     9    2
    21     8    10    1
    22    10    11   ar
    23    11    12   ar
    24    12    13   ar
    25    13    14   ar
    26    14    15   ar
    27    15    16    1
    28    16    17   ar
    29    17    18   ar
    30    18    19   ar
    31    19    20   ar
    32     7     2    1
    33    15    10   ar
    34    20    16   ar
    35    32    22   ar
    36    32    26   ar
@<TRIPOS>MOLECULE
*****
 32 36 0 0 0
SMALL
GASTEIGER

@<TRIPOS>ATOM
      1 C           1.6598    0.4096   23.3423 C.3     1  UNL1        0.0215
      2 C           2.9488   -0.2606   23.7155 C.3     1  UNL1        0.0759
      3 C           3.5253   -0.0669   25.0866 C.3     1  UNL1        0.0236
      4 C           4.8143   -0.7372   25.4598 C.3     1  UNL1        0.0470
      5 C           5.5268   -1.6011   24.4619 C.3     1  UNL1        0.1856
      6 C           4.9503   -1.7949   23.0907 C.3     1  UNL1        0.1370
      7 N           3.6613   -1.1246   22.7175 N.am    1  UNL1       -0.2740
      8 C           3.0847   -1.3184   21.3463 C.2     1  UNL1        0.2506
      9 O           1.7957   -0.6481   20.9732 O.2     1  UNL1       -0.2699
     10 C           3.7972   -2.1823   20.3484 C.ar    1  UNL1        0.0729
     11 C           3.7147   -3.6762   20.4555 C.ar    1  UNL1        0.0061
     12 C           4.4272   -4.5402   19.4575 C.ar    1  UNL1        0.0002
     13 C           5.2222   -3.9102   18.3525 C.ar    1  UNL1        0.0016
     14 C           5.3047   -2.4163   18.2454 C.ar    1  UNL1        0.0211
     15 C           4.5923   -1.5524   19.2433 C.ar    1  UNL1        0.1072
     16 N           4.6748   -0.0585   19.1362 N.ar    1  UNL1       -0.1477
     17 N           5.6272    0.8277   19.8829 N.ar    1  UNL1       -0.1447
     18 C           5.3605    2.2454   19.4719 C.ar    1  UNL1        0.1446
     19 C           4.2432    2.2354   18.4711 C.ar    1  UNL1        0.1446
     20 N           3.8194    0.8115   18.2637 N.ar    1  UNL1       -0.1447
     21 O           6.8158   -2.2713   24.8351 O.3     1  UNL1       -0.4773
     22 C           6.8026   -3.4828   25.7196 C.ar    1  UNL1        0.1414
     23 C           6.2822   -3.3812   27.1227 C.ar    1  UNL1        0.0576
     24 C           6.2690   -4.5926   28.0072 C.ar    1  UNL1        0.1020
     25 N           6.7762   -5.9055   27.4885 N.ar    1  UNL1       -0.2414
     26 C           7.2966   -6.0071   26.0854 C.ar    1  UNL1        0.1116
     27 C           7.8037   -7.3200   25.5667 C.ar    1  UNL1        0.1577
     28 F           7.7905   -8.5314   26.4512 F       1  UNL1       -0.2026
     29 C           8.3241   -7.4215   24.1636 C.ar    1  UNL1        0.0312
     30 C           8.3374   -6.2101   23.2791 C.ar    1  UNL1        0.0025
     31 C           7.8302   -4.8972   23.7977 C.ar    1  UNL1        0.0047
     32 C           7.3098   -4.7957   25.2009 C.ar    1  UNL1        0.0539
@<TRIPOS>BOND
     1     2     1    1
     2     2     3    1
     3     3     4    1
     4     4     5    1
     5     5    21    1
     6    21    22    1
     7    22    23   ar
     8    23    24   ar
     9    24    25   ar
    10    25    26   ar
    11    26    27   ar
    12    27    28    1
    13    27    29   ar
    14    29    30   ar
    15    30    31   ar
    16    31    32   ar
    17     5     6    1
    18     6     7    1
    19     7     8   am
    20     8     9    2
    21     8    10    1
    22    10    11   ar
    23    11    12   ar
    24    12    13   ar
    25    13    14   ar
    26    14    15   ar
    27    15    16    1
    28    16    17   ar
    29    17    18   ar
    30    18    19   ar
    31    19    20   ar
    32     7     2    1
    33    15    10   ar
    34    20    16   ar
    35    32    22   ar
    36    32    26   ar
@<TRIPOS>MOLECULE
*****
 32 36 0 0 0
SMALL
GASTEIGER

@<TRIPOS>ATOM
      1 C           1.1357    5.1072   19.0917 C.3     1  UNL1        0.0215
      2 C          -0.2328    4.5689   19.3874 C.3     1  UNL1        0.0759
      3 C          -1.3153    4.6630   18.3534 C.3     1  UNL1        0.0236
      4 C          -2.6838    4.1248   18.6491 C.3     1  UNL1        0.0470
      5 C          -2.9698    3.4923   19.9788 C.3     1  UNL1        0.1856
      6 C          -1.8873    3.3982   21.0129 C.3     1  UNL1        0.1370
      7 N          -0.5187    3.9364   20.7172 N.am    1  UNL1       -0.2740
      8 C           0.5638    3.8423   21.7513 C.2     1  UNL1        0.2506
      9 O           1.9323    4.3806   21.4556 O.2     1  UNL1       -0.2699
     10 C           0.2778    3.2099   23.0810 C.ar    1  UNL1        0.0729
     11 C          -0.2102    4.0518   24.2225 C.ar    1  UNL1        0.0061
     12 C          -0.4962    3.4193   25.5523 C.ar    1  UNL1        0.0002
     13 C          -0.2942    1.9449   25.7405 C.ar    1  UNL1        0.0016
     14 C           0.1937    1.1030   24.5989 C.ar    1  UNL1        0.0211
     15 C           0.4797    1.7354   23.2692 C.ar    1  UNL1        0.1072
     16 N           0.9677    0.8935   22.1277 N.ar    1  UNL1       -0.1477
     17 N           0.1245    0.3378   21.0186 N.ar    1  UNL1       -0.1447
     18 C           1.0202   -0.4397   20.1003 C.ar    1  UNL1        0.1446
     19 C           2.4170   -0.3644   20.6418 C.ar    1  UNL1        0.1446
     20 N           2.3845    0.4596   21.8949 N.ar    1  UNL1       -0.1447
     21 O          -4.3383    2.9540   20.2745 O.3     1  UNL1       -0.4773
     22 C          -5.4095    3.8698   20.7883 C.ar    1  UNL1        0.1414
     23 C          -6.2981    4.5995   19.8250 C.ar    1  UNL1        0.0576
     24 C          -7.3692    5.5151   20.3388 C.ar    1  UNL1        0.1020
     25 N          -7.5519    5.7011   21.8160 N.ar    1  UNL1       -0.2414
     26 C          -6.6634    4.9715   22.7793 C.ar    1  UNL1        0.1116
     27 C          -6.8460    5.1574   24.2565 C.ar    1  UNL1        0.1577
     28 F          -7.9172    6.0731   24.7704 F       1  UNL1       -0.2026
     29 C          -5.9575    4.4278   25.2198 C.ar    1  UNL1        0.0312
     30 C          -4.8863    3.5120   24.7060 C.ar    1  UNL1        0.0025
     31 C          -4.7036    3.3260   23.2289 C.ar    1  UNL1        0.0047
     32 C          -5.5922    4.0558   22.2655 C.ar    1  UNL1        0.0539
@<TRIPOS>BOND
     1     2     1    1
     2     2     3    1
     3     3     4    1
     4     4     5    1
     5     5    21    1
     6    21    22    1
     7    22    23   ar
     8    23    24   ar
     9    24    25   ar
    10    25    26   ar
    11    26    27   ar
    12    27    28    1
    13    27    29   ar
    14    29    30   ar
    15    30    31   ar
    16    31    32   ar
    17     5     6    1
    18     6     7    1
    19     7     8   am
    20     8     9    2
    21     8    10    1
    22    10    11   ar
    23    11    12   ar
    24    12    13   ar
    25    13    14   ar
    26    14    15   ar
    27    15    16    1
    28    16    17   ar
    29    17    18   ar
    30    18    19   ar
    31    19    20   ar
    32     7     2    1
    33    15    10   ar
    34    20    16   ar
    35    32    22   ar
    36    32    26   ar
@<TRIPOS>MOLECULE
*****
 32 36 0 0 0
SMALL
GASTEIGER

@<TRIPOS>ATOM
      1 C          -0.8879    6.5599   28.1621 C.3     1  UNL1        0.0215
      2 C          -2.0200    5.8312   27.5008 C.3     1  UNL1        0.0759
      3 C          -3.4372    6.1474   27.8773 C.3     1  UNL1        0.0236
      4 C          -4.5693    5.4188   27.2159 C.3     1  UNL1        0.0470
      5 C          -4.2843    4.3739   26.1781 C.3     1  UNL1        0.1856
      6 C          -2.8671    4.0577   25.8016 C.3     1  UNL1        0.1370
      7 N          -1.7350    4.7863   26.4629 N.am    1  UNL1       -0.2740
      8 C          -0.3179    4.4702   26.0865 C.2     1  UNL1        0.2506
      9 O           0.8142    5.1988   26.7478 O.2     1  UNL1       -0.2699
     10 C          -0.0329    3.4253   25.0487 C.ar    1  UNL1        0.0729
     11 C          -0.0260    3.7945   23.5948 C.ar    1  UNL1        0.0061
     12 C           0.2590    2.7496   22.5570 C.ar    1  UNL1        0.0002
     13 C           0.5370    1.3356   22.9731 C.ar    1  UNL1        0.0016
     14 C           0.5301    0.9664   24.4269 C.ar    1  UNL1        0.0211
     15 C           0.2451    2.0112   25.4647 C.ar    1  UNL1        0.1072
     16 N           0.2382    1.6420   26.9185 N.ar    1  UNL1       -0.1477
     17 N          -0.9639    1.2392   27.7202 N.ar    1  UNL1       -0.1447
     18 C          -0.5129    0.9591   29.1231 C.ar    1  UNL1        0.1446
     19 C           0.9680    1.1886   29.1885 C.ar    1  UNL1        0.1446
     20 N           1.4322    1.6107   27.8260 N.ar    1  UNL1       -0.1447
     21 O          -5.4164    3.6453   25.5168 O.3     1  UNL1       -0.4773
     22 C          -6.2482    4.3369   24.4776 C.ar    1  UNL1        0.1414
     23 C          -7.3390    5.2783   24.8945 C.ar    1  UNL1        0.0576
     24 C          -8.1707    5.9699   23.8553 C.ar    1  UNL1        0.1020
     25 N          -7.9116    5.7199   22.3992 N.ar    1  UNL1       -0.2414
     26 C          -6.8208    4.7785   21.9822 C.ar    1  UNL1        0.1116
     27 C          -6.5618    4.5286   20.5260 C.ar    1  UNL1        0.1577
     28 F          -7.3935    5.2201   19.4868 F       1  UNL1       -0.2026
     29 C          -5.4710    3.5872   20.1091 C.ar    1  UNL1        0.0312
     30 C          -4.6393    2.8956   21.1483 C.ar    1  UNL1        0.0025
     31 C          -4.8983    3.1455   22.6045 C.ar    1  UNL1        0.0047
     32 C          -5.9892    4.0870   23.0214 C.ar    1  UNL1        0.0539
@<TRIPOS>BOND
     1     2     1    1
     2     2     3    1
     3     3     4    1
     4     4     5    1
     5     5    21    1
     6    21    22    1
     7    22    23   ar
     8    23    24   ar
     9    24    25   ar
    10    25    26   ar
    11    26    27   ar
    12    27    28    1
    13    27    29   ar
    14    29    30   ar
    15    30    31   ar
    16    31    32   ar
    17     5     6    1
    18     6     7    1
    19     7     8   am
    20     8     9    2
    21     8    10    1
    22    10    11   ar
    23    11    12   ar
    24    12    13   ar
    25    13    14   ar
    26    14    15   ar
    27    15    16    1
    28    16    17   ar
    29    17    18   ar
    30    18    19   ar
    31    19    20   ar
    32     7     2    1
    33    15    10   ar
    34    20    16   ar
    35    32    22   ar
    36    32    26   ar
@<TRIPOS>MOLECULE
*****
 32 36 0 0 0
SMALL
GASTEIGER

@<TRIPOS>ATOM
      1 C           4.5224    6.0595   35.7216 C.3     1  UNL1        0.0215
      2 C           3.8573    4.9248   35.0004 C.3     1  UNL1        0.0759
      3 C           3.9290    4.8422   33.5044 C.3     1  UNL1        0.0236
      4 C           3.2639    3.7075   32.7832 C.3     1  UNL1        0.0470
      5 C           2.5271    2.6555   33.5580 C.3     1  UNL1        0.1856
      6 C           2.4554    2.7381   35.0540 C.3     1  UNL1        0.1370
      7 N           3.1205    3.8727   35.7752 N.am    1  UNL1       -0.2740
      8 C           3.0488    3.9554   37.2712 C.2     1  UNL1        0.2506
      9 O           3.7139    5.0901   37.9924 O.2     1  UNL1       -0.2699
     10 C           2.3119    2.9034   38.0460 C.ar    1  UNL1        0.0729
     11 C           0.8972    3.1457   38.4816 C.ar    1  UNL1        0.0061
     12 C           0.1604    2.0936   39.2564 C.ar    1  UNL1        0.0002
     13 C           0.8383    0.7992   39.5955 C.ar    1  UNL1        0.0016
     14 C           2.2531    0.5569   39.1599 C.ar    1  UNL1        0.0211
     15 C           2.9899    1.6090   38.3852 C.ar    1  UNL1        0.1072
     16 N           4.4046    1.3666   37.9496 N.ar    1  UNL1       -0.1477
     17 N           5.6143    2.1148   38.4260 N.ar    1  UNL1       -0.1447
     18 C           6.8154    1.5442   37.7319 C.ar    1  UNL1        0.1446
     19 C           6.3481    0.4433   36.8265 C.ar    1  UNL1        0.1446
     20 N           4.8582    0.3336   36.9610 N.ar    1  UNL1       -0.1447
     21 O           1.8620    1.5208   32.8367 O.3     1  UNL1       -0.4773
     22 C           2.5942    0.7909   31.7499 C.ar    1  UNL1        0.1414
     23 C           2.3016    1.0983   30.3112 C.ar    1  UNL1        0.0576
     24 C           3.0338    0.3685   29.2244 C.ar    1  UNL1        0.1020
     25 N           4.0587   -0.6688   29.5763 N.ar    1  UNL1       -0.2414
     26 C           4.3513   -0.9762   31.0150 C.ar    1  UNL1        0.1116
     27 C           5.3761   -2.0134   31.3669 C.ar    1  UNL1        0.1577
     28 F           6.1083   -2.7433   30.2802 F       1  UNL1       -0.2026
     29 C           5.6687   -2.3208   32.8056 C.ar    1  UNL1        0.0312
     30 C           4.9365   -1.5909   33.8925 C.ar    1  UNL1        0.0025
     31 C           3.9117   -0.5537   33.5406 C.ar    1  UNL1        0.0047
     32 C           3.6191   -0.2463   32.1018 C.ar    1  UNL1        0.0539
@<TRIPOS>BOND
     1     2     1    1
     2     2     3    1
     3     3     4    1
     4     4     5    1
     5     5    21    1
     6    21    22    1
     7    22    23   ar
     8    23    24   ar
     9    24    25   ar
    10    25    26   ar
    11    26    27   ar
    12    27    28    1
    13    27    29   ar
    14    29    30   ar
    15    30    31   ar
    16    31    32   ar
    17     5     6    1
    18     6     7    1
    19     7     8   am
    20     8     9    2
    21     8    10    1
    22    10    11   ar
    23    11    12   ar
    24    12    13   ar
    25    13    14   ar
    26    14    15   ar
    27    15    16    1
    28    16    17   ar
    29    17    18   ar
    30    18    19   ar
    31    19    20   ar
    32     7     2    1
    33    15    10   ar
    34    20    16   ar
    35    32    22   ar
    36    32    26   ar
