@<TRIPOS>MOLECULE
*****
 31 34 0 0 0
SMALL
GASTEIGER

@<TRIPOS>ATOM
      1 C         -10.7470  -18.0163   19.8498 C.3     1  UNL1        0.2068
      2 O         -10.0016  -19.2992   20.0701 O.3     1  UNL1       -0.4754
      3 C          -5.6957  -19.2042   21.3738 C.ar    1  UNL1        0.0538
      4 C          -6.7044  -18.3262   22.0530 C.ar    1  UNL1        0.0076
      5 C          -8.1397  -18.3579   21.6185 C.ar    1  UNL1        0.0370
      6 C          -8.5662  -19.2676   20.5046 C.ar    1  UNL1        0.1386
      7 C          -7.5574  -20.1456   19.8254 C.ar    1  UNL1        0.0370
      8 C          -6.1222  -20.1139   20.2600 C.ar    1  UNL1        0.0076
      9 O          -3.8832  -19.6331   23.1852 O.2     1  UNL1       -0.2699
     10 C          -4.2603  -19.1726   21.8084 C.2     1  UNL1        0.2490
     11 N          -3.2021  -18.6804   20.8661 N.am    1  UNL1       -0.2761
     12 C          -3.5791  -18.2198   19.4893 C.3     1  UNL1        0.0937
     13 C          -2.5208  -17.7276   18.5470 C.3     1  UNL1        0.0216
     14 C          -1.0856  -17.6960   18.9816 C.3     1  UNL1        0.0035
     15 C          -0.7085  -18.1565   20.3584 C.3     1  UNL1        0.0216
     16 C          -1.7667  -18.6487   21.3007 C.3     1  UNL1        0.0937
     17 C         -12.0881  -17.8088   20.4890 C.3     1  UNL1        0.0646
     18 C         -12.3105  -18.2173   21.9150 C.3     1  UNL1        0.0759
     19 N         -11.3381  -17.7956   22.9764 N.3     1  UNL1       -0.2726
     20 C         -10.8774  -18.7835   24.0069 C.3     1  UNL1        0.0721
     21 C          -9.9050  -18.3618   25.0682 C.3     1  UNL1        0.0178
     22 C          -9.3931  -16.9522   25.0991 C.3     1  UNL1        0.0087
     23 C          -9.8537  -15.9643   24.0686 C.3     1  UNL1        0.0178
     24 C         -10.8262  -16.3860   23.0072 C.3     1  UNL1        0.0721
     25 C          -8.4206  -16.5305   26.1604 C.3     1  UNL1        0.0453
     26 C          -7.1148  -15.9016   25.7740 C.ar    1  UNL1        0.0541
     27 C          -6.1767  -15.1801   26.6957 C.ar    1  UNL1        0.1131
     28 N          -4.9999  -14.7164   25.8894 N.ar    1  UNL1       -0.2229
     29 C          -5.2106  -15.1514   24.4693 C.ar    1  UNL1        0.1748
     30 N          -6.5177  -15.8839   24.3980 N.ar    1  UNL1       -0.3382
     31 H          -6.9141  -16.2829   23.5900 H       1  UNL1        0.1672
@<TRIPOS>BOND
     1     9    10    2
     2    10     3    1
     3     3     4   ar
     4     4     5   ar
     5     5     6   ar
     6     6     2    1
     7     2     1    1
     8     1    17    1
     9    17    18    1
    10    18    19    1
    11    19    20    1
    12    20    21    1
    13    21    22    1
    14    22    25    1
    15    25    26    1
    16    26    27   ar
    17    27    28   ar
    18    28    29   ar
    19    29    30   ar
    20    22    23    1
    21    23    24    1
    22     6     7   ar
    23     7     8   ar
    24    10    11   am
    25    11    12    1
    26    12    13    1
    27    13    14    1
    28    14    15    1
    29    15    16    1
    30     8     3   ar
    31    16    11    1
    32    24    19    1
    33    30    26   ar
    34    30    31    1
@<TRIPOS>MOLECULE
*****
 31 34 0 0 0
SMALL
GASTEIGER

@<TRIPOS>ATOM
      1 C          -7.6894  -15.4620   27.4410 C.3     1  UNL1        0.2068
      2 O          -8.5727  -16.6693   27.3312 O.3     1  UNL1       -0.4754
      3 C         -10.3700  -17.7886   23.3604 C.ar    1  UNL1        0.0538
      4 C          -9.9129  -16.3814   23.6068 C.ar    1  UNL1        0.0076
      5 C          -9.3138  -16.0083   24.9303 C.ar    1  UNL1        0.0370
      6 C          -9.1718  -17.0425   26.0075 C.ar    1  UNL1        0.1386
      7 C          -9.6289  -18.4497   25.7612 C.ar    1  UNL1        0.0370
      8 C         -10.2280  -18.8227   24.4376 C.ar    1  UNL1        0.0076
      9 O         -12.4248  -17.9116   21.7752 O.2     1  UNL1       -0.2699
     10 C         -10.9691  -18.1617   22.0368 C.2     1  UNL1        0.2490
     11 N         -10.1125  -18.7849   20.9748 N.am    1  UNL1       -0.2761
     12 C          -8.6568  -19.0350   21.2363 C.3     1  UNL1        0.0937
     13 C          -7.8002  -19.6582   20.1742 C.3     1  UNL1        0.0216
     14 C          -8.3994  -20.0313   18.8507 C.3     1  UNL1        0.0035
     15 C          -9.8551  -19.7812   18.5891 C.3     1  UNL1        0.0216
     16 C         -10.7116  -19.1580   19.6511 C.3     1  UNL1        0.0937
     17 C          -6.2710  -15.5239   26.9569 C.3     1  UNL1        0.0646
     18 C          -5.9436  -15.1431   25.5435 C.3     1  UNL1        0.0759
     19 N          -5.3675  -16.1628   24.6063 N.3     1  UNL1       -0.2726
     20 C          -3.9696  -16.6662   24.8129 C.3     1  UNL1        0.0721
     21 C          -3.3936  -17.6859   23.8757 C.3     1  UNL1        0.0178
     22 C          -4.2153  -18.2023   22.7320 C.3     1  UNL1        0.0087
     23 C          -5.6131  -17.6989   22.5254 C.3     1  UNL1        0.0178
     24 C          -6.1893  -16.6792   23.4626 C.3     1  UNL1        0.0721
     25 C          -3.6392  -19.2220   21.7948 C.3     1  UNL1        0.0453
     26 C          -2.6175  -18.8117   20.7761 C.ar    1  UNL1        0.0541
     27 C          -2.8132  -18.7931   19.2890 C.ar    1  UNL1        0.1131
     28 N          -1.5373  -18.3180   18.6595 N.ar    1  UNL1       -0.2229
     29 C          -0.5529  -18.0430   19.7575 C.ar    1  UNL1        0.1748
     30 N          -1.2206  -18.3481   21.0656 N.ar    1  UNL1       -0.3382
     31 H          -0.8134  -18.2597   21.9576 H       1  UNL1        0.1672
@<TRIPOS>BOND
     1     9    10    2
     2    10     3    1
     3     3     4   ar
     4     4     5   ar
     5     5     6   ar
     6     6     2    1
     7     2     1    1
     8     1    17    1
     9    17    18    1
    10    18    19    1
    11    19    20    1
    12    20    21    1
    13    21    22    1
    14    22    25    1
    15    25    26    1
    16    26    27   ar
    17    27    28   ar
    18    28    29   ar
    19    29    30   ar
    20    22    23    1
    21    23    24    1
    22     6     7   ar
    23     7     8   ar
    24    10    11   am
    25    11    12    1
    26    12    13    1
    27    13    14    1
    28    14    15    1
    29    15    16    1
    30     8     3   ar
    31    16    11    1
    32    24    19    1
    33    30    26   ar
    34    30    31    1
@<TRIPOS>MOLECULE
*****
 31 34 0 0 0
SMALL
GASTEIGER

@<TRIPOS>ATOM
      1 C          -7.7341  -14.8758   27.2311 C.3     1  UNL1        0.2068
      2 O          -6.2520  -15.1035   27.2689 O.3     1  UNL1       -0.4754
      3 C          -4.1709  -16.9651   23.7400 C.ar    1  UNL1        0.0538
      4 C          -3.9054  -17.4789   25.1239 C.ar    1  UNL1        0.0076
      5 C          -4.5991  -16.8584   26.3002 C.ar    1  UNL1        0.0370
      6 C          -5.5583  -15.7240   26.0925 C.ar    1  UNL1        0.1386
      7 C          -5.8238  -15.2102   24.7085 C.ar    1  UNL1        0.0370
      8 C          -5.1301  -15.8307   23.5323 C.ar    1  UNL1        0.0076
      9 O          -2.1228  -17.0939   22.1465 O.2     1  UNL1       -0.2699
     10 C          -3.4772  -17.5856   22.5636 C.2     1  UNL1        0.2490
     11 N          -4.1378  -18.6979   21.8043 N.am    1  UNL1       -0.2761
     12 C          -5.4921  -19.1896   22.2214 C.3     1  UNL1        0.0937
     13 C          -6.1528  -20.3019   21.4621 C.3     1  UNL1        0.0216
     14 C          -5.4590  -20.9224   20.2858 C.3     1  UNL1        0.0035
     15 C          -4.1047  -20.4306   19.8687 C.3     1  UNL1        0.0216
     16 C          -3.4441  -19.3184   20.6280 C.3     1  UNL1        0.0937
     17 C          -8.6725  -15.9781   27.6244 C.3     1  UNL1        0.0646
     18 C          -8.5312  -17.3386   27.0089 C.3     1  UNL1        0.0759
     19 N          -9.2073  -17.6461   25.7057 N.3     1  UNL1       -0.2726
     20 C          -9.8788  -18.9721   25.5036 C.3     1  UNL1        0.0721
     21 C         -10.5548  -19.2796   24.2004 C.3     1  UNL1        0.0178
     22 C         -10.5593  -18.2610   23.0992 C.3     1  UNL1        0.0087
     23 C          -9.8879  -16.9351   23.3013 C.3     1  UNL1        0.0178
     24 C          -9.2118  -16.6275   24.6045 C.3     1  UNL1        0.0721
     25 C         -11.2353  -18.5685   21.7960 C.3     1  UNL1        0.0453
     26 C         -11.6050  -17.4546   20.8617 C.ar    1  UNL1        0.0541
     27 C         -12.9128  -16.7205   20.8388 C.ar    1  UNL1        0.1131
     28 N         -12.8478  -15.6916   19.7492 N.ar    1  UNL1       -0.2229
     29 C         -11.4997  -15.7898   19.0987 C.ar    1  UNL1        0.1748
     30 N         -10.7316  -16.8795   19.7863 N.ar    1  UNL1       -0.3382
     31 H          -9.8152  -17.1667   19.5698 H       1  UNL1        0.1672
@<TRIPOS>BOND
     1     9    10    2
     2    10     3    1
     3     3     4   ar
     4     4     5   ar
     5     5     6   ar
     6     6     2    1
     7     2     1    1
     8     1    17    1
     9    17    18    1
    10    18    19    1
    11    19    20    1
    12    20    21    1
    13    21    22    1
    14    22    25    1
    15    25    26    1
    16    26    27   ar
    17    27    28   ar
    18    28    29   ar
    19    29    30   ar
    20    22    23    1
    21    23    24    1
    22     6     7   ar
    23     7     8   ar
    24    10    11   am
    25    11    12    1
    26    12    13    1
    27    13    14    1
    28    14    15    1
    29    15    16    1
    30     8     3   ar
    31    16    11    1
    32    24    19    1
    33    30    26   ar
    34    30    31    1
@<TRIPOS>MOLECULE
*****
 31 34 0 0 0
SMALL
GASTEIGER

@<TRIPOS>ATOM
      1 C          -0.4695    4.1999   20.4514 C.3     1  UNL1        0.2068
      2 O           0.6320    4.2880   19.4370 O.3     1  UNL1       -0.4754
      3 C           2.8530    0.5751   18.1994 C.ar    1  UNL1        0.0538
      4 C           1.3535    0.5756   18.2337 C.ar    1  UNL1        0.0076
      5 C           0.6131    1.8132   18.6462 C.ar    1  UNL1        0.0370
      6 C           1.3724    3.0503   19.0245 C.ar    1  UNL1        0.1386
      7 C           2.8720    3.0498   18.9902 C.ar    1  UNL1        0.0370
      8 C           3.6123    1.8122   18.5777 C.ar    1  UNL1        0.0076
      9 O           3.9430   -0.8817   16.3448 O.2     1  UNL1       -0.2699
     10 C           3.5935   -0.6625   17.7869 C.2     1  UNL1        0.2490
     11 N           3.9843   -1.6809   18.8165 N.am    1  UNL1       -0.2761
     12 C           3.6348   -1.4617   20.2586 C.3     1  UNL1        0.0937
     13 C           4.0257   -2.4801   21.2883 C.3     1  UNL1        0.0216
     14 C           4.7661   -3.7177   20.8757 C.3     1  UNL1        0.0035
     15 C           5.1156   -3.9369   19.4336 C.3     1  UNL1        0.0216
     16 C           4.7247   -2.9185   18.4040 C.3     1  UNL1        0.0937
     17 C          -0.2788    3.3859   21.6968 C.3     1  UNL1        0.0646
     18 C          -0.1265    4.0691   23.0234 C.3     1  UNL1        0.0759
     19 N          -0.3509    3.3016   24.2924 N.3     1  UNL1       -0.2726
     20 C          -1.1566    3.9077   25.4031 C.3     1  UNL1        0.0721
     21 C          -1.3810    3.1401   26.6721 C.3     1  UNL1        0.0178
     22 C          -0.7996    1.7665   26.8306 C.3     1  UNL1        0.0087
     23 C           0.0061    1.1604   25.7200 C.3     1  UNL1        0.0178
     24 C           0.2305    1.9280   24.4509 C.3     1  UNL1        0.0721
     25 C          -1.0239    0.9989   28.0996 C.3     1  UNL1        0.0453
     26 C           0.1419    0.6268   28.9672 C.ar    1  UNL1        0.0541
     27 C           0.5808    1.3438   30.2095 C.ar    1  UNL1        0.1131
     28 N           1.7835    0.6325   30.7547 N.ar    1  UNL1       -0.2229
     29 C           2.0880   -0.5241   29.8494 C.ar    1  UNL1        0.1748
     30 N           1.0734   -0.5276   28.7447 N.ar    1  UNL1       -0.3382
     31 H           1.0270   -1.1741   28.0036 H       1  UNL1        0.1672
@<TRIPOS>BOND
     1     9    10    2
     2    10     3    1
     3     3     4   ar
     4     4     5   ar
     5     5     6   ar
     6     6     2    1
     7     2     1    1
     8     1    17    1
     9    17    18    1
    10    18    19    1
    11    19    20    1
    12    20    21    1
    13    21    22    1
    14    22    25    1
    15    25    26    1
    16    26    27   ar
    17    27    28   ar
    18    28    29   ar
    19    29    30   ar
    20    22    23    1
    21    23    24    1
    22     6     7   ar
    23     7     8   ar
    24    10    11   am
    25    11    12    1
    26    12    13    1
    27    13    14    1
    28    14    15    1
    29    15    16    1
    30     8     3   ar
    31    16    11    1
    32    24    19    1
    33    30    26   ar
    34    30    31    1
@<TRIPOS>MOLECULE
*****
 31 34 0 0 0
SMALL
GASTEIGER

@<TRIPOS>ATOM
      1 C           8.6340   -4.6633   20.9625 C.3     1  UNL1        0.2068
      2 O           7.1631   -4.9374   20.8568 O.3     1  UNL1       -0.4754
      3 C           4.4634   -1.9739   18.8126 C.ar    1  UNL1        0.0538
      4 C           5.7919   -1.5315   19.3503 C.ar    1  UNL1        0.0076
      5 C           6.6918   -2.5193   20.0317 C.ar    1  UNL1        0.0370
      6 C           6.2632   -3.9496   20.1753 C.ar    1  UNL1        0.1386
      7 C           4.9346   -4.3920   19.6376 C.ar    1  UNL1        0.0370
      8 C           4.0348   -3.4042   18.9562 C.ar    1  UNL1        0.0076
      9 O           3.7173   -0.7199   16.6630 O.2     1  UNL1       -0.2699
     10 C           3.5634   -0.9861   18.1311 C.2     1  UNL1        0.2490
     11 N           2.5097   -0.2645   18.9178 N.am    1  UNL1       -0.2761
     12 C           2.3559   -0.5307   20.3860 C.3     1  UNL1        0.0937
     13 C           1.3021    0.1909   21.1727 C.3     1  UNL1        0.0216
     14 C           0.4022    1.1787   20.4912 C.3     1  UNL1        0.0035
     15 C           0.5560    1.4449   19.0231 C.3     1  UNL1        0.0216
     16 C           1.6097    0.7234   18.2364 C.3     1  UNL1        0.0937
     17 C           9.4422   -5.3137   22.0460 C.3     1  UNL1        0.0646
     18 C           8.8774   -6.4756   22.8081 C.3     1  UNL1        0.0759
     19 N           8.1713   -6.2457   24.1114 N.3     1  UNL1       -0.2726
     20 C           7.9276   -7.3941   25.0452 C.3     1  UNL1        0.0721
     21 C           7.2215   -7.1642   26.3485 C.3     1  UNL1        0.0178
     22 C           6.7591   -5.7859   26.7180 C.3     1  UNL1        0.0087
     23 C           7.0027   -4.6376   25.7842 C.3     1  UNL1        0.0178
     24 C           7.7089   -4.8675   24.4809 C.3     1  UNL1        0.0721
     25 C           6.0530   -5.5560   28.0212 C.3     1  UNL1        0.0453
     26 C           6.8455   -5.3746   29.2818 C.ar    1  UNL1        0.0541
     27 C           7.9831   -6.2382   29.7401 C.ar    1  UNL1        0.1131
     28 N           8.4801   -5.6951   31.0470 N.ar    1  UNL1       -0.2229
     29 C           7.6497   -4.4958   31.3965 C.ar    1  UNL1        0.1748
     30 N           6.6394   -4.2977   30.3055 N.ar    1  UNL1       -0.3382
     31 H           5.9603   -3.5859   30.2680 H       1  UNL1        0.1672
@<TRIPOS>BOND
     1     9    10    2
     2    10     3    1
     3     3     4   ar
     4     4     5   ar
     5     5     6   ar
     6     6     2    1
     7     2     1    1
     8     1    17    1
     9    17    18    1
    10    18    19    1
    11    19    20    1
    12    20    21    1
    13    21    22    1
    14    22    25    1
    15    25    26    1
    16    26    27   ar
    17    27    28   ar
    18    28    29   ar
    19    29    30   ar
    20    22    23    1
    21    23    24    1
    22     6     7   ar
    23     7     8   ar
    24    10    11   am
    25    11    12    1
    26    12    13    1
    27    13    14    1
    28    14    15    1
    29    15    16    1
    30     8     3   ar
    31    16    11    1
    32    24    19    1
    33    30    26   ar
    34    30    31    1
@<TRIPOS>MOLECULE
*****
 31 34 0 0 0
SMALL
GASTEIGER

@<TRIPOS>ATOM
      1 C          -0.7108    3.0232   20.9397 C.3     1  UNL1        0.2068
      2 O          -0.5839    1.5337   20.8173 O.3     1  UNL1       -0.4754
      3 C           2.9172   -0.2537   18.6269 C.ar    1  UNL1        0.0538
      4 C           2.4718    1.1443   18.3151 C.ar    1  UNL1        0.0076
      5 C           1.3048    1.7400   19.0452 C.ar    1  UNL1        0.0370
      6 C           0.5832    0.9378   20.0872 C.ar    1  UNL1        0.1386
      7 C           1.0285   -0.4601   20.3990 C.ar    1  UNL1        0.0370
      8 C           2.1955   -1.0559   19.6689 C.ar    1  UNL1        0.0076
      9 O           3.9991   -1.0939   16.4193 O.2     1  UNL1       -0.2699
     10 C           4.0842   -0.8495   17.8968 C.2     1  UNL1        0.2490
     11 N           5.3364   -1.2009   18.6442 N.am    1  UNL1       -0.2761
     12 C           5.4215   -0.9566   20.1217 C.3     1  UNL1        0.0937
     13 C           6.6738   -1.3080   20.8690 C.3     1  UNL1        0.0216
     14 C           7.8407   -1.9038   20.1389 C.3     1  UNL1        0.0035
     15 C           7.7556   -2.1482   18.6614 C.3     1  UNL1        0.0216
     16 C           6.5034   -1.7968   17.9140 C.3     1  UNL1        0.0937
     17 C           0.0884    3.7617   21.9722 C.3     1  UNL1        0.0646
     18 C          -0.5882    4.3095   23.1938 C.3     1  UNL1        0.0759
     19 N          -0.7196    3.4598   24.4229 N.3     1  UNL1       -0.2726
     20 C           0.0177    2.1568   24.5163 C.3     1  UNL1        0.0721
     21 C          -0.1137    1.3071   25.7453 C.3     1  UNL1        0.0178
     22 C          -0.9824    1.7603   26.8811 C.3     1  UNL1        0.0087
     23 C          -1.7198    3.0632   26.7877 C.3     1  UNL1        0.0178
     24 C          -1.5884    3.9130   25.5586 C.3     1  UNL1        0.0721
     25 C          -1.1139    0.9106   28.1102 C.3     1  UNL1        0.0453
     26 C           0.0909    0.6255   28.9572 C.ar    1  UNL1        0.0541
     27 C           0.5707    1.4512   30.1140 C.ar    1  UNL1        0.1131
     28 N           1.8036    0.8007   30.6679 N.ar    1  UNL1       -0.2229
     29 C           2.0857   -0.4270   29.8535 C.ar    1  UNL1        0.1748
     30 N           1.0272   -0.5353   28.7963 N.ar    1  UNL1       -0.3382
     31 H           0.9589   -1.2438   28.1161 H       1  UNL1        0.1672
@<TRIPOS>BOND
     1     9    10    2
     2    10     3    1
     3     3     4   ar
     4     4     5   ar
     5     5     6   ar
     6     6     2    1
     7     2     1    1
     8     1    17    1
     9    17    18    1
    10    18    19    1
    11    19    20    1
    12    20    21    1
    13    21    22    1
    14    22    25    1
    15    25    26    1
    16    26    27   ar
    17    27    28   ar
    18    28    29   ar
    19    29    30   ar
    20    22    23    1
    21    23    24    1
    22     6     7   ar
    23     7     8   ar
    24    10    11   am
    25    11    12    1
    26    12    13    1
    27    13    14    1
    28    14    15    1
    29    15    16    1
    30     8     3   ar
    31    16    11    1
    32    24    19    1
    33    30    26   ar
    34    30    31    1
@<TRIPOS>MOLECULE
*****
 31 34 0 0 0
SMALL
GASTEIGER

@<TRIPOS>ATOM
      1 C         -11.9284  -19.0225   21.3699 C.3     1  UNL1        0.2068
      2 O         -11.1257  -19.3955   20.1589 O.3     1  UNL1       -0.4754
      3 C          -6.6693  -19.9256   20.4896 C.ar    1  UNL1        0.0538
      4 C          -7.4884  -19.6770   21.7213 C.ar    1  UNL1        0.0076
      5 C          -8.9738  -19.5003   21.6111 C.ar    1  UNL1        0.0370
      6 C          -9.6401  -19.5722   20.2691 C.ar    1  UNL1        0.1386
      7 C          -8.8210  -19.8209   19.0374 C.ar    1  UNL1        0.0370
      8 C          -7.3356  -19.9976   19.1476 C.ar    1  UNL1        0.0076
      9 O          -4.4894  -21.1458   19.7757 O.2     1  UNL1       -0.2699
     10 C          -5.1837  -20.1023   20.5997 C.2     1  UNL1        0.2490
     11 N          -4.3926  -19.2355   21.5339 N.am    1  UNL1       -0.2761
     12 C          -5.0869  -18.1920   22.3579 C.3     1  UNL1        0.0937
     13 C          -4.2956  -17.3252   23.2921 C.3     1  UNL1        0.0216
     14 C          -2.8102  -17.5019   23.4023 C.3     1  UNL1        0.0035
     15 C          -2.1159  -18.5455   22.5782 C.3     1  UNL1        0.0216
     16 C          -2.9071  -19.4122   21.6441 C.3     1  UNL1        0.0937
     17 C         -12.7889  -17.7939   21.3500 C.3     1  UNL1        0.0646
     18 C         -12.1614  -16.4413   21.1868 C.3     1  UNL1        0.0759
     19 N         -10.8723  -16.1235   21.8848 N.3     1  UNL1       -0.2726
     20 C         -10.7042  -16.4563   23.3377 C.3     1  UNL1        0.0721
     21 C          -9.4152  -16.1385   24.0358 C.3     1  UNL1        0.0178
     22 C          -8.2942  -15.4877   23.2809 C.3     1  UNL1        0.0087
     23 C          -8.4622  -15.1548   21.8280 C.3     1  UNL1        0.0178
     24 C          -9.7513  -15.4727   21.1299 C.3     1  UNL1        0.0721
     25 C          -7.0051  -15.1698   23.9789 C.3     1  UNL1        0.0453
     26 C          -6.8515  -15.4655   25.4415 C.ar    1  UNL1        0.0541
     27 C          -7.9315  -15.3716   26.4782 C.ar    1  UNL1        0.1131
     28 N          -7.3383  -15.7550   27.8015 N.ar    1  UNL1       -0.2229
     29 C          -5.8916  -16.0857   27.5827 C.ar    1  UNL1        0.1748
     30 N          -5.5908  -15.9068   26.1241 N.ar    1  UNL1       -0.3382
     31 H          -4.7190  -16.0533   25.6908 H       1  UNL1        0.1672
@<TRIPOS>BOND
     1     9    10    2
     2    10     3    1
     3     3     4   ar
     4     4     5   ar
     5     5     6   ar
     6     6     2    1
     7     2     1    1
     8     1    17    1
     9    17    18    1
    10    18    19    1
    11    19    20    1
    12    20    21    1
    13    21    22    1
    14    22    25    1
    15    25    26    1
    16    26    27   ar
    17    27    28   ar
    18    28    29   ar
    19    29    30   ar
    20    22    23    1
    21    23    24    1
    22     6     7   ar
    23     7     8   ar
    24    10    11   am
    25    11    12    1
    26    12    13    1
    27    13    14    1
    28    14    15    1
    29    15    16    1
    30     8     3   ar
    31    16    11    1
    32    24    19    1
    33    30    26   ar
    34    30    31    1
@<TRIPOS>MOLECULE
*****
 31 34 0 0 0
SMALL
GASTEIGER

@<TRIPOS>ATOM
      1 C           4.9259    2.8333   36.8825 C.3     1  UNL1        0.2068
      2 O           4.6827    3.5472   35.5860 O.3     1  UNL1       -0.4754
      3 C           2.8136    1.3573   32.1276 C.ar    1  UNL1        0.0538
      4 C           4.2545    1.7691   32.0639 C.ar    1  UNL1        0.0076
      5 C           4.8775    2.4990   33.2167 C.ar    1  UNL1        0.0370
      6 C           4.0596    2.8172   34.4331 C.ar    1  UNL1        0.1386
      7 C           2.6187    2.4054   34.4968 C.ar    1  UNL1        0.0370
      8 C           1.9957    1.6755   33.3440 C.ar    1  UNL1        0.0076
      9 O           2.3207   -0.8635   30.8725 O.2     1  UNL1       -0.2699
     10 C           2.1905    0.6273   30.9747 C.2     1  UNL1        0.2490
     11 N           1.4373    1.3881   29.9242 N.am    1  UNL1       -0.2761
     12 C           1.3071    2.8790   30.0264 C.3     1  UNL1        0.0937
     13 C           0.5538    3.6398   28.9757 C.3     1  UNL1        0.0216
     14 C          -0.0693    2.9098   27.8230 C.3     1  UNL1        0.0035
     15 C           0.0609    1.4190   27.7208 C.3     1  UNL1        0.0216
     16 C           0.8142    0.6581   28.7713 C.3     1  UNL1        0.0937
     17 C           5.9480    1.7377   36.9553 C.3     1  UNL1        0.0646
     18 C           5.5337    0.3107   36.7508 C.3     1  UNL1        0.0759
     19 N           5.6372   -0.3127   35.3904 N.3     1  UNL1       -0.2726
     20 C           6.9148   -0.2057   34.6116 C.3     1  UNL1        0.0721
     21 C           7.0182   -0.8290   33.2512 C.3     1  UNL1        0.0178
     22 C           5.8442   -1.5594   32.6696 C.3     1  UNL1        0.0087
     23 C           4.5667   -1.6664   33.4483 C.3     1  UNL1        0.0178
     24 C           4.4632   -1.0430   34.8088 C.3     1  UNL1        0.0721
     25 C           5.9477   -2.1827   31.3092 C.3     1  UNL1        0.0453
     26 C           6.3947   -3.6078   31.1692 C.ar    1  UNL1        0.0541
     27 C           6.7037   -4.3125   29.8816 C.ar    1  UNL1        0.1131
     28 N           7.1110   -5.7185   30.2088 N.ar    1  UNL1       -0.2229
     29 C           7.0538   -5.8828   31.6988 C.ar    1  UNL1        0.1748
     30 N           6.6111   -4.5783   32.2922 N.ar    1  UNL1       -0.3382
     31 H           6.4847   -4.3918   33.2506 H       1  UNL1        0.1672
@<TRIPOS>BOND
     1     9    10    2
     2    10     3    1
     3     3     4   ar
     4     4     5   ar
     5     5     6   ar
     6     6     2    1
     7     2     1    1
     8     1    17    1
     9    17    18    1
    10    18    19    1
    11    19    20    1
    12    20    21    1
    13    21    22    1
    14    22    25    1
    15    25    26    1
    16    26    27   ar
    17    27    28   ar
    18    28    29   ar
    19    29    30   ar
    20    22    23    1
    21    23    24    1
    22     6     7   ar
    23     7     8   ar
    24    10    11   am
    25    11    12    1
    26    12    13    1
    27    13    14    1
    28    14    15    1
    29    15    16    1
    30     8     3   ar
    31    16    11    1
    32    24    19    1
    33    30    26   ar
    34    30    31    1
@<TRIPOS>MOLECULE
*****
 31 34 0 0 0
SMALL
GASTEIGER

@<TRIPOS>ATOM
      1 C          -0.6042    4.7773   18.2139 C.3     1  UNL1        0.2068
      2 O           0.5120    4.3210   19.1060 O.3     1  UNL1       -0.4754
      3 C           2.8193    0.5922   18.0949 C.ar    1  UNL1        0.0538
      4 C           3.5436    1.8894   18.3019 C.ar    1  UNL1        0.0076
      5 C           2.7745    3.1323   18.6389 C.ar    1  UNL1        0.0370
      6 C           1.2811    3.0780   18.7689 C.ar    1  UNL1        0.1386
      7 C           0.5569    1.7809   18.5620 C.ar    1  UNL1        0.0370
      8 C           1.3260    0.5380   18.2249 C.ar    1  UNL1        0.0076
      9 O           3.9641   -0.9374   16.3342 O.2     1  UNL1       -0.2699
     10 C           3.5885   -0.6508   17.7579 C.2     1  UNL1        0.2490
     11 N           3.9819   -1.6070   18.8444 N.am    1  UNL1       -0.2761
     12 C           3.6063   -1.3204   20.2681 C.3     1  UNL1        0.0937
     13 C           3.9998   -2.2767   21.3547 C.3     1  UNL1        0.0216
     14 C           4.7688   -3.5196   21.0176 C.3     1  UNL1        0.0035
     15 C           5.1445   -3.8063   19.5940 C.3     1  UNL1        0.0216
     16 C           4.7510   -2.8500   18.5074 C.3     1  UNL1        0.0937
     17 C          -1.8679    5.3209   18.8120 C.3     1  UNL1        0.0646
     18 C          -3.0427    4.4150   19.0341 C.3     1  UNL1        0.0759
     19 N          -3.4745    4.0753   20.4298 N.3     1  UNL1       -0.2726
     20 C          -4.9278    3.8621   20.7343 C.3     1  UNL1        0.0721
     21 C          -5.3596    3.5223   22.1300 C.3     1  UNL1        0.0178
     22 C          -4.3382    3.3957   23.2212 C.3     1  UNL1        0.0087
     23 C          -2.8850    3.6088   22.9167 C.3     1  UNL1        0.0178
     24 C          -2.4531    3.9486   21.5210 C.3     1  UNL1        0.0721
     25 C          -4.7700    3.0559   24.6170 C.3     1  UNL1        0.0453
     26 C          -5.0529    4.1512   25.6021 C.ar    1  UNL1        0.0541
     27 C          -4.3232    4.3878   26.8911 C.ar    1  UNL1        0.1131
     28 N          -4.9345    5.5849   27.5568 N.ar    1  UNL1       -0.2229
     29 C          -6.0420    6.0882   26.6792 C.ar    1  UNL1        0.1748
     30 N          -6.1152    5.2021   25.4712 N.ar    1  UNL1       -0.3382
     31 H          -6.7491    5.2941   24.7236 H       1  UNL1        0.1672
@<TRIPOS>BOND
     1     9    10    2
     2    10     3    1
     3     3     4   ar
     4     4     5   ar
     5     5     6   ar
     6     6     2    1
     7     2     1    1
     8     1    17    1
     9    17    18    1
    10    18    19    1
    11    19    20    1
    12    20    21    1
    13    21    22    1
    14    22    25    1
    15    25    26    1
    16    26    27   ar
    17    27    28   ar
    18    28    29   ar
    19    29    30   ar
    20    22    23    1
    21    23    24    1
    22     6     7   ar
    23     7     8   ar
    24    10    11   am
    25    11    12    1
    26    12    13    1
    27    13    14    1
    28    14    15    1
    29    15    16    1
    30     8     3   ar
    31    16    11    1
    32    24    19    1
    33    30    26   ar
    34    30    31    1
