@<TRIPOS>MOLECULE
*****
 27 30 0 0 0
SMALL
GASTEIGER

@<TRIPOS>ATOM
      1 C         -13.4697   -1.8279   19.1382 C.ar    1  UNL1        0.0153
      2 C         -14.7428   -2.0644   19.8953 C.ar    1  UNL1        0.0043
      3 C         -15.7750   -0.9797   19.9844 C.ar    1  UNL1        0.0369
      4 C         -15.5342    0.3416   19.3162 C.ar    1  UNL1        0.1384
      5 C         -14.2610    0.5781   18.5591 C.ar    1  UNL1        0.0369
      6 C         -13.2288   -0.5067   18.4701 C.ar    1  UNL1        0.0043
      7 C         -11.2176   -6.8097   19.0165 C.3     1  UNL1        0.0095
      8 C         -11.8200   -5.4363   19.0479 C.3     1  UNL1        0.0761
      9 C         -13.0577   -6.2674   19.2137 C.3     1  UNL1        0.0095
     10 C         -12.8521   -4.3515   19.1369 C.3     1  UNL1        0.0560
     11 C         -12.4375   -2.9126   19.0492 C.2     1  UNL1        0.0767
     12 N         -10.9906   -2.5585   18.8726 N.2     1  UNL1       -0.1836
     13 N          -9.9585   -3.6432   18.7836 N.am    1  UNL1       -0.2062
     14 C         -10.3732   -5.0821   18.8713 C.2     1  UNL1        0.2405
     15 O          -9.3409   -6.1669   18.7823 O.2     1  UNL1       -0.2734
     16 H          -9.0089   -3.4108   18.6677 H       1  UNL1        0.1772
     17 O         -16.5664    1.4262   19.4053 O.3     1  UNL1       -0.4791
     18 C         -16.6942    2.2388   20.6596 C.3     1  UNL1        0.1687
     19 C         -17.4719    1.7024   21.8247 C.3     1  UNL1        0.0609
     20 C         -17.5997    2.5149   23.0791 C.3     1  UNL1        0.0758
     21 N         -16.9500    3.8639   23.1683 N.3     1  UNL1       -0.2737
     22 C         -16.1724    4.4003   22.0032 C.3     1  UNL1        0.0758
     23 C         -16.0445    3.5878   20.7489 C.3     1  UNL1        0.0609
     24 C         -17.0779    4.6765   24.4227 C.3     1  UNL1        0.0575
     25 C         -18.2251    5.2018   25.2338 C.3     1  UNL1        0.0160
     26 C         -17.2587    5.8256   26.1966 C.3     1  UNL1        0.0028
     27 C         -16.1114    5.3002   25.3856 C.3     1  UNL1        0.0160
@<TRIPOS>BOND
     1     7     8    1
     2     8     9    1
     3     8    10    1
     4    10    11    1
     5    11     1    1
     6     1     2   ar
     7     2     3   ar
     8     3     4   ar
     9     4    17    1
    10    17    18    1
    11    18    19    1
    12    19    20    1
    13    20    21    1
    14    21    24    1
    15    24    25    1
    16    25    26    1
    17    26    27    1
    18    21    22    1
    19    22    23    1
    20     4     5   ar
    21     5     6   ar
    22    11    12    2
    23    12    13    1
    24    13    14   am
    25    14    15    2
    26    14     8    1
    27     6     1   ar
    28    23    18    1
    29    27    24    1
    30    13    16    1
@<TRIPOS>MOLECULE
*****
 27 30 0 0 0
SMALL
GASTEIGER

@<TRIPOS>ATOM
      1 C          -2.3659    3.4570   21.2081 C.ar    1  UNL1        0.0153
      2 C          -1.2680    3.2191   22.2020 C.ar    1  UNL1        0.0043
      3 C           0.1326    2.9690   21.7269 C.ar    1  UNL1        0.0369
      4 C           0.4353    2.9569   20.2578 C.ar    1  UNL1        0.1384
      5 C          -0.6626    3.1948   19.2638 C.ar    1  UNL1        0.0369
      6 C          -2.0632    3.4449   19.7390 C.ar    1  UNL1        0.0043
      7 C          -6.5924    4.3747   24.5547 C.3     1  UNL1        0.0095
      8 C          -5.4436    4.1234   23.6234 C.3     1  UNL1        0.0761
      9 C          -4.7185    4.1270   24.9365 C.3     1  UNL1        0.0095
     10 C          -4.0431    3.8734   23.1482 C.3     1  UNL1        0.0560
     11 C          -3.7665    3.7071   21.6833 C.2     1  UNL1        0.0767
     12 N          -4.8906    3.7908   20.6936 N.2     1  UNL1       -0.1836
     13 N          -6.2911    4.0408   21.1689 N.am    1  UNL1       -0.2062
     14 C          -6.5676    4.2071   22.6337 C.2     1  UNL1        0.2405
     15 O          -7.9683    4.4572   23.1089 O.2     1  UNL1       -0.2734
     16 H          -7.0289    4.0958   20.5193 H       1  UNL1        0.1772
     17 O           1.8359    2.7068   19.7827 O.3     1  UNL1       -0.4791
     18 C           2.3267    1.3010   19.6014 C.3     1  UNL1        0.1687
     19 C           1.9998    0.2547   20.6252 C.3     1  UNL1        0.0609
     20 C           2.4906   -1.1512   20.4439 C.3     1  UNL1        0.0758
     21 N           3.3082   -1.5106   19.2388 N.3     1  UNL1       -0.2737
     22 C           3.6351   -0.4642   18.2150 C.3     1  UNL1        0.0758
     23 C           3.1443    0.9416   18.3963 C.3     1  UNL1        0.0609
     24 C           3.7990   -2.9164   19.0576 C.3     1  UNL1        0.0575
     25 C           5.1060   -3.5418   18.6695 C.3     1  UNL1        0.0160
     26 C           4.4930   -4.9045   18.8012 C.3     1  UNL1        0.0028
     27 C           3.1860   -4.2791   19.1892 C.3     1  UNL1        0.0160
@<TRIPOS>BOND
     1     7     8    1
     2     8     9    1
     3     8    10    1
     4    10    11    1
     5    11     1    1
     6     1     2   ar
     7     2     3   ar
     8     3     4   ar
     9     4    17    1
    10    17    18    1
    11    18    19    1
    12    19    20    1
    13    20    21    1
    14    21    24    1
    15    24    25    1
    16    25    26    1
    17    26    27    1
    18    21    22    1
    19    22    23    1
    20     4     5   ar
    21     5     6   ar
    22    11    12    2
    23    12    13    1
    24    13    14   am
    25    14    15    2
    26    14     8    1
    27     6     1   ar
    28    23    18    1
    29    27    24    1
    30    13    16    1
@<TRIPOS>MOLECULE
*****
 27 30 0 0 0
SMALL
GASTEIGER

@<TRIPOS>ATOM
      1 C         -13.9157   -6.1320   18.8043 C.ar    1  UNL1        0.0153
      2 C         -13.2004   -5.6985   17.5591 C.ar    1  UNL1        0.0043
      3 C         -12.3700   -4.4494   17.5676 C.ar    1  UNL1        0.0369
      4 C         -12.2548   -3.6337   18.8212 C.ar    1  UNL1        0.1384
      5 C         -12.9702   -4.0673   20.0663 C.ar    1  UNL1        0.0369
      6 C         -13.8006   -5.3164   20.0578 C.ar    1  UNL1        0.0043
      7 C         -18.1418   -9.5233   19.5420 C.3     1  UNL1        0.0095
      8 C         -16.9736   -8.6058   19.3329 C.3     1  UNL1        0.0761
      9 C         -17.9459   -7.6509   19.9596 C.3     1  UNL1        0.0095
     10 C         -16.1432   -7.3568   19.3413 C.3     1  UNL1        0.0560
     11 C         -14.7461   -7.3812   18.7958 C.2     1  UNL1        0.0767
     12 N         -14.1795   -8.6547   18.2417 N.2     1  UNL1       -0.1836
     13 N         -15.0100   -9.9038   18.2332 N.am    1  UNL1       -0.2062
     14 C         -16.4070   -9.8794   18.7788 C.2     1  UNL1        0.2405
     15 O         -17.2375  -11.1285   18.7703 O.2     1  UNL1       -0.2734
     16 H         -14.6381  -10.7397   17.8695 H       1  UNL1        0.1772
     17 O         -11.4244   -2.3846   18.8297 O.3     1  UNL1       -0.4791
     18 C         -11.9951   -1.1010   18.3037 C.3     1  UNL1        0.1687
     19 C         -13.3878   -0.6898   18.6795 C.3     1  UNL1        0.0609
     20 C         -13.9585    0.5938   18.1536 C.3     1  UNL1        0.0758
     21 N         -13.1365    1.4662   17.2518 N.3     1  UNL1       -0.2737
     22 C         -11.7439    1.0550   16.8760 C.3     1  UNL1        0.0758
     23 C         -11.1732   -0.2287   17.4019 C.3     1  UNL1        0.0609
     24 C         -13.7072    2.7498   16.7258 C.3     1  UNL1        0.0575
     25 C         -13.1748    4.1341   16.5014 C.3     1  UNL1        0.0160
     26 C         -14.5143    4.5651   15.9820 C.3     1  UNL1        0.0028
     27 C         -15.0468    3.1809   16.2064 C.3     1  UNL1        0.0160
@<TRIPOS>BOND
     1     7     8    1
     2     8     9    1
     3     8    10    1
     4    10    11    1
     5    11     1    1
     6     1     2   ar
     7     2     3   ar
     8     3     4   ar
     9     4    17    1
    10    17    18    1
    11    18    19    1
    12    19    20    1
    13    20    21    1
    14    21    24    1
    15    24    25    1
    16    25    26    1
    17    26    27    1
    18    21    22    1
    19    22    23    1
    20     4     5   ar
    21     5     6   ar
    22    11    12    2
    23    12    13    1
    24    13    14   am
    25    14    15    2
    26    14     8    1
    27     6     1   ar
    28    23    18    1
    29    27    24    1
    30    13    16    1
@<TRIPOS>MOLECULE
*****
 27 30 0 0 0
SMALL
GASTEIGER

@<TRIPOS>ATOM
      1 C           2.5590   -0.3117   19.7712 C.ar    1  UNL1        0.0153
      2 C           2.9109    0.9613   19.0600 C.ar    1  UNL1        0.0043
      3 C           1.8879    2.0492   18.9193 C.ar    1  UNL1        0.0369
      4 C           0.5129    1.8642   19.4897 C.ar    1  UNL1        0.1384
      5 C           0.1610    0.5912   20.2009 C.ar    1  UNL1        0.0369
      6 C           1.1841   -0.4967   20.3416 C.ar    1  UNL1        0.0043
      7 C           4.9174   -5.2394   19.5262 C.3     1  UNL1        0.0095
      8 C           4.2846   -3.8814   19.6004 C.3     1  UNL1        0.0761
      9 C           3.1609   -4.6590   18.9818 C.3     1  UNL1        0.0095
     10 C           3.2616   -2.7935   19.4597 C.3     1  UNL1        0.0560
     11 C           3.5821   -1.3996   19.9119 C.2     1  UNL1        0.0767
     12 N           4.9255   -1.0937   20.5047 N.2     1  UNL1       -0.1836
     13 N           5.9485   -2.1816   20.6454 N.am    1  UNL1       -0.2062
     14 C           5.6281   -3.5755   20.1932 C.2     1  UNL1        0.2405
     15 O           6.6512   -4.6634   20.3339 O.2     1  UNL1       -0.2734
     16 H           6.8303   -1.9808   21.0345 H       1  UNL1        0.1772
     17 O          -0.5101    2.9521   19.3490 O.3     1  UNL1       -0.4791
     18 C          -1.4901    3.2078   20.4555 C.3     1  UNL1        0.1687
     19 C          -0.9980    3.4604   21.8497 C.3     1  UNL1        0.0609
     20 C          -1.9780    3.7160   22.9562 C.3     1  UNL1        0.0758
     21 N          -3.4501    3.7191   22.6683 N.3     1  UNL1       -0.2737
     22 C          -3.9422    3.4666   21.2741 C.3     1  UNL1        0.0758
     23 C          -2.9622    3.2109   20.1676 C.3     1  UNL1        0.0609
     24 C          -4.4301    3.9748   23.7748 C.3     1  UNL1        0.0575
     25 C          -4.3684    3.9492   25.2733 C.3     1  UNL1        0.0160
     26 C          -5.8161    4.3364   25.3395 C.3     1  UNL1        0.0028
     27 C          -5.8779    4.3620   23.8410 C.3     1  UNL1        0.0160
@<TRIPOS>BOND
     1     7     8    1
     2     8     9    1
     3     8    10    1
     4    10    11    1
     5    11     1    1
     6     1     2   ar
     7     2     3   ar
     8     3     4   ar
     9     4    17    1
    10    17    18    1
    11    18    19    1
    12    19    20    1
    13    20    21    1
    14    21    24    1
    15    24    25    1
    16    25    26    1
    17    26    27    1
    18    21    22    1
    19    22    23    1
    20     4     5   ar
    21     5     6   ar
    22    11    12    2
    23    12    13    1
    24    13    14   am
    25    14    15    2
    26    14     8    1
    27     6     1   ar
    28    23    18    1
    29    27    24    1
    30    13    16    1
@<TRIPOS>MOLECULE
*****
 27 30 0 0 0
SMALL
GASTEIGER

@<TRIPOS>ATOM
      1 C           2.5478   -0.2978   19.7986 C.ar    1  UNL1        0.0153
      2 C           1.1999   -0.4642   20.4354 C.ar    1  UNL1        0.0043
      3 C           0.1662    0.6138   20.2958 C.ar    1  UNL1        0.0369
      4 C           0.4805    1.8583   19.5195 C.ar    1  UNL1        0.1384
      5 C           1.8284    2.0247   18.8827 C.ar    1  UNL1        0.0369
      6 C           2.8620    0.9466   19.0223 C.ar    1  UNL1        0.0043
      7 C           4.9551   -5.2014   19.5459 C.3     1  UNL1        0.0095
      8 C           4.3089   -3.8499   19.6222 C.3     1  UNL1        0.0761
      9 C           3.1936   -4.6372   19.0006 C.3     1  UNL1        0.0095
     10 C           3.2753   -2.7719   19.4827 C.3     1  UNL1        0.0560
     11 C           3.5814   -1.3759   19.9382 C.2     1  UNL1        0.0767
     12 N           4.9211   -1.0579   20.5332 N.2     1  UNL1       -0.1836
     13 N           5.9546   -2.1360   20.6728 N.am    1  UNL1       -0.2062
     14 C           5.6485   -3.5320   20.2173 C.2     1  UNL1        0.2405
     15 O           6.6822   -4.6100   20.3568 O.2     1  UNL1       -0.2734
     16 H           6.8339   -1.9273   21.0633 H       1  UNL1        0.1772
     17 O          -0.5531    2.9363   19.3799 O.3     1  UNL1       -0.4791
     18 C          -1.5061    3.2117   20.5051 C.3     1  UNL1        0.1687
     19 C          -2.9852    3.1952   20.2562 C.3     1  UNL1        0.0609
     20 C          -3.9382    3.4706   21.3813 C.3     1  UNL1        0.0758
     21 N          -3.4122    3.7626   22.7553 N.3     1  UNL1       -0.2737
     22 C          -1.9331    3.7792   23.0042 C.3     1  UNL1        0.0758
     23 C          -0.9801    3.5037   21.8791 C.3     1  UNL1        0.0609
     24 C          -4.3652    4.0381   23.8804 C.3     1  UNL1        0.0575
     25 C          -4.2711    4.0249   25.3774 C.3     1  UNL1        0.0160
     26 C          -5.7130    4.4276   25.4715 C.3     1  UNL1        0.0028
     27 C          -5.8071    4.4408   23.9746 C.3     1  UNL1        0.0160
@<TRIPOS>BOND
     1     7     8    1
     2     8     9    1
     3     8    10    1
     4    10    11    1
     5    11     1    1
     6     1     2   ar
     7     2     3   ar
     8     3     4   ar
     9     4    17    1
    10    17    18    1
    11    18    19    1
    12    19    20    1
    13    20    21    1
    14    21    24    1
    15    24    25    1
    16    25    26    1
    17    26    27    1
    18    21    22    1
    19    22    23    1
    20     4     5   ar
    21     5     6   ar
    22    11    12    2
    23    12    13    1
    24    13    14   am
    25    14    15    2
    26    14     8    1
    27     6     1   ar
    28    23    18    1
    29    27    24    1
    30    13    16    1
@<TRIPOS>MOLECULE
*****
 27 30 0 0 0
SMALL
GASTEIGER

@<TRIPOS>ATOM
      1 C           7.1994   -5.0268   25.8104 C.ar    1  UNL1        0.0153
      2 C           7.9445   -5.9146   24.8582 C.ar    1  UNL1        0.0043
      3 C           7.8861   -5.6487   23.3831 C.ar    1  UNL1        0.0369
      4 C           7.0826   -4.4950   22.8602 C.ar    1  UNL1        0.1384
      5 C           6.3375   -3.6072   23.8124 C.ar    1  UNL1        0.0369
      6 C           6.3959   -3.8732   25.2875 C.ar    1  UNL1        0.0043
      7 C           6.8308   -4.2525   31.2113 C.3     1  UNL1        0.0095
      8 C           6.9372   -4.4808   29.7325 C.3     1  UNL1        0.0761
      9 C           6.4628   -3.0577   29.7429 C.3     1  UNL1        0.0095
     10 C           6.8788   -4.2149   28.2575 C.3     1  UNL1        0.0560
     11 C           7.2578   -5.2927   27.2855 C.2     1  UNL1        0.0767
     12 N           7.6951   -6.6364   27.7886 N.2     1  UNL1       -0.1836
     13 N           7.7535   -6.9023   29.2637 N.am    1  UNL1       -0.2062
     14 C           7.3745   -5.8245   30.2356 C.2     1  UNL1        0.2405
     15 O           7.4329   -6.0904   31.7108 O.2     1  UNL1       -0.2734
     16 H           8.0406   -7.7842   29.5939 H       1  UNL1        0.1772
     17 O           7.0242   -4.2291   21.3851 O.3     1  UNL1       -0.4791
     18 C           5.9749   -3.3127   20.8291 C.3     1  UNL1        0.1687
     19 C           6.2875   -1.8628   20.6055 C.3     1  UNL1        0.0609
     20 C           5.2382   -0.9464   20.0496 C.3     1  UNL1        0.0758
     21 N           3.8763   -1.4799   19.7172 N.3     1  UNL1       -0.2737
     22 C           3.5637   -2.9298   19.9408 C.3     1  UNL1        0.0758
     23 C           4.6130   -3.8462   20.4968 C.3     1  UNL1        0.0609
     24 C           2.8269   -0.5635   19.1612 C.3     1  UNL1        0.0575
     25 C           1.4216   -0.2044   19.5437 C.3     1  UNL1        0.0160
     26 C           1.3430    0.7326   18.3749 C.3     1  UNL1        0.0028
     27 C           2.7483    0.3736   17.9925 C.3     1  UNL1        0.0160
@<TRIPOS>BOND
     1     7     8    1
     2     8     9    1
     3     8    10    1
     4    10    11    1
     5    11     1    1
     6     1     2   ar
     7     2     3   ar
     8     3     4   ar
     9     4    17    1
    10    17    18    1
    11    18    19    1
    12    19    20    1
    13    20    21    1
    14    21    24    1
    15    24    25    1
    16    25    26    1
    17    26    27    1
    18    21    22    1
    19    22    23    1
    20     4     5   ar
    21     5     6   ar
    22    11    12    2
    23    12    13    1
    24    13    14   am
    25    14    15    2
    26    14     8    1
    27     6     1   ar
    28    23    18    1
    29    27    24    1
    30    13    16    1
@<TRIPOS>MOLECULE
*****
 27 30 0 0 0
SMALL
GASTEIGER

@<TRIPOS>ATOM
      1 C         -13.9390   -4.4552   19.0227 C.ar    1  UNL1        0.0153
      2 C         -15.1380   -4.2942   18.1359 C.ar    1  UNL1        0.0043
      3 C         -16.1651   -3.2460   18.4463 C.ar    1  UNL1        0.0369
      4 C         -15.9932   -2.3588   19.6435 C.ar    1  UNL1        0.1384
      5 C         -14.7943   -2.5198   20.5304 C.ar    1  UNL1        0.0369
      6 C         -13.7671   -3.5681   20.2200 C.ar    1  UNL1        0.0043
      7 C          -9.1012   -6.9644   18.5709 C.3     1  UNL1        0.0095
      8 C         -10.4358   -6.2898   18.6882 C.3     1  UNL1        0.0761
      9 C          -9.5504   -5.2141   19.2442 C.3     1  UNL1        0.0095
     10 C         -11.4629   -5.2417   18.9986 C.3     1  UNL1        0.0560
     11 C         -12.9119   -5.5034   18.7123 C.2     1  UNL1        0.0767
     12 N         -13.3337   -6.8133   18.1156 N.2     1  UNL1       -0.1836
     13 N         -12.3066   -7.8615   17.8052 N.am    1  UNL1       -0.2062
     14 C         -10.8577   -7.5997   18.0915 C.2     1  UNL1        0.2405
     15 O          -9.8305   -8.6480   17.7811 O.2     1  UNL1       -0.2734
     16 H         -12.5835   -8.7212   17.4135 H       1  UNL1        0.1772
     17 O         -17.0203   -1.3107   19.9539 O.3     1  UNL1       -0.4791
     18 C         -16.6175    0.1316   20.0408 C.3     1  UNL1        0.1687
     19 C         -15.5888    0.6811   19.0976 C.3     1  UNL1        0.0609
     20 C         -15.1860    2.1234   19.1844 C.3     1  UNL1        0.0758
     21 N         -15.8120    3.0162   20.2145 N.3     1  UNL1       -0.2737
     22 C         -16.8407    2.4667   21.1577 C.3     1  UNL1        0.0758
     23 C         -17.2435    1.0244   21.0708 C.3     1  UNL1        0.0609
     24 C         -15.4092    4.4585   20.3013 C.3     1  UNL1        0.0575
     25 C         -15.3912    5.6142   19.3452 C.3     1  UNL1        0.0160
     26 C         -14.8395    6.4982   20.4242 C.3     1  UNL1        0.0028
     27 C         -14.8574    5.3426   21.3803 C.3     1  UNL1        0.0160
@<TRIPOS>BOND
     1     7     8    1
     2     8     9    1
     3     8    10    1
     4    10    11    1
     5    11     1    1
     6     1     2   ar
     7     2     3   ar
     8     3     4   ar
     9     4    17    1
    10    17    18    1
    11    18    19    1
    12    19    20    1
    13    20    21    1
    14    21    24    1
    15    24    25    1
    16    25    26    1
    17    26    27    1
    18    21    22    1
    19    22    23    1
    20     4     5   ar
    21     5     6   ar
    22    11    12    2
    23    12    13    1
    24    13    14   am
    25    14    15    2
    26    14     8    1
    27     6     1   ar
    28    23    18    1
    29    27    24    1
    30    13    16    1
@<TRIPOS>MOLECULE
*****
 27 30 0 0 0
SMALL
GASTEIGER

@<TRIPOS>ATOM
      1 C          -2.5700    3.6535   19.4163 C.ar    1  UNL1        0.0153
      2 C          -2.1435    3.1241   20.7534 C.ar    1  UNL1        0.0043
      3 C          -0.7030    2.7884   21.0024 C.ar    1  UNL1        0.0369
      4 C           0.3112    2.9821   19.9143 C.ar    1  UNL1        0.1384
      5 C          -0.1153    3.5115   18.5772 C.ar    1  UNL1        0.0369
      6 C          -1.5559    3.8473   18.3282 C.ar    1  UNL1        0.0043
      7 C          -7.0353    5.9044   17.2027 C.3     1  UNL1        0.0095
      8 C          -5.8202    5.2786   17.8209 C.3     1  UNL1        0.0761
      9 C          -5.1706    6.1139   16.7577 C.3     1  UNL1        0.0095
     10 C          -4.3797    4.9429   18.0699 C.3     1  UNL1        0.0560
     11 C          -4.0107    3.9892   19.1673 C.2     1  UNL1        0.0767
     12 N          -5.0822    3.3713   20.0158 N.2     1  UNL1       -0.1836
     13 N          -6.5227    3.7070   19.7668 N.am    1  UNL1       -0.2062
     14 C          -6.8918    4.6607   18.6694 C.2     1  UNL1        0.2405
     15 O          -8.3324    4.9964   18.4204 O.2     1  UNL1       -0.2734
     16 H          -7.2261    3.3015   20.3237 H       1  UNL1        0.1772
     17 O           1.7518    2.6464   20.1632 O.3     1  UNL1       -0.4791
     18 C           2.2574    1.2612   19.8886 C.3     1  UNL1        0.1687
     19 C           2.1294    0.1947   20.9356 C.3     1  UNL1        0.0609
     20 C           2.6350   -1.1905   20.6610 C.3     1  UNL1        0.0758
     21 N           3.2686   -1.5094   19.3393 N.3     1  UNL1       -0.2737
     22 C           3.3965   -0.4429   18.2923 C.3     1  UNL1        0.0758
     23 C           2.8909    0.9423   18.5669 C.3     1  UNL1        0.0609
     24 C           3.7742   -2.8946   19.0647 C.3     1  UNL1        0.0575
     25 C           3.2083   -4.2770   19.2022 C.3     1  UNL1        0.0160
     26 C           4.4892   -4.8536   18.6763 C.3     1  UNL1        0.0028
     27 C           5.0552   -3.4713   18.5387 C.3     1  UNL1        0.0160
@<TRIPOS>BOND
     1     7     8    1
     2     8     9    1
     3     8    10    1
     4    10    11    1
     5    11     1    1
     6     1     2   ar
     7     2     3   ar
     8     3     4   ar
     9     4    17    1
    10    17    18    1
    11    18    19    1
    12    19    20    1
    13    20    21    1
    14    21    24    1
    15    24    25    1
    16    25    26    1
    17    26    27    1
    18    21    22    1
    19    22    23    1
    20     4     5   ar
    21     5     6   ar
    22    11    12    2
    23    12    13    1
    24    13    14   am
    25    14    15    2
    26    14     8    1
    27     6     1   ar
    28    23    18    1
    29    27    24    1
    30    13    16    1
@<TRIPOS>MOLECULE
*****
 27 30 0 0 0
SMALL
GASTEIGER

@<TRIPOS>ATOM
      1 C          -0.8505    3.7735   22.8959 C.ar    1  UNL1        0.0153
      2 C           0.6490    3.8119   22.8881 C.ar    1  UNL1        0.0043
      3 C           1.4040    3.3778   21.6668 C.ar    1  UNL1        0.0369
      4 C           0.6596    2.9052   20.4534 C.ar    1  UNL1        0.1384
      5 C          -0.8399    2.8667   20.4612 C.ar    1  UNL1        0.0369
      6 C          -1.5949    3.3009   21.6825 C.ar    1  UNL1        0.0043
      7 C          -4.9286    4.4239   26.4807 C.3     1  UNL1        0.0095
      8 C          -3.7997    4.2546   25.5075 C.3     1  UNL1        0.0761
      9 C          -4.8760    3.4919   24.7933 C.3     1  UNL1        0.0095
     10 C          -3.0447    3.8204   24.2863 C.3     1  UNL1        0.0560
     11 C          -1.6055    4.2077   24.1172 C.2     1  UNL1        0.0767
     12 N          -0.9212    5.0291   25.1693 N.2     1  UNL1       -0.1836
     13 N          -1.6762    5.4632   26.3906 N.am    1  UNL1       -0.2062
     14 C          -3.1155    5.0760   26.5596 C.2     1  UNL1        0.2405
     15 O          -3.8705    5.5101   27.7810 O.2     1  UNL1       -0.2734
     16 H          -1.2272    6.0023   27.0812 H       1  UNL1        0.1772
     17 O           1.4146    2.4710   19.2321 O.3     1  UNL1       -0.4791
     18 C           2.0069    1.0945   19.1665 C.3     1  UNL1        0.1687
     19 C           2.9815    0.7484   18.0801 C.3     1  UNL1        0.0609
     20 C           3.5738   -0.6281   18.0144 C.3     1  UNL1        0.0758
     21 N           3.1916   -1.6586   19.0352 N.3     1  UNL1       -0.2737
     22 C           2.2170   -1.3125   20.1217 C.3     1  UNL1        0.0758
     23 C           1.6247    0.0640   20.1873 C.3     1  UNL1        0.0609
     24 C           3.7840   -3.0351   18.9696 C.3     1  UNL1        0.0575
     25 C           5.1378   -3.5928   18.6439 C.3     1  UNL1        0.0160
     26 C           4.6216   -4.9818   18.8768 C.3     1  UNL1        0.0028
     27 C           3.2678   -4.4242   19.2025 C.3     1  UNL1        0.0160
@<TRIPOS>BOND
     1     7     8    1
     2     8     9    1
     3     8    10    1
     4    10    11    1
     5    11     1    1
     6     1     2   ar
     7     2     3   ar
     8     3     4   ar
     9     4    17    1
    10    17    18    1
    11    18    19    1
    12    19    20    1
    13    20    21    1
    14    21    24    1
    15    24    25    1
    16    25    26    1
    17    26    27    1
    18    21    22    1
    19    22    23    1
    20     4     5   ar
    21     5     6   ar
    22    11    12    2
    23    12    13    1
    24    13    14   am
    25    14    15    2
    26    14     8    1
    27     6     1   ar
    28    23    18    1
    29    27    24    1
    30    13    16    1
