@<TRIPOS>MOLECULE
*****
 40 43 0 0 0
SMALL
GASTEIGER

@<TRIPOS>ATOM
      1 C          -9.9581  -19.0540   22.3139 C.ar    1  UNL1        0.0053
      2 C          -9.9846  -19.9674   21.1244 C.ar    1  UNL1        0.0033
      3 C          -8.7280  -20.2212   20.3457 C.ar    1  UNL1        0.0382
      4 C          -7.4449  -19.5616   20.7564 C.ar    1  UNL1        0.1529
      5 C          -7.4184  -18.6482   21.9460 C.ar    1  UNL1        0.0882
      6 C          -8.6750  -18.3944   22.7247 C.ar    1  UNL1        0.0181
      7 N          -6.1354  -17.9887   22.3567 N.am    1  UNL1       -0.2512
      8 C          -4.8788  -18.2425   21.5780 C.2     1  UNL1        0.2698
      9 O          -3.5957  -17.5829   21.9888 O.2     1  UNL1       -0.2704
     10 C          -4.9052  -19.1559   20.3884 C.3     1  UNL1        0.2197
     11 C          -4.4286  -19.9340   19.1979 C.3     1  UNL1        0.0579
     12 O          -6.1883  -19.8154   19.9776 O.3     1  UNL1       -0.4686
     13 C         -12.3568  -18.0658   22.4552 C.ar    1  UNL1        0.0645
     14 N         -13.6134  -17.8120   23.2339 N.ar    1  UNL1       -0.2183
     15 C         -13.7280  -18.2925   24.6503 C.ar    1  UNL1        0.2145
     16 N         -14.9846  -18.0386   25.4291 N.pl3   1  UNL1       -0.3274
     17 N         -12.5859  -19.0268   25.2879 N.ar    1  UNL1       -0.1995
     18 C         -11.3293  -19.2806   24.5091 C.ar    1  UNL1        0.1293
     19 N         -10.1872  -20.0149   25.1467 N.pl3   1  UNL1       -0.3425
     20 C         -11.2147  -18.8001   23.0928 C.ar    1  UNL1        0.0449
     21 H         -15.7341  -17.5567   25.0106 H       1  UNL1        0.1452
     22 H         -15.0598  -18.3539   26.3587 H       1  UNL1        0.1452
     23 H         -10.2624  -20.3303   26.0762 H       1  UNL1        0.1437
     24 H          -9.3625  -20.1815   24.6355 H       1  UNL1        0.1437
     25 C         -11.7203  -16.2083   20.7539 C.3     1  UNL1        0.0067
     26 C         -12.2422  -17.5854   21.0388 C.3     1  UNL1        0.0460
     27 C          -3.4566  -18.7666   20.3857 C.ar    1  UNL1        0.0220
     28 C          -2.9619  -17.7244   19.4270 C.ar    1  UNL1        0.0004
     29 C          -1.5132  -17.3351   19.4244 C.ar    1  UNL1        0.0112
     30 C          -0.5594  -17.9879   20.3804 C.ar    1  UNL1        0.0577
     31 CL          0.8892  -17.5986   20.3777 Cl      1  UNL1       -0.0822
     32 C          -1.0542  -19.0300   21.3391 C.ar    1  UNL1        0.0112
     33 C          -2.5028  -19.4194   21.3418 C.ar    1  UNL1        0.0004
     34 C          -6.1089  -17.0753   23.5463 C.3     1  UNL1        0.1196
     35 C          -7.0960  -15.9506   23.6504 C.3     1  UNL1        0.1113
     36 N          -7.2825  -15.2349   24.9554 N.am    1  UNL1       -0.3026
     37 C          -8.1947  -15.8059   26.0004 C.2     1  UNL1        0.2230
     38 C          -8.3812  -15.0902   27.3053 C.3     1  UNL1        0.0946
     39 O          -8.9204  -17.0927   25.7402 O.2     1  UNL1       -0.2751
     40 H          -6.8062  -14.3903   25.1261 H       1  UNL1        0.1495
@<TRIPOS>BOND
     1    25    26    1
     2    26    13    1
     3    13    14   ar
     4    14    15   ar
     5    15    16    1
     6    15    17   ar
     7    17    18   ar
     8    18    19    1
     9    18    20   ar
    10    20     1    1
    11     1     2   ar
    12     2     3   ar
    13     3     4   ar
    14     4     5   ar
    15     5     6   ar
    16     5     7    1
    17     7    34    1
    18    34    35    1
    19    35    36    1
    20    36    37   am
    21    37    38    1
    22    37    39    2
    23     7     8   am
    24     8     9    2
    25     8    10    1
    26    10    11    1
    27    10    27    1
    28    27    28   ar
    29    28    29   ar
    30    29    30   ar
    31    30    31    1
    32    30    32   ar
    33    32    33   ar
    34    10    12    1
    35    20    13   ar
    36     6     1   ar
    37    33    27   ar
    38    12     4    1
    39    16    21    1
    40    16    22    1
    41    19    23    1
    42    19    24    1
    43    36    40    1
@<TRIPOS>MOLECULE
*****
 40 43 0 0 0
SMALL
GASTEIGER

@<TRIPOS>ATOM
      1 C          -9.7690  -18.9255   22.0127 C.ar    1  UNL1        0.0053
      2 C          -9.7763  -19.7377   20.7517 C.ar    1  UNL1        0.0033
      3 C          -8.5012  -19.9551   19.9923 C.ar    1  UNL1        0.0382
      4 C          -7.2188  -19.3602   20.4939 C.ar    1  UNL1        0.1529
      5 C          -7.2115  -18.5480   21.7549 C.ar    1  UNL1        0.0882
      6 C          -8.4866  -18.3306   22.5143 C.ar    1  UNL1        0.0181
      7 N          -5.9291  -17.9532   22.2565 N.am    1  UNL1       -0.2512
      8 C          -4.6540  -18.1706   21.4971 C.2     1  UNL1        0.2698
      9 O          -3.3715  -17.5757   21.9987 O.2     1  UNL1       -0.2704
     10 C          -4.6612  -18.9828   20.2360 C.3     1  UNL1        0.2197
     11 C          -4.1630  -19.6716   19.0001 C.3     1  UNL1        0.0579
     12 O          -5.9436  -19.5777   19.7344 O.3     1  UNL1       -0.4686
     13 C         -11.1495  -19.1475   24.2025 C.ar    1  UNL1        0.0645
     14 N         -12.4246  -18.9301   24.9620 N.ar    1  UNL1       -0.2183
     15 C         -13.5944  -18.2732   24.2912 C.ar    1  UNL1        0.2145
     16 N         -14.8695  -18.0558   25.0507 N.pl3   1  UNL1       -0.3274
     17 N         -13.4891  -17.8337   22.8609 N.ar    1  UNL1       -0.1995
     18 C         -12.2140  -18.0511   22.1014 C.ar    1  UNL1        0.1293
     19 N         -12.1087  -17.6117   20.6711 N.pl3   1  UNL1       -0.3425
     20 C         -11.0442  -18.7080   22.7722 C.ar    1  UNL1        0.0449
     21 H         -14.9386  -18.3443   25.9894 H       1  UNL1        0.1452
     22 H         -15.6373  -17.6247   24.6104 H       1  UNL1        0.1452
     23 H         -12.8765  -17.1805   20.2308 H       1  UNL1        0.1437
     24 H         -11.2718  -17.7543   20.1726 H       1  UNL1        0.1437
     25 C          -9.6471  -21.2352   24.5695 C.3     1  UNL1        0.0067
     26 C          -9.9796  -19.8044   24.8733 C.3     1  UNL1        0.0460
     27 C          -3.2058  -18.6272   20.3084 C.ar    1  UNL1        0.0220
     28 C          -2.2899  -19.3962   21.2139 C.ar    1  UNL1        0.0004
     29 C          -0.8345  -19.0405   21.2863 C.ar    1  UNL1        0.0112
     30 C          -0.2949  -17.9159   20.4532 C.ar    1  UNL1        0.0577
     31 CL          1.1606  -17.5602   20.5256 Cl      1  UNL1       -0.0822
     32 C          -1.2108  -17.1469   19.5478 C.ar    1  UNL1        0.0112
     33 C          -2.6662  -17.5025   19.4753 C.ar    1  UNL1        0.0004
     34 C          -5.9218  -17.1409   23.5175 C.3     1  UNL1        0.1196
     35 C          -6.7144  -15.8699   23.5955 C.3     1  UNL1        0.1113
     36 N          -7.7069  -15.6716   24.7028 N.am    1  UNL1       -0.3026
     37 C          -7.2310  -15.5047   26.1155 C.2     1  UNL1        0.2230
     38 C          -8.2233  -15.3065   27.2227 C.3     1  UNL1        0.0946
     39 O          -5.7627  -15.5360   26.4209 O.2     1  UNL1       -0.2751
     40 H          -8.6705  -15.6511   24.5023 H       1  UNL1        0.1495
@<TRIPOS>BOND
     1    25    26    1
     2    26    13    1
     3    13    14   ar
     4    14    15   ar
     5    15    16    1
     6    15    17   ar
     7    17    18   ar
     8    18    19    1
     9    18    20   ar
    10    20     1    1
    11     1     2   ar
    12     2     3   ar
    13     3     4   ar
    14     4     5   ar
    15     5     6   ar
    16     5     7    1
    17     7    34    1
    18    34    35    1
    19    35    36    1
    20    36    37   am
    21    37    38    1
    22    37    39    2
    23     7     8   am
    24     8     9    2
    25     8    10    1
    26    10    11    1
    27    10    27    1
    28    27    28   ar
    29    28    29   ar
    30    29    30   ar
    31    30    31    1
    32    30    32   ar
    33    32    33   ar
    34    10    12    1
    35    20    13   ar
    36     6     1   ar
    37    33    27   ar
    38    12     4    1
    39    16    21    1
    40    16    22    1
    41    19    23    1
    42    19    24    1
    43    36    40    1
@<TRIPOS>MOLECULE
*****
 40 43 0 0 0
SMALL
GASTEIGER

@<TRIPOS>ATOM
      1 C           0.5292    2.1715   27.2171 C.ar    1  UNL1        0.0053
      2 C          -0.7442    2.4993   26.4955 C.ar    1  UNL1        0.0033
      3 C          -0.8496    2.2673   25.0173 C.ar    1  UNL1        0.0382
      4 C           0.3184    1.7074   24.2608 C.ar    1  UNL1        0.1529
      5 C           1.5919    1.3795   24.9825 C.ar    1  UNL1        0.0882
      6 C           1.6973    1.6116   26.4607 C.ar    1  UNL1        0.0181
      7 N           2.7599    0.8196   24.2260 N.am    1  UNL1       -0.2512
      8 C           2.6545    0.5876   22.7479 C.2     1  UNL1        0.2698
      9 O           3.8225    0.0276   21.9914 O.2     1  UNL1       -0.2704
     10 C           1.3810    0.9154   22.0261 C.3     1  UNL1        0.2197
     11 C           0.3942    1.0671   20.9067 C.3     1  UNL1        0.0579
     12 O           0.2130    1.4753   22.7826 O.3     1  UNL1       -0.4686
     13 C           0.3462    1.2852   29.6525 C.ar    1  UNL1        0.0645
     14 N           0.4516    1.5172   31.1307 N.ar    1  UNL1       -0.2183
     15 C           0.8456    2.8676   31.6518 C.ar    1  UNL1        0.2145
     16 N           0.9510    3.0995   33.1299 N.pl3   1  UNL1       -0.3274
     17 N           1.1341    3.9859   30.6946 N.ar    1  UNL1       -0.1995
     18 C           1.0287    3.7538   29.2164 C.ar    1  UNL1        0.1293
     19 N           1.3172    4.8721   28.2592 N.pl3   1  UNL1       -0.3425
     20 C           0.6347    2.4035   28.6954 C.ar    1  UNL1        0.0449
     21 H           0.7616    2.3656   33.7582 H       1  UNL1        0.1452
     22 H           1.2096    3.9858   33.4719 H       1  UNL1        0.1452
     23 H           1.5758    5.7583   28.6012 H       1  UNL1        0.1437
     24 H           1.2480    4.7198   27.2890 H       1  UNL1        0.1437
     25 C          -1.4965   -0.3972   28.9285 C.3     1  UNL1        0.0067
     26 C          -0.0478   -0.0651   29.1315 C.3     1  UNL1        0.0460
     27 C           2.2063    0.4082   20.8809 C.ar    1  UNL1        0.0220
     28 C           2.9607    1.3730   20.0149 C.ar    1  UNL1        0.0004
     29 C           3.7860    0.8658   18.8696 C.ar    1  UNL1        0.0112
     30 C           3.8569   -0.6062   18.5904 C.ar    1  UNL1        0.0577
     31 CL          4.6823   -1.1135   17.4451 Cl      1  UNL1       -0.0822
     32 C           3.1025   -1.5710   19.4564 C.ar    1  UNL1        0.0112
     33 C           2.2772   -1.0639   20.6016 C.ar    1  UNL1        0.0004
     34 C           4.0333    0.4917   24.9477 C.3     1  UNL1        0.1196
     35 C           4.3068   -0.9171   25.3839 C.3     1  UNL1        0.1113
     36 N           4.0302   -2.0583   24.4505 N.am    1  UNL1       -0.3026
     37 C           5.1120   -2.5637   23.5426 C.2     1  UNL1        0.2230
     38 C           4.8355   -3.7048   22.6092 C.3     1  UNL1        0.0946
     39 O           6.4704   -1.9278   23.5681 O.2     1  UNL1       -0.2751
     40 H           3.1387   -2.4756   24.4338 H       1  UNL1        0.1495
@<TRIPOS>BOND
     1    25    26    1
     2    26    13    1
     3    13    14   ar
     4    14    15   ar
     5    15    16    1
     6    15    17   ar
     7    17    18   ar
     8    18    19    1
     9    18    20   ar
    10    20     1    1
    11     1     2   ar
    12     2     3   ar
    13     3     4   ar
    14     4     5   ar
    15     5     6   ar
    16     5     7    1
    17     7    34    1
    18    34    35    1
    19    35    36    1
    20    36    37   am
    21    37    38    1
    22    37    39    2
    23     7     8   am
    24     8     9    2
    25     8    10    1
    26    10    11    1
    27    10    27    1
    28    27    28   ar
    29    28    29   ar
    30    29    30   ar
    31    30    31    1
    32    30    32   ar
    33    32    33   ar
    34    10    12    1
    35    20    13   ar
    36     6     1   ar
    37    33    27   ar
    38    12     4    1
    39    16    21    1
    40    16    22    1
    41    19    23    1
    42    19    24    1
    43    36    40    1
@<TRIPOS>MOLECULE
*****
 40 43 0 0 0
SMALL
GASTEIGER

@<TRIPOS>ATOM
      1 C          -0.1657    2.7950   27.1689 C.ar    1  UNL1        0.0053
      2 C           0.8793    2.6082   26.1093 C.ar    1  UNL1        0.0033
      3 C           0.5249    2.7996   24.6644 C.ar    1  UNL1        0.0382
      4 C          -0.8746    3.1779   24.2792 C.ar    1  UNL1        0.1529
      5 C          -1.9197    3.3647   25.3389 C.ar    1  UNL1        0.0882
      6 C          -1.5652    3.1732   26.7837 C.ar    1  UNL1        0.0181
      7 N          -3.3191    3.7429   24.9536 N.am    1  UNL1       -0.2512
      8 C          -3.6736    3.9343   23.5088 C.2     1  UNL1        0.2698
      9 O          -5.0730    4.3125   23.1236 O.2     1  UNL1       -0.2704
     10 C          -2.6285    3.7475   22.4490 C.3     1  UNL1        0.2197
     11 C          -1.9927    3.6844   21.0919 C.3     1  UNL1        0.0579
     12 O          -1.2290    3.3693   22.8342 O.3     1  UNL1       -0.4686
     13 C           0.0735    1.2458   29.2409 C.ar    1  UNL1        0.0645
     14 N           0.4278    1.0544   30.6857 N.ar    1  UNL1       -0.2183
     15 C           0.8974    2.2208   31.5038 C.ar    1  UNL1        0.2145
     16 N           1.2518    2.0293   32.9486 N.pl3   1  UNL1       -0.3274
     17 N           1.0126    3.5786   30.8768 N.ar    1  UNL1       -0.1995
     18 C           0.6582    3.7700   29.4318 C.ar    1  UNL1        0.1293
     19 N           0.7734    5.1278   28.8049 N.pl3   1  UNL1       -0.3425
     20 C           0.1887    2.6036   28.6139 C.ar    1  UNL1        0.0449
     21 H           1.1762    1.1381   33.3601 H       1  UNL1        0.1452
     22 H           1.5600    2.7948   33.4855 H       1  UNL1        0.1452
     23 H           1.0816    5.8933   29.3418 H       1  UNL1        0.1437
     24 H           0.5408    5.2535   27.8566 H       1  UNL1        0.1437
     25 C          -1.6050   -0.6987   28.8509 C.3     1  UNL1        0.0067
     26 C          -0.3961    0.0794   28.4228 C.3     1  UNL1        0.0460
     27 C          -3.8072    4.1038   21.5925 C.ar    1  UNL1        0.0220
     28 C          -4.1178    5.5429   21.3052 C.ar    1  UNL1        0.0004
     29 C          -5.2965    5.8992   20.4486 C.ar    1  UNL1        0.0112
     30 C          -6.1646    4.8165   19.8794 C.ar    1  UNL1        0.0577
     31 CL         -7.3434    5.1728   19.0228 Cl      1  UNL1       -0.0822
     32 C          -5.8540    3.3774   20.1667 C.ar    1  UNL1        0.0112
     33 C          -4.6753    3.0210   21.0233 C.ar    1  UNL1        0.0004
     34 C          -4.3642    3.9297   26.0133 C.3     1  UNL1        0.1196
     35 C          -4.7131    5.3093   26.4876 C.3     1  UNL1        0.1113
     36 N          -4.1946    5.8026   27.8060 N.am    1  UNL1       -0.3026
     37 C          -2.8660    6.4952   27.8776 C.2     1  UNL1        0.2230
     38 C          -2.3475    6.9885   29.1958 C.3     1  UNL1        0.0946
     39 O          -2.0560    6.6946   26.6309 O.2     1  UNL1       -0.2751
     40 H          -4.7263    5.6717   28.6242 H       1  UNL1        0.1495
@<TRIPOS>BOND
     1    25    26    1
     2    26    13    1
     3    13    14   ar
     4    14    15   ar
     5    15    16    1
     6    15    17   ar
     7    17    18   ar
     8    18    19    1
     9    18    20   ar
    10    20     1    1
    11     1     2   ar
    12     2     3   ar
    13     3     4   ar
    14     4     5   ar
    15     5     6   ar
    16     5     7    1
    17     7    34    1
    18    34    35    1
    19    35    36    1
    20    36    37   am
    21    37    38    1
    22    37    39    2
    23     7     8   am
    24     8     9    2
    25     8    10    1
    26    10    11    1
    27    10    27    1
    28    27    28   ar
    29    28    29   ar
    30    29    30   ar
    31    30    31    1
    32    30    32   ar
    33    32    33   ar
    34    10    12    1
    35    20    13   ar
    36     6     1   ar
    37    33    27   ar
    38    12     4    1
    39    16    21    1
    40    16    22    1
    41    19    23    1
    42    19    24    1
    43    36    40    1
@<TRIPOS>MOLECULE
*****
 40 43 0 0 0
SMALL
GASTEIGER

@<TRIPOS>ATOM
      1 C           0.4720    2.1823   27.0691 C.ar    1  UNL1        0.0053
      2 C          -0.7907    2.6549   26.4117 C.ar    1  UNL1        0.0033
      3 C          -0.9501    2.5405   24.9246 C.ar    1  UNL1        0.0382
      4 C           0.1531    1.9534   24.0950 C.ar    1  UNL1        0.1529
      5 C           1.4157    1.4807   24.7524 C.ar    1  UNL1        0.0882
      6 C           1.5752    1.5952   26.2395 C.ar    1  UNL1        0.0181
      7 N           2.5189    0.8937   23.9228 N.am    1  UNL1       -0.2512
      8 C           2.3595    0.7792   22.4357 C.2     1  UNL1        0.2698
      9 O           3.4627    0.1921   21.6061 O.2     1  UNL1       -0.2704
     10 C           1.0968    1.2519   21.7782 C.3     1  UNL1        0.2197
     11 C           0.0966    1.5575   20.7029 C.3     1  UNL1        0.0579
     12 O          -0.0064    1.8390   22.6078 O.3     1  UNL1       -0.4686
     13 C           0.3079    1.1267   29.4375 C.ar    1  UNL1        0.0645
     14 N           0.4674    1.2411   30.9245 N.ar    1  UNL1       -0.2183
     15 C           0.9505    2.5255   31.5305 C.ar    1  UNL1        0.2145
     16 N           1.1100    2.6399   33.0176 N.pl3   1  UNL1       -0.3274
     17 N           1.2741    3.6954   30.6493 N.ar    1  UNL1       -0.1995
     18 C           1.1146    3.5810   29.1621 C.ar    1  UNL1        0.1293
     19 N           1.4382    4.7509   28.2809 N.pl3   1  UNL1       -0.3425
     20 C           0.6315    2.2967   28.5563 C.ar    1  UNL1        0.0449
     21 H           0.8976    1.8720   33.5959 H       1  UNL1        0.1452
     22 H           1.4270    3.4828   33.4152 H       1  UNL1        0.1452
     23 H           1.7553    5.5939   28.6786 H       1  UNL1        0.1437
     24 H           1.3335    4.6759   27.3049 H       1  UNL1        0.1437
     25 C          -1.6211   -0.5416   28.9415 C.3     1  UNL1        0.0067
     26 C          -0.1752   -0.1576   28.8315 C.3     1  UNL1        0.0460
     27 C           1.8526    0.7709   20.5751 C.ar    1  UNL1        0.0220
     28 C           1.8642   -0.6890   20.2309 C.ar    1  UNL1        0.0004
     29 C           2.6201   -1.1699   19.0278 C.ar    1  UNL1        0.0112
     30 C           3.3643   -0.1910   18.1690 C.ar    1  UNL1        0.0577
     31 CL          4.1202   -0.6719   16.9659 Cl      1  UNL1       -0.0822
     32 C           3.3527    1.2689   18.5132 C.ar    1  UNL1        0.0112
     33 C           2.5969    1.7499   19.7163 C.ar    1  UNL1        0.0004
     34 C           3.7816    0.4210   24.5802 C.3     1  UNL1        0.1196
     35 C           3.9614   -1.0333   24.9004 C.3     1  UNL1        0.1113
     36 N           4.9722   -1.4563   25.9249 N.am    1  UNL1       -0.3026
     37 C           4.5532   -1.6661   27.3499 C.2     1  UNL1        0.2230
     38 C           5.5639   -2.0890   28.3743 C.3     1  UNL1        0.0946
     39 O           3.1234   -1.4528   27.7503 O.2     1  UNL1       -0.2751
     40 H           5.9106   -1.5963   25.6621 H       1  UNL1        0.1495
@<TRIPOS>BOND
     1    25    26    1
     2    26    13    1
     3    13    14   ar
     4    14    15   ar
     5    15    16    1
     6    15    17   ar
     7    17    18   ar
     8    18    19    1
     9    18    20   ar
    10    20     1    1
    11     1     2   ar
    12     2     3   ar
    13     3     4   ar
    14     4     5   ar
    15     5     6   ar
    16     5     7    1
    17     7    34    1
    18    34    35    1
    19    35    36    1
    20    36    37   am
    21    37    38    1
    22    37    39    2
    23     7     8   am
    24     8     9    2
    25     8    10    1
    26    10    11    1
    27    10    27    1
    28    27    28   ar
    29    28    29   ar
    30    29    30   ar
    31    30    31    1
    32    30    32   ar
    33    32    33   ar
    34    10    12    1
    35    20    13   ar
    36     6     1   ar
    37    33    27   ar
    38    12     4    1
    39    16    21    1
    40    16    22    1
    41    19    23    1
    42    19    24    1
    43    36    40    1
@<TRIPOS>MOLECULE
*****
 40 43 0 0 0
SMALL
GASTEIGER

@<TRIPOS>ATOM
      1 C           0.2606    2.4598   27.0248 C.ar    1  UNL1        0.0053
      2 C           1.2342    1.8325   26.0716 C.ar    1  UNL1        0.0033
      3 C           0.9931    1.9116   24.5933 C.ar    1  UNL1        0.0382
      4 C          -0.2216    2.6179   24.0681 C.ar    1  UNL1        0.1529
      5 C          -1.1951    3.2451   25.0213 C.ar    1  UNL1        0.0882
      6 C          -0.9540    3.1661   26.4997 C.ar    1  UNL1        0.0181
      7 N          -2.4098    3.9514   24.4962 N.am    1  UNL1       -0.2512
      8 C          -2.6508    4.0305   23.0178 C.2     1  UNL1        0.2698
      9 O          -3.8655    4.7368   22.4927 O.2     1  UNL1       -0.2704
     10 C          -1.6773    3.4032   22.0645 C.3     1  UNL1        0.2197
     11 C          -1.0498    2.9688   20.7732 C.3     1  UNL1        0.0579
     12 O          -0.4626    2.6969   22.5897 O.3     1  UNL1       -0.4686
     13 C           0.1807    1.1195   29.2491 C.ar    1  UNL1        0.0645
     14 N           0.4217    1.0404   30.7275 N.ar    1  UNL1       -0.2183
     15 C           0.9837    2.2227   31.4601 C.ar    1  UNL1        0.2145
     16 N           1.2247    2.1436   32.9385 N.pl3   1  UNL1       -0.3274
     17 N           1.3046    3.4839   30.7143 N.ar    1  UNL1       -0.1995
     18 C           1.0636    3.5629   29.2358 C.ar    1  UNL1        0.1293
     19 N           1.3845    4.8242   28.4900 N.pl3   1  UNL1       -0.3425
     20 C           0.5016    2.3808   28.5033 C.ar    1  UNL1        0.0449
     21 H           1.0141    1.3158   33.4280 H       1  UNL1        0.1452
     22 H           1.5936    2.9195   33.4193 H       1  UNL1        0.1452
     23 H           1.7533    5.6001   28.9708 H       1  UNL1        0.1437
     24 H           1.2263    4.8761   27.5196 H       1  UNL1        0.1437
     25 C          -1.6944   -0.6519   28.9390 C.3     1  UNL1        0.0067
     26 C          -0.3812   -0.0627   28.5165 C.3     1  UNL1        0.0460
     27 C          -2.6740    3.9587   21.0909 C.ar    1  UNL1        0.0220
     28 C          -2.4777    5.3307   20.5173 C.ar    1  UNL1        0.0004
     29 C          -3.4746    5.8861   19.5437 C.ar    1  UNL1        0.0112
     30 C          -4.6675    5.0696   19.1437 C.ar    1  UNL1        0.0577
     31 CL         -5.6643    5.6251   18.1700 Cl      1  UNL1       -0.0822
     32 C          -4.8637    3.6976   19.7173 C.ar    1  UNL1        0.0112
     33 C          -3.8670    3.1421   20.6909 C.ar    1  UNL1        0.0004
     34 C          -3.3833    4.5787   25.4494 C.3     1  UNL1        0.1196
     35 C          -4.6553    3.8652   25.8001 C.3     1  UNL1        0.1113
     36 N          -5.6985    3.6310   24.7479 N.am    1  UNL1       -0.3026
     37 C          -6.7396    4.6767   24.4783 C.2     1  UNL1        0.2230
     38 C          -7.7828    4.4426   23.4262 C.3     1  UNL1        0.0946
     39 O          -6.7375    5.9565   25.2609 O.2     1  UNL1       -0.2751
     40 H          -5.6999    2.7911   24.2344 H       1  UNL1        0.1495
@<TRIPOS>BOND
     1    25    26    1
     2    26    13    1
     3    13    14   ar
     4    14    15   ar
     5    15    16    1
     6    15    17   ar
     7    17    18   ar
     8    18    19    1
     9    18    20   ar
    10    20     1    1
    11     1     2   ar
    12     2     3   ar
    13     3     4   ar
    14     4     5   ar
    15     5     6   ar
    16     5     7    1
    17     7    34    1
    18    34    35    1
    19    35    36    1
    20    36    37   am
    21    37    38    1
    22    37    39    2
    23     7     8   am
    24     8     9    2
    25     8    10    1
    26    10    11    1
    27    10    27    1
    28    27    28   ar
    29    28    29   ar
    30    29    30   ar
    31    30    31    1
    32    30    32   ar
    33    32    33   ar
    34    10    12    1
    35    20    13   ar
    36     6     1   ar
    37    33    27   ar
    38    12     4    1
    39    16    21    1
    40    16    22    1
    41    19    23    1
    42    19    24    1
    43    36    40    1
@<TRIPOS>MOLECULE
*****
 40 43 0 0 0
SMALL
GASTEIGER

@<TRIPOS>ATOM
      1 C           2.5574    0.4249   27.8413 C.ar    1  UNL1        0.0053
      2 C           3.2887   -0.8717   28.0252 C.ar    1  UNL1        0.0033
      3 C           3.8451   -1.5943   26.8343 C.ar    1  UNL1        0.0382
      4 C           3.6702   -1.0203   25.4596 C.ar    1  UNL1        0.1529
      5 C           2.9389    0.2763   25.2757 C.ar    1  UNL1        0.0882
      6 C           2.3825    0.9989   26.4665 C.ar    1  UNL1        0.0181
      7 N           2.7640    0.8503   23.9009 N.am    1  UNL1       -0.2512
      8 C           3.3204    0.1276   22.7101 C.2     1  UNL1        0.2698
      9 O           3.1454    0.7016   21.3353 O.2     1  UNL1       -0.2704
     10 C           4.0517   -1.1691   22.8939 C.3     1  UNL1        0.2197
     11 C           4.8143   -2.4169   22.5601 C.3     1  UNL1        0.0579
     12 O           4.2266   -1.7431   24.2687 O.3     1  UNL1       -0.4686
     13 C           0.6062    0.8571   29.5014 C.ar    1  UNL1        0.0645
     14 N           0.0498    1.5798   30.6922 N.ar    1  UNL1       -0.2183
     15 C           0.8881    2.5930   31.4138 C.ar    1  UNL1        0.2145
     16 N           0.3316    3.3157   32.6047 N.pl3   1  UNL1       -0.3274
     17 N           2.2829    2.8835   30.9446 N.ar    1  UNL1       -0.1995
     18 C           2.8393    2.1608   29.7537 C.ar    1  UNL1        0.1293
     19 N           4.2341    2.4513   29.2844 N.pl3   1  UNL1       -0.3425
     20 C           2.0010    1.1477   29.0321 C.ar    1  UNL1        0.0449
     21 H          -0.5838    3.1250   32.9126 H       1  UNL1        0.1452
     22 H           0.8818    3.9807   33.0783 H       1  UNL1        0.1452
     23 H           4.7843    3.1163   29.7580 H       1  UNL1        0.1437
     24 H           4.5993    1.9770   28.5028 H       1  UNL1        0.1437
     25 C          -1.6909   -0.2892   29.1025 C.3     1  UNL1        0.0067
     26 C          -0.2321   -0.1561   28.7798 C.3     1  UNL1        0.0460
     27 C           4.1416   -1.0284   21.4033 C.ar    1  UNL1        0.0220
     28 C           3.0526   -1.5790   20.5310 C.ar    1  UNL1        0.0004
     29 C           3.1426   -1.4383   19.0402 C.ar    1  UNL1        0.0112
     30 C           4.3214   -0.7472   18.4219 C.ar    1  UNL1        0.0577
     31 CL          4.4113   -0.6065   16.9312 Cl      1  UNL1       -0.0822
     32 C           5.4104   -0.1966   19.2942 C.ar    1  UNL1        0.0112
     33 C           5.3206   -0.3372   20.7849 C.ar    1  UNL1        0.0004
     34 C           2.0327    2.1469   23.7170 C.3     1  UNL1        0.1196
     35 C           0.7398    2.1776   22.9571 C.3     1  UNL1        0.1113
     36 N           0.6995    2.7423   21.5680 N.am    1  UNL1       -0.3026
     37 C           0.2006    1.9012   20.4306 C.2     1  UNL1        0.2230
     38 C           0.1603    2.4658   19.0416 C.3     1  UNL1        0.0946
     39 O          -0.2580    0.4953   20.6824 O.2     1  UNL1       -0.2751
     40 H           1.0004    3.6650   21.4028 H       1  UNL1        0.1495
@<TRIPOS>BOND
     1    25    26    1
     2    26    13    1
     3    13    14   ar
     4    14    15   ar
     5    15    16    1
     6    15    17   ar
     7    17    18   ar
     8    18    19    1
     9    18    20   ar
    10    20     1    1
    11     1     2   ar
    12     2     3   ar
    13     3     4   ar
    14     4     5   ar
    15     5     6   ar
    16     5     7    1
    17     7    34    1
    18    34    35    1
    19    35    36    1
    20    36    37   am
    21    37    38    1
    22    37    39    2
    23     7     8   am
    24     8     9    2
    25     8    10    1
    26    10    11    1
    27    10    27    1
    28    27    28   ar
    29    28    29   ar
    30    29    30   ar
    31    30    31    1
    32    30    32   ar
    33    32    33   ar
    34    10    12    1
    35    20    13   ar
    36     6     1   ar
    37    33    27   ar
    38    12     4    1
    39    16    21    1
    40    16    22    1
    41    19    23    1
    42    19    24    1
    43    36    40    1
@<TRIPOS>MOLECULE
*****
 40 43 0 0 0
SMALL
GASTEIGER

@<TRIPOS>ATOM
      1 C          -0.2954    2.6992   26.8455 C.ar    1  UNL1        0.0053
      2 C           0.7491    2.4832   25.7909 C.ar    1  UNL1        0.0033
      3 C           0.4066    2.6824   24.3442 C.ar    1  UNL1        0.0382
      4 C          -0.9804    3.0976   23.9521 C.ar    1  UNL1        0.1529
      5 C          -2.0249    3.3137   25.0067 C.ar    1  UNL1        0.0882
      6 C          -1.6825    3.1145   26.4534 C.ar    1  UNL1        0.0181
      7 N          -3.4119    3.7289   24.6146 N.am    1  UNL1       -0.2512
      8 C          -3.7544    3.9281   23.1679 C.2     1  UNL1        0.2698
      9 O          -5.1414    4.3433   22.7758 O.2     1  UNL1       -0.2704
     10 C          -2.7099    3.7120   22.1132 C.3     1  UNL1        0.2197
     11 C          -2.0698    3.6303   20.7591 C.3     1  UNL1        0.0579
     12 O          -1.3228    3.2968   22.5053 O.3     1  UNL1       -0.4686
     13 C           0.5196    3.6599   29.1177 C.ar    1  UNL1        0.0645
     14 N           0.8621    3.4608   30.5644 N.ar    1  UNL1       -0.2183
     15 C           0.7319    2.1017   31.1858 C.ar    1  UNL1        0.2145
     16 N           1.0744    1.9026   32.6325 N.pl3   1  UNL1       -0.3274
     17 N           0.2593    0.9418   30.3604 N.ar    1  UNL1       -0.1995
     18 C          -0.0832    1.1410   28.9136 C.ar    1  UNL1        0.1293
     19 N          -0.5558   -0.0189   28.0882 N.pl3   1  UNL1       -0.3425
     20 C           0.0470    2.5000   28.2923 C.ar    1  UNL1        0.0449
     21 H           1.3845    2.6639   33.1742 H       1  UNL1        0.1452
     22 H           0.9889    1.0106   33.0403 H       1  UNL1        0.1452
     23 H          -0.6412   -0.9108   28.4960 H       1  UNL1        0.1437
     24 H          -0.7805    0.1119   27.1386 H       1  UNL1        0.1437
     25 C          -0.4581    6.0196   28.6423 C.3     1  UNL1        0.0067
     26 C           0.6498    5.0190   28.4963 C.3     1  UNL1        0.0460
     27 C          -3.8746    4.0989   21.2508 C.ar    1  UNL1        0.0220
     28 C          -4.7712    3.0394   20.6820 C.ar    1  UNL1        0.0004
     29 C          -5.9359    3.4264   19.8195 C.ar    1  UNL1        0.0112
     30 C          -6.2041    4.8726   19.5260 C.ar    1  UNL1        0.0577
     31 CL         -7.3689    5.2595   18.6636 Cl      1  UNL1       -0.0822
     32 C          -5.3075    5.9321   20.0949 C.ar    1  UNL1        0.0112
     33 C          -4.1427    5.5453   20.9573 C.ar    1  UNL1        0.0004
     34 C          -4.4565    3.9450   25.6691 C.3     1  UNL1        0.1196
     35 C          -4.7066    5.3232   26.2059 C.3     1  UNL1        0.1113
     36 N          -5.4458    5.5018   27.4988 N.am    1  UNL1       -0.3026
     37 C          -6.8150    6.1144   27.5015 C.2     1  UNL1        0.2230
     38 C          -7.5543    6.2930   28.7943 C.3     1  UNL1        0.0946
     39 O          -7.4450    6.5483   26.2111 O.2     1  UNL1       -0.2751
     40 H          -5.0323    5.2170   28.3457 H       1  UNL1        0.1495
@<TRIPOS>BOND
     1    25    26    1
     2    26    13    1
     3    13    14   ar
     4    14    15   ar
     5    15    16    1
     6    15    17   ar
     7    17    18   ar
     8    18    19    1
     9    18    20   ar
    10    20     1    1
    11     1     2   ar
    12     2     3   ar
    13     3     4   ar
    14     4     5   ar
    15     5     6   ar
    16     5     7    1
    17     7    34    1
    18    34    35    1
    19    35    36    1
    20    36    37   am
    21    37    38    1
    22    37    39    2
    23     7     8   am
    24     8     9    2
    25     8    10    1
    26    10    11    1
    27    10    27    1
    28    27    28   ar
    29    28    29   ar
    30    29    30   ar
    31    30    31    1
    32    30    32   ar
    33    32    33   ar
    34    10    12    1
    35    20    13   ar
    36     6     1   ar
    37    33    27   ar
    38    12     4    1
    39    16    21    1
    40    16    22    1
    41    19    23    1
    42    19    24    1
    43    36    40    1
@<TRIPOS>MOLECULE
*****
 40 43 0 0 0
SMALL
GASTEIGER

@<TRIPOS>ATOM
      1 C           4.4449    1.1382   35.7845 C.ar    1  UNL1        0.0053
      2 C           4.7356   -0.2820   35.3990 C.ar    1  UNL1        0.0033
      3 C           4.3009   -0.7996   34.0599 C.ar    1  UNL1        0.0382
      4 C           3.5755    0.1030   33.1064 C.ar    1  UNL1        0.1529
      5 C           3.2849    1.5231   33.4919 C.ar    1  UNL1        0.0882
      6 C           3.7196    2.0407   34.8309 C.ar    1  UNL1        0.0181
      7 N           2.5595    2.4256   32.5383 N.am    1  UNL1       -0.2512
      8 C           2.1248    1.9080   31.1993 C.2     1  UNL1        0.2698
      9 O           1.3994    2.8106   30.2457 O.2     1  UNL1       -0.2704
     10 C           2.4154    0.4878   30.8137 C.3     1  UNL1        0.2197
     11 C           2.4595   -0.7707   29.9988 C.3     1  UNL1        0.0579
     12 O           3.1408   -0.4147   31.7673 O.3     1  UNL1       -0.4686
     13 C           3.9304    1.6231   38.2845 C.ar    1  UNL1        0.0645
     14 N           4.3650    2.1407   39.6236 N.ar    1  UNL1       -0.2183
     15 C           5.7490    2.6912   39.8017 C.ar    1  UNL1        0.2145
     16 N           6.1836    3.2088   41.1408 N.pl3   1  UNL1       -0.3274
     17 N           6.6983    2.7239   38.6408 N.ar    1  UNL1       -0.1995
     18 C           6.2636    2.2063   37.3017 C.ar    1  UNL1        0.1293
     19 N           7.2128    2.2390   36.1407 N.pl3   1  UNL1       -0.3425
     20 C           4.8796    1.6558   37.1236 C.ar    1  UNL1        0.0449
     21 H           5.5606    3.1873   41.9027 H       1  UNL1        0.1452
     22 H           7.0920    3.5701   41.2577 H       1  UNL1        0.1452
     23 H           8.1212    2.6003   36.2576 H       1  UNL1        0.1437
     24 H           6.9276    1.8993   35.2618 H       1  UNL1        0.1437
     25 C           1.7777    0.5767   39.2951 C.3     1  UNL1        0.0067
     26 C           2.5464    1.0726   38.1064 C.3     1  UNL1        0.0460
     27 C           1.7054    0.9533   29.5772 C.ar    1  UNL1        0.0220
     28 C           0.2164    0.8087   29.4680 C.ar    1  UNL1        0.0004
     29 C          -0.4937    1.2742   28.2314 C.ar    1  UNL1        0.0112
     30 C           0.2852    1.8842   27.1040 C.ar    1  UNL1        0.0577
     31 CL         -0.4249    2.3497   25.8674 Cl      1  UNL1       -0.0822
     32 C           1.7742    2.0288   27.2132 C.ar    1  UNL1        0.0112
     33 C           2.4844    1.5633   28.4497 C.ar    1  UNL1        0.0004
     34 C           2.2688    3.8458   32.9238 C.3     1  UNL1        0.1196
     35 C           0.9529    4.1982   33.5515 C.3     1  UNL1        0.1113
     36 N           0.8340    5.4258   34.4053 N.am    1  UNL1       -0.3026
     37 C           1.0531    5.3334   35.8864 C.2     1  UNL1        0.2230
     38 C           0.9343    6.5609   36.7402 C.3     1  UNL1        0.0946
     39 O           1.3909    4.0133   36.5136 O.2     1  UNL1       -0.2751
     40 H           0.6123    6.2922   33.9937 H       1  UNL1        0.1495
@<TRIPOS>BOND
     1    25    26    1
     2    26    13    1
     3    13    14   ar
     4    14    15   ar
     5    15    16    1
     6    15    17   ar
     7    17    18   ar
     8    18    19    1
     9    18    20   ar
    10    20     1    1
    11     1     2   ar
    12     2     3   ar
    13     3     4   ar
    14     4     5   ar
    15     5     6   ar
    16     5     7    1
    17     7    34    1
    18    34    35    1
    19    35    36    1
    20    36    37   am
    21    37    38    1
    22    37    39    2
    23     7     8   am
    24     8     9    2
    25     8    10    1
    26    10    11    1
    27    10    27    1
    28    27    28   ar
    29    28    29   ar
    30    29    30   ar
    31    30    31    1
    32    30    32   ar
    33    32    33   ar
    34    10    12    1
    35    20    13   ar
    36     6     1   ar
    37    33    27   ar
    38    12     4    1
    39    16    21    1
    40    16    22    1
    41    19    23    1
    42    19    24    1
    43    36    40    1
