@<TRIPOS>MOLECULE
*****
 36 41 0 0 0
SMALL
GASTEIGER

@<TRIPOS>ATOM
      1 C          -7.5972  -19.7954   20.3159 C.3     1  UNL1        0.0745
      2 C          -8.7165  -19.3523   19.4210 C.3     1  UNL1        0.0356
      3 C          -9.1077  -20.1888   18.2389 C.3     1  UNL1        0.0594
      4 C          -9.1501  -21.2916   17.2231 C.3     1  UNL1        0.0174
      5 C          -8.0834  -22.2862   17.5740 C.3     1  UNL1        0.0174
      6 C          -7.3818  -21.7980   18.8066 C.3     1  UNL1        0.0594
      7 C          -6.8691  -21.0750   20.0287 C.3     1  UNL1        0.0356
      8 N          -8.0148  -20.5017   19.2176 N.3     1  UNL1       -0.2715
      9 O          -9.1603  -17.3245   20.9879 O.2     1  UNL1       -0.2701
     10 C          -7.9876  -17.7235   21.8340 C.2     1  UNL1        0.2458
     11 N          -7.2061  -18.9589   21.4980 N.am    1  UNL1       -0.3024
     12 H          -6.4365  -19.2208   22.0533 H       1  UNL1        0.1497
     13 C          -7.5966  -16.8870   23.0161 C.ar    1  UNL1        0.0534
     14 C          -6.1855  -16.3975   23.1545 C.ar    1  UNL1        0.0045
     15 C          -5.7944  -15.5610   24.3366 C.ar    1  UNL1        0.0001
     16 C          -6.8144  -15.2139   25.3802 C.ar    1  UNL1        0.0000
     17 C          -8.2256  -15.7034   25.2418 C.ar    1  UNL1        0.0001
     18 C          -8.6166  -16.5400   24.0596 C.ar    1  UNL1        0.0044
     19 C         -10.0277  -17.0295   23.9211 C.ar    1  UNL1        0.0001
     20 C         -10.4542  -18.2927   24.6086 C.ar    1  UNL1        0.0000
     21 C         -11.8653  -18.7822   24.4701 C.ar    1  UNL1        0.0000
     22 C         -12.8499  -18.0085   23.6442 C.ar    1  UNL1        0.0000
     23 C         -12.4234  -16.7454   22.9568 C.ar    1  UNL1        0.0000
     24 C         -11.0123  -16.2559   23.0953 C.ar    1  UNL1        0.0000
     25 C          -7.6237  -19.6653   20.3997 C.3     1  UNL1        0.0991
     26 C          -6.1749  -19.4022   20.6858 C.ar    1  UNL1       -0.0061
     27 C          -5.6062  -19.7259   22.0355 C.ar    1  UNL1       -0.0029
     28 C          -4.1575  -19.4628   22.3216 C.ar    1  UNL1       -0.0002
     29 C          -3.2774  -18.8760   21.2581 C.ar    1  UNL1        0.0022
     30 C          -1.8286  -18.6129   21.5442 C.ar    1  UNL1        0.0296
     31 C          -0.9486  -18.0261   20.4806 C.ar    1  UNL1        0.1401
     32 F           0.5001  -17.7630   20.7668 F       1  UNL1       -0.2042
     33 C          -1.5174  -17.7024   19.1309 C.ar    1  UNL1        0.0296
     34 C          -2.9661  -17.9655   18.8448 C.ar    1  UNL1        0.0023
     35 C          -3.8461  -18.5523   19.9084 C.ar    1  UNL1       -0.0001
     36 C          -5.2949  -18.8154   19.6222 C.ar    1  UNL1       -0.0029
@<TRIPOS>BOND
     1     9    10    2
     2    10    11   am
     3    11     1    1
     4     1     2    1
     5     2     3    1
     6     3     4    1
     7     4     5    1
     8     5     6    1
     9     6     7    1
    10     6     8    1
    11     8    25    1
    12    25    26    1
    13    26    27   ar
    14    27    28   ar
    15    28    29   ar
    16    29    30   ar
    17    30    31   ar
    18    31    32    1
    19    31    33   ar
    20    33    34   ar
    21    34    35   ar
    22    35    36   ar
    23    10    13    1
    24    13    14   ar
    25    14    15   ar
    26    15    16   ar
    27    16    17   ar
    28    17    18   ar
    29    18    19    1
    30    19    20   ar
    31    20    21   ar
    32    21    22   ar
    33    22    23   ar
    34    23    24   ar
    35     7     1    1
    36    36    26   ar
    37    18    13   ar
    38    24    19   ar
    39     8     3    1
    40    35    29   ar
    41    11    12    1
@<TRIPOS>MOLECULE
*****
 36 41 0 0 0
SMALL
GASTEIGER

@<TRIPOS>ATOM
      1 C          -8.1129  -19.3103   21.1943 C.3     1  UNL1        0.0745
      2 C          -7.1317  -20.3427   20.7236 C.3     1  UNL1        0.0356
      3 C          -7.3352  -21.0236   19.4027 C.3     1  UNL1        0.0594
      4 C          -7.9152  -21.4242   18.0786 C.3     1  UNL1        0.0174
      5 C          -9.1657  -20.6252   17.8595 C.3     1  UNL1        0.0174
      6 C          -9.3585  -19.7308   19.0481 C.3     1  UNL1        0.0594
      7 C          -9.2975  -18.9588   20.3440 C.3     1  UNL1        0.0356
      8 N          -8.2272  -19.9769   20.0018 N.3     1  UNL1       -0.2715
      9 O          -7.3176  -16.4190   21.2847 O.2     1  UNL1       -0.2701
     10 C          -7.5116  -17.1838   22.5605 C.2     1  UNL1        0.2458
     11 N          -7.9093  -18.6294   22.5153 N.am    1  UNL1       -0.3024
     12 H          -8.0367  -19.1313   23.3526 H       1  UNL1        0.1497
     13 C          -7.3081  -16.5029   23.8814 C.ar    1  UNL1        0.0534
     14 C          -8.4933  -16.0906   24.7032 C.ar    1  UNL1        0.0045
     15 C          -8.2897  -15.4097   26.0242 C.ar    1  UNL1        0.0001
     16 C          -6.9009  -15.1411   26.5234 C.ar    1  UNL1        0.0000
     17 C          -5.7157  -15.5534   25.7016 C.ar    1  UNL1        0.0001
     18 C          -5.9193  -16.2343   24.3806 C.ar    1  UNL1        0.0044
     19 C          -4.7341  -16.6466   23.5588 C.ar    1  UNL1        0.0001
     20 C          -4.4227  -18.1017   23.3690 C.ar    1  UNL1        0.0000
     21 C          -3.2375  -18.5140   22.5472 C.ar    1  UNL1        0.0000
     22 C          -2.3638  -17.4713   21.9152 C.ar    1  UNL1        0.0000
     23 C          -2.6752  -16.0163   22.1050 C.ar    1  UNL1        0.0000
     24 C          -3.8604  -15.6040   22.9268 C.ar    1  UNL1        0.0000
     25 C          -8.0237  -19.2961   21.3228 C.3     1  UNL1        0.0991
     26 C          -9.1367  -19.2611   22.3279 C.ar    1  UNL1       -0.0061
     27 C          -8.9971  -19.9972   23.6273 C.ar    1  UNL1       -0.0029
     28 C         -10.1101  -19.9622   24.6323 C.ar    1  UNL1       -0.0002
     29 C         -11.3625  -19.1910   24.3380 C.ar    1  UNL1        0.0022
     30 C         -12.4754  -19.1560   25.3431 C.ar    1  UNL1        0.0296
     31 C         -13.7279  -18.3848   25.0487 C.ar    1  UNL1        0.1401
     32 F         -14.8408  -18.3498   26.0537 F       1  UNL1       -0.2042
     33 C         -13.8674  -17.6486   23.7492 C.ar    1  UNL1        0.0296
     34 C         -12.7545  -17.6837   22.7441 C.ar    1  UNL1        0.0023
     35 C         -11.5020  -18.4549   23.0385 C.ar    1  UNL1       -0.0001
     36 C         -10.3891  -18.4899   22.0335 C.ar    1  UNL1       -0.0029
@<TRIPOS>BOND
     1     9    10    2
     2    10    11   am
     3    11     1    1
     4     1     2    1
     5     2     3    1
     6     3     4    1
     7     4     5    1
     8     5     6    1
     9     6     7    1
    10     6     8    1
    11     8    25    1
    12    25    26    1
    13    26    27   ar
    14    27    28   ar
    15    28    29   ar
    16    29    30   ar
    17    30    31   ar
    18    31    32    1
    19    31    33   ar
    20    33    34   ar
    21    34    35   ar
    22    35    36   ar
    23    10    13    1
    24    13    14   ar
    25    14    15   ar
    26    15    16   ar
    27    16    17   ar
    28    17    18   ar
    29    18    19    1
    30    19    20   ar
    31    20    21   ar
    32    21    22   ar
    33    22    23   ar
    34    23    24   ar
    35     7     1    1
    36    36    26   ar
    37    18    13   ar
    38    24    19   ar
    39     8     3    1
    40    35    29   ar
    41    11    12    1
@<TRIPOS>MOLECULE
*****
 36 41 0 0 0
SMALL
GASTEIGER

@<TRIPOS>ATOM
      1 C          -7.3400  -16.4851   23.4935 C.3     1  UNL1        0.0745
      2 C          -5.8675  -16.1998   23.5049 C.3     1  UNL1        0.0356
      3 C          -5.2333  -15.5783   24.7138 C.3     1  UNL1        0.0594
      4 C          -5.0424  -14.9781   26.0752 C.3     1  UNL1        0.0174
      5 C          -6.3767  -14.9488   26.7600 C.3     1  UNL1        0.0174
      6 C          -7.3921  -15.5308   25.8218 C.3     1  UNL1        0.0594
      7 C          -8.1784  -16.1489   24.6910 C.3     1  UNL1        0.0356
      8 N          -6.6855  -15.9198   24.5572 N.3     1  UNL1       -0.2715
      9 O          -6.7230  -19.3309   22.7718 O.2     1  UNL1       -0.2701
     10 C          -7.6657  -18.5295   21.9236 C.2     1  UNL1        0.2458
     11 N          -7.9742  -17.1066   22.2845 N.am    1  UNL1       -0.3024
     12 H          -8.5929  -16.5807   21.7278 H       1  UNL1        0.1497
     13 C          -8.2998  -19.1511   20.7147 C.ar    1  UNL1        0.0534
     14 C          -9.7938  -19.1853   20.5854 C.ar    1  UNL1        0.0045
     15 C         -10.4279  -19.8068   19.3765 C.ar    1  UNL1        0.0001
     16 C          -9.5680  -20.3942   18.2968 C.ar    1  UNL1        0.0000
     17 C          -8.0740  -20.3600   18.4261 C.ar    1  UNL1        0.0001
     18 C          -7.4399  -19.7384   19.6351 C.ar    1  UNL1        0.0044
     19 C          -5.9459  -19.7041   19.7644 C.ar    1  UNL1        0.0001
     20 C          -5.2071  -20.9163   20.2493 C.ar    1  UNL1        0.0000
     21 C          -3.7131  -20.8820   20.3787 C.ar    1  UNL1        0.0000
     22 C          -2.9578  -19.6357   20.0231 C.ar    1  UNL1        0.0000
     23 C          -3.6966  -18.4237   19.5382 C.ar    1  UNL1        0.0000
     24 C          -5.1907  -18.4579   19.4089 C.ar    1  UNL1        0.0000
     25 C          -7.3197  -16.5413   23.3483 C.3     1  UNL1        0.0991
     26 C          -8.8095  -16.7031   23.2824 C.ar    1  UNL1       -0.0061
     27 C          -9.6119  -15.8760   22.3221 C.ar    1  UNL1       -0.0029
     28 C         -11.1017  -16.0378   22.2562 C.ar    1  UNL1       -0.0002
     29 C         -11.7890  -17.0265   23.1506 C.ar    1  UNL1        0.0022
     30 C         -13.2789  -17.1882   23.0847 C.ar    1  UNL1        0.0296
     31 C         -13.9663  -18.1770   23.9791 C.ar    1  UNL1        0.1401
     32 F         -15.4560  -18.3387   23.9132 F       1  UNL1       -0.2042
     33 C         -13.1638  -19.0040   24.9394 C.ar    1  UNL1        0.0296
     34 C         -11.6740  -18.8423   25.0052 C.ar    1  UNL1        0.0023
     35 C         -10.9866  -17.8535   24.1109 C.ar    1  UNL1       -0.0001
     36 C          -9.4969  -17.6918   24.1768 C.ar    1  UNL1       -0.0029
@<TRIPOS>BOND
     1     9    10    2
     2    10    11   am
     3    11     1    1
     4     1     2    1
     5     2     3    1
     6     3     4    1
     7     4     5    1
     8     5     6    1
     9     6     7    1
    10     6     8    1
    11     8    25    1
    12    25    26    1
    13    26    27   ar
    14    27    28   ar
    15    28    29   ar
    16    29    30   ar
    17    30    31   ar
    18    31    32    1
    19    31    33   ar
    20    33    34   ar
    21    34    35   ar
    22    35    36   ar
    23    10    13    1
    24    13    14   ar
    25    14    15   ar
    26    15    16   ar
    27    16    17   ar
    28    17    18   ar
    29    18    19    1
    30    19    20   ar
    31    20    21   ar
    32    21    22   ar
    33    22    23   ar
    34    23    24   ar
    35     7     1    1
    36    36    26   ar
    37    18    13   ar
    38    24    19   ar
    39     8     3    1
    40    35    29   ar
    41    11    12    1
@<TRIPOS>MOLECULE
*****
 36 41 0 0 0
SMALL
GASTEIGER

@<TRIPOS>ATOM
      1 C         -12.9257   -5.2779   18.4032 C.3     1  UNL1        0.0745
      2 C         -11.8876   -4.5344   17.6161 C.3     1  UNL1        0.0356
      3 C         -10.4791   -5.0472   17.5601 C.3     1  UNL1        0.0594
      4 C          -9.2587   -5.8917   17.7776 C.3     1  UNL1        0.0174
      5 C          -9.6443   -7.0464   18.6541 C.3     1  UNL1        0.0174
      6 C         -11.1029   -6.9154   18.9783 C.3     1  UNL1        0.0594
      7 C         -12.5554   -6.5342   19.1342 C.3     1  UNL1        0.0356
      8 N         -11.6189   -5.6799   18.3021 N.3     1  UNL1       -0.2715
      9 O         -13.6412   -3.0626   20.2954 O.2     1  UNL1       -0.2701
     10 C         -14.6920   -3.6574   19.4053 C.2     1  UNL1        0.2458
     11 N         -14.3342   -4.7650   18.4592 N.am    1  UNL1       -0.3024
     12 H         -15.0239   -5.1554   17.8750 H       1  UNL1        0.1497
     13 C         -16.1004   -3.1445   19.4614 C.ar    1  UNL1        0.0534
     14 C         -17.1683   -3.9568   20.1320 C.ar    1  UNL1        0.0045
     15 C         -18.5767   -3.4439   20.1881 C.ar    1  UNL1        0.0001
     16 C         -18.9174   -2.1186   19.5734 C.ar    1  UNL1        0.0000
     17 C         -17.8495   -1.3063   18.9028 C.ar    1  UNL1        0.0001
     18 C         -16.4410   -1.8193   18.8467 C.ar    1  UNL1        0.0044
     19 C         -15.3731   -1.0070   18.1761 C.ar    1  UNL1        0.0001
     20 C         -14.9265   -1.3559   16.7872 C.ar    1  UNL1        0.0000
     21 C         -13.8586   -0.5436   16.1165 C.ar    1  UNL1        0.0000
     22 C         -13.2374    0.6177   16.8347 C.ar    1  UNL1        0.0000
     23 C         -13.6840    0.9665   18.2235 C.ar    1  UNL1        0.0000
     24 C         -14.7519    0.1542   18.8942 C.ar    1  UNL1        0.0000
     25 C         -13.0274   -5.1671   18.3581 C.3     1  UNL1        0.0991
     26 C         -14.1728   -6.0857   18.0513 C.ar    1  UNL1       -0.0061
     27 C         -14.5973   -6.3063   16.6297 C.ar    1  UNL1       -0.0029
     28 C         -15.7427   -7.2250   16.3230 C.ar    1  UNL1       -0.0002
     29 C         -16.4636   -7.9230   17.4379 C.ar    1  UNL1        0.0022
     30 C         -17.6091   -8.8417   17.1311 C.ar    1  UNL1        0.0296
     31 C         -18.3300   -9.5397   18.2460 C.ar    1  UNL1        0.1401
     32 F         -19.4754  -10.4584   17.9393 F       1  UNL1       -0.2042
     33 C         -17.9055   -9.3191   19.6677 C.ar    1  UNL1        0.0296
     34 C         -16.7601   -8.4005   19.9744 C.ar    1  UNL1        0.0023
     35 C         -16.0392   -7.7024   18.8595 C.ar    1  UNL1       -0.0001
     36 C         -14.8938   -6.7838   19.1663 C.ar    1  UNL1       -0.0029
@<TRIPOS>BOND
     1     9    10    2
     2    10    11   am
     3    11     1    1
     4     1     2    1
     5     2     3    1
     6     3     4    1
     7     4     5    1
     8     5     6    1
     9     6     7    1
    10     6     8    1
    11     8    25    1
    12    25    26    1
    13    26    27   ar
    14    27    28   ar
    15    28    29   ar
    16    29    30   ar
    17    30    31   ar
    18    31    32    1
    19    31    33   ar
    20    33    34   ar
    21    34    35   ar
    22    35    36   ar
    23    10    13    1
    24    13    14   ar
    25    14    15   ar
    26    15    16   ar
    27    16    17   ar
    28    17    18   ar
    29    18    19    1
    30    19    20   ar
    31    20    21   ar
    32    21    22   ar
    33    22    23   ar
    34    23    24   ar
    35     7     1    1
    36    36    26   ar
    37    18    13   ar
    38    24    19   ar
    39     8     3    1
    40    35    29   ar
    41    11    12    1
@<TRIPOS>MOLECULE
*****
 36 41 0 0 0
SMALL
GASTEIGER

@<TRIPOS>ATOM
      1 C         -10.1720  -18.1977   22.6907 C.3     1  UNL1        0.0745
      2 C         -11.2651  -17.6316   21.8336 C.3     1  UNL1        0.0356
      3 C         -12.6882  -17.6781   22.3053 C.3     1  UNL1        0.0594
      4 C         -13.9056  -17.9327   23.1438 C.3     1  UNL1        0.0174
      5 C         -13.4650  -18.6132   24.4059 C.3     1  UNL1        0.0174
      6 C         -11.9754  -18.7792   24.3473 C.3     1  UNL1        0.0594
      7 C         -10.5020  -18.8103   24.0195 C.3     1  UNL1        0.0356
      8 N         -11.4953  -18.2013   23.0490 N.3     1  UNL1       -0.2715
      9 O          -8.4383  -20.6361   22.9110 O.2     1  UNL1       -0.2701
     10 C          -7.8820  -19.3703   22.3291 C.2     1  UNL1        0.2458
     11 N          -8.7488  -18.1511   22.2190 N.am    1  UNL1       -0.3024
     12 H          -8.3837  -17.3204   21.8372 H       1  UNL1        0.1497
     13 C          -6.4588  -19.3238   21.8575 C.ar    1  UNL1        0.0534
     14 C          -5.3875  -18.7843   22.7580 C.ar    1  UNL1        0.0045
     15 C          -3.9643  -18.7378   22.2863 C.ar    1  UNL1        0.0001
     16 C          -3.6125  -19.2309   20.9140 C.ar    1  UNL1        0.0000
     17 C          -4.6839  -19.7704   20.0135 C.ar    1  UNL1        0.0001
     18 C          -6.1071  -19.8169   20.4852 C.ar    1  UNL1        0.0044
     19 C          -7.1785  -20.3565   19.5846 C.ar    1  UNL1        0.0001
     20 C          -7.0612  -21.7443   19.0274 C.ar    1  UNL1        0.0000
     21 C          -8.1326  -22.2838   18.1268 C.ar    1  UNL1        0.0000
     22 C          -9.3212  -21.4356   17.7835 C.ar    1  UNL1        0.0000
     23 C          -9.4384  -20.0480   18.3408 C.ar    1  UNL1        0.0000
     24 C          -8.3671  -19.5084   19.2413 C.ar    1  UNL1        0.0000
     25 C         -10.0722  -18.1548   22.5774 C.3     1  UNL1        0.0991
     26 C          -9.0926  -17.2313   23.2389 C.ar    1  UNL1       -0.0061
     27 C          -8.2043  -16.3573   22.4040 C.ar    1  UNL1       -0.0029
     28 C          -7.2248  -15.4338   23.0656 C.ar    1  UNL1       -0.0002
     29 C          -7.1335  -15.3843   24.5620 C.ar    1  UNL1        0.0022
     30 C          -6.1540  -14.4607   25.2235 C.ar    1  UNL1        0.0296
     31 C          -6.0627  -14.4113   26.7199 C.ar    1  UNL1        0.1401
     32 F          -5.0832  -13.4878   27.3814 F       1  UNL1       -0.2042
     33 C          -6.9510  -15.2853   27.5548 C.ar    1  UNL1        0.0296
     34 C          -7.9305  -16.2088   26.8933 C.ar    1  UNL1        0.0023
     35 C          -8.0218  -16.2583   25.3969 C.ar    1  UNL1       -0.0001
     36 C          -9.0013  -17.1818   24.7353 C.ar    1  UNL1       -0.0029
@<TRIPOS>BOND
     1     9    10    2
     2    10    11   am
     3    11     1    1
     4     1     2    1
     5     2     3    1
     6     3     4    1
     7     4     5    1
     8     5     6    1
     9     6     7    1
    10     6     8    1
    11     8    25    1
    12    25    26    1
    13    26    27   ar
    14    27    28   ar
    15    28    29   ar
    16    29    30   ar
    17    30    31   ar
    18    31    32    1
    19    31    33   ar
    20    33    34   ar
    21    34    35   ar
    22    35    36   ar
    23    10    13    1
    24    13    14   ar
    25    14    15   ar
    26    15    16   ar
    27    16    17   ar
    28    17    18   ar
    29    18    19    1
    30    19    20   ar
    31    20    21   ar
    32    21    22   ar
    33    22    23   ar
    34    23    24   ar
    35     7     1    1
    36    36    26   ar
    37    18    13   ar
    38    24    19   ar
    39     8     3    1
    40    35    29   ar
    41    11    12    1
@<TRIPOS>MOLECULE
*****
 36 41 0 0 0
SMALL
GASTEIGER

@<TRIPOS>ATOM
      1 C           2.7676    1.3788   22.9643 C.3     1  UNL1        0.0745
      2 C           3.3348    1.1795   24.3385 C.3     1  UNL1        0.0356
      3 C           2.4201    1.1169   25.5256 C.3     1  UNL1        0.0594
      4 C           1.1845    1.1172   26.3761 C.3     1  UNL1        0.0174
      5 C           0.0014    1.3112   25.4746 C.3     1  UNL1        0.0174
      6 C           0.5058    1.4308   24.0670 C.3     1  UNL1        0.0594
      7 C           1.2857    1.5155   22.7771 C.3     1  UNL1        0.0356
      8 N           2.0006    1.3106   24.0985 N.3     1  UNL1       -0.2715
      9 O           3.7085    4.0347   21.9342 O.2     1  UNL1       -0.2701
     10 C           4.1529    2.7694   21.2621 C.2     1  UNL1        0.2458
     11 N           3.6825    1.4415   21.7771 N.am    1  UNL1       -0.3024
     12 H           3.9741    0.6110   21.3361 H       1  UNL1        0.1497
     13 C           5.0677    2.8321   20.0750 C.ar    1  UNL1        0.0534
     14 C           6.5520    2.7304   20.2658 C.ar    1  UNL1        0.0045
     15 C           7.4668    2.7931   19.0787 C.ar    1  UNL1        0.0001
     16 C           6.8972    2.9575   17.7007 C.ar    1  UNL1        0.0000
     17 C           5.4129    3.0592   17.5100 C.ar    1  UNL1        0.0001
     18 C           4.4981    2.9965   18.6971 C.ar    1  UNL1        0.0044
     19 C           3.0138    3.0982   18.5064 C.ar    1  UNL1        0.0001
     20 C           2.1786    1.8537   18.4442 C.ar    1  UNL1        0.0000
     21 C           0.6942    1.9554   18.2534 C.ar    1  UNL1        0.0000
     22 C           0.0451    3.3016   18.1248 C.ar    1  UNL1        0.0000
     23 C           0.8803    4.5460   18.1870 C.ar    1  UNL1        0.0000
     24 C           2.3646    4.4443   18.3777 C.ar    1  UNL1        0.0000
     25 C           2.9154    1.3733   22.9114 C.3     1  UNL1        0.0991
     26 C           3.0401    0.1904   21.9974 C.ar    1  UNL1       -0.0061
     27 C           1.9222   -0.1526   21.0579 C.ar    1  UNL1       -0.0029
     28 C           2.0470   -1.3354   20.1440 C.ar    1  UNL1       -0.0002
     29 C           3.2896   -2.1752   20.1695 C.ar    1  UNL1        0.0022
     30 C           3.4143   -3.3581   19.2555 C.ar    1  UNL1        0.0296
     31 C           4.6569   -4.1979   19.2810 C.ar    1  UNL1        0.1401
     32 F           4.7817   -5.3807   18.3671 F       1  UNL1       -0.2042
     33 C           5.7748   -3.8548   20.2206 C.ar    1  UNL1        0.0296
     34 C           5.6501   -2.6720   21.1345 C.ar    1  UNL1        0.0023
     35 C           4.4074   -1.8322   21.1090 C.ar    1  UNL1       -0.0001
     36 C           4.2827   -0.6494   22.0229 C.ar    1  UNL1       -0.0029
@<TRIPOS>BOND
     1     9    10    2
     2    10    11   am
     3    11     1    1
     4     1     2    1
     5     2     3    1
     6     3     4    1
     7     4     5    1
     8     5     6    1
     9     6     7    1
    10     6     8    1
    11     8    25    1
    12    25    26    1
    13    26    27   ar
    14    27    28   ar
    15    28    29   ar
    16    29    30   ar
    17    30    31   ar
    18    31    32    1
    19    31    33   ar
    20    33    34   ar
    21    34    35   ar
    22    35    36   ar
    23    10    13    1
    24    13    14   ar
    25    14    15   ar
    26    15    16   ar
    27    16    17   ar
    28    17    18   ar
    29    18    19    1
    30    19    20   ar
    31    20    21   ar
    32    21    22   ar
    33    22    23   ar
    34    23    24   ar
    35     7     1    1
    36    36    26   ar
    37    18    13   ar
    38    24    19   ar
    39     8     3    1
    40    35    29   ar
    41    11    12    1
@<TRIPOS>MOLECULE
*****
 36 41 0 0 0
SMALL
GASTEIGER

@<TRIPOS>ATOM
      1 C           4.6764   -1.9434   19.1073 C.3     1  UNL1        0.0745
      2 C           5.7921   -2.9294   18.9257 C.3     1  UNL1        0.0356
      3 C           5.5130   -4.4010   19.0056 C.3     1  UNL1        0.0594
      4 C           4.7996   -5.7113   19.1606 C.3     1  UNL1        0.0174
      5 C           3.3500   -5.4224   19.4166 C.3     1  UNL1        0.0174
      6 C           3.1676   -3.9336   19.4197 C.3     1  UNL1        0.0594
      7 C           3.2816   -2.4290   19.3689 C.3     1  UNL1        0.0356
      8 N           4.5044   -3.3023   19.1656 N.3     1  UNL1       -0.2715
      9 O           4.4265   -0.5096   16.4841 O.2     1  UNL1       -0.2701
     10 C           4.8307    0.2452   17.7158 C.2     1  UNL1        0.2458
     11 N           4.9556   -0.4718   19.0274 N.am    1  UNL1       -0.3024
     12 H           5.2209    0.0236   19.8358 H       1  UNL1        0.1497
     13 C           5.1099    1.7167   17.6358 C.ar    1  UNL1        0.0534
     14 C           6.3067    2.2131   16.8801 C.ar    1  UNL1        0.0045
     15 C           6.5859    3.6847   16.8001 C.ar    1  UNL1        0.0001
     16 C           5.6682    4.6600   17.4759 C.ar    1  UNL1        0.0000
     17 C           4.4714    4.1637   18.2317 C.ar    1  UNL1        0.0001
     18 C           4.1922    2.6920   18.3116 C.ar    1  UNL1        0.0044
     19 C           2.9953    2.1956   19.0673 C.ar    1  UNL1        0.0001
     20 C           2.7722    2.6277   20.4864 C.ar    1  UNL1        0.0000
     21 C           1.5753    2.1314   21.2421 C.ar    1  UNL1        0.0000
     22 C           0.6016    1.2029   20.5788 C.ar    1  UNL1        0.0000
     23 C           0.8247    0.7709   19.1599 C.ar    1  UNL1        0.0000
     24 C           2.0216    1.2672   18.4041 C.ar    1  UNL1        0.0000
     25 C           4.7836   -1.8307   19.0857 C.3     1  UNL1        0.0991
     26 C           4.8325   -1.0074   20.3387 C.ar    1  UNL1       -0.0061
     27 C           6.0064   -0.1118   20.6023 C.ar    1  UNL1       -0.0029
     28 C           6.0553    0.7114   21.8553 C.ar    1  UNL1       -0.0002
     29 C           4.9302    0.6389   22.8446 C.ar    1  UNL1        0.0022
     30 C           4.9791    1.4622   24.0976 C.ar    1  UNL1        0.0296
     31 C           3.8540    1.3897   25.0870 C.ar    1  UNL1        0.1401
     32 F           3.9028    2.2129   26.3399 F       1  UNL1       -0.2042
     33 C           2.6799    0.4940   24.8234 C.ar    1  UNL1        0.0296
     34 C           2.6311   -0.3292   23.5704 C.ar    1  UNL1        0.0023
     35 C           3.7562   -0.2567   22.5811 C.ar    1  UNL1       -0.0001
     36 C           3.7073   -1.0799   21.3281 C.ar    1  UNL1       -0.0029
@<TRIPOS>BOND
     1     9    10    2
     2    10    11   am
     3    11     1    1
     4     1     2    1
     5     2     3    1
     6     3     4    1
     7     4     5    1
     8     5     6    1
     9     6     7    1
    10     6     8    1
    11     8    25    1
    12    25    26    1
    13    26    27   ar
    14    27    28   ar
    15    28    29   ar
    16    29    30   ar
    17    30    31   ar
    18    31    32    1
    19    31    33   ar
    20    33    34   ar
    21    34    35   ar
    22    35    36   ar
    23    10    13    1
    24    13    14   ar
    25    14    15   ar
    26    15    16   ar
    27    16    17   ar
    28    17    18   ar
    29    18    19    1
    30    19    20   ar
    31    20    21   ar
    32    21    22   ar
    33    22    23   ar
    34    23    24   ar
    35     7     1    1
    36    36    26   ar
    37    18    13   ar
    38    24    19   ar
    39     8     3    1
    40    35    29   ar
    41    11    12    1
@<TRIPOS>MOLECULE
*****
 36 41 0 0 0
SMALL
GASTEIGER

@<TRIPOS>ATOM
      1 C           2.8504    2.8317   37.0845 C.3     1  UNL1        0.0745
      2 C           3.1652    1.4112   37.4495 C.3     1  UNL1        0.0356
      3 C           2.3476    0.7055   38.4904 C.3     1  UNL1        0.0594
      4 C           1.3119    0.4152   39.5358 C.3     1  UNL1        0.0174
      5 C           0.4763    1.6480   39.7153 C.3     1  UNL1        0.0174
      6 C           0.9957    2.7001   38.7808 C.3     1  UNL1        0.0594
      7 C           1.7180    3.5464   37.7604 C.3     1  UNL1        0.0356
      8 N           2.1522    2.1176   38.0238 N.3     1  UNL1       -0.2715
      9 O           5.5588    3.9151   37.7850 O.2     1  UNL1       -0.2701
     10 C           5.0223    4.0791   36.3938 C.2     1  UNL1        0.2458
     11 N           3.6680    3.5374   36.0436 N.am    1  UNL1       -0.3024
     12 H           3.3159    3.6450   35.1305 H       1  UNL1        0.1497
     13 C           5.8399    4.7848   35.3530 C.ar    1  UNL1        0.0534
     14 C           5.9527    6.2804   35.3748 C.ar    1  UNL1        0.0045
     15 C           6.7704    6.9861   34.3339 C.ar    1  UNL1        0.0001
     16 C           7.4752    6.1962   33.2712 C.ar    1  UNL1        0.0000
     17 C           7.3624    4.7006   33.2494 C.ar    1  UNL1        0.0001
     18 C           6.5447    3.9949   34.2903 C.ar    1  UNL1        0.0044
     19 C           6.4318    2.4993   34.2685 C.ar    1  UNL1        0.0001
     20 C           7.0377    1.6853   35.3733 C.ar    1  UNL1        0.0000
     21 C           6.9248    0.1897   35.3514 C.ar    1  UNL1        0.0000
     22 C           6.2061   -0.4918   34.2249 C.ar    1  UNL1        0.0000
     23 C           5.6004    0.3222   33.1202 C.ar    1  UNL1        0.0000
     24 C           5.7132    1.8178   33.1420 C.ar    1  UNL1        0.0000
     25 C           2.9698    2.8234   36.9829 C.3     1  UNL1        0.0991
     26 C           2.3869    3.0936   35.6274 C.ar    1  UNL1       -0.0061
     27 C           1.6477    4.3732   35.3704 C.ar    1  UNL1       -0.0029
     28 C           1.0648    4.6433   34.0149 C.ar    1  UNL1       -0.0002
     29 C           1.2212    3.6338   32.9165 C.ar    1  UNL1        0.0022
     30 C           0.6383    3.9040   31.5610 C.ar    1  UNL1        0.0296
     31 C           0.7947    2.8946   30.4626 C.ar    1  UNL1        0.1401
     32 F           0.2119    3.1647   29.1071 F       1  UNL1       -0.2042
     33 C           1.5340    1.6149   30.7197 C.ar    1  UNL1        0.0296
     34 C           2.1168    1.3448   32.0751 C.ar    1  UNL1        0.0023
     35 C           1.9605    2.3542   33.1735 C.ar    1  UNL1       -0.0001
     36 C           2.5433    2.0841   34.5290 C.ar    1  UNL1       -0.0029
@<TRIPOS>BOND
     1     9    10    2
     2    10    11   am
     3    11     1    1
     4     1     2    1
     5     2     3    1
     6     3     4    1
     7     4     5    1
     8     5     6    1
     9     6     7    1
    10     6     8    1
    11     8    25    1
    12    25    26    1
    13    26    27   ar
    14    27    28   ar
    15    28    29   ar
    16    29    30   ar
    17    30    31   ar
    18    31    32    1
    19    31    33   ar
    20    33    34   ar
    21    34    35   ar
    22    35    36   ar
    23    10    13    1
    24    13    14   ar
    25    14    15   ar
    26    15    16   ar
    27    16    17   ar
    28    17    18   ar
    29    18    19    1
    30    19    20   ar
    31    20    21   ar
    32    21    22   ar
    33    22    23   ar
    34    23    24   ar
    35     7     1    1
    36    36    26   ar
    37    18    13   ar
    38    24    19   ar
    39     8     3    1
    40    35    29   ar
    41    11    12    1
@<TRIPOS>MOLECULE
*****
 36 41 0 0 0
SMALL
GASTEIGER

@<TRIPOS>ATOM
      1 C           0.8765    1.6219   22.8564 C.3     1  UNL1        0.0745
      2 C           0.8558    1.0950   24.2607 C.3     1  UNL1        0.0356
      3 C          -0.1046    1.6655   25.2617 C.3     1  UNL1        0.0594
      4 C          -1.1820    2.4978   25.8913 C.3     1  UNL1        0.0174
      5 C          -1.7126    3.4357   24.8478 C.3     1  UNL1        0.0174
      6 C          -0.9631    3.1829   23.5733 C.3     1  UNL1        0.0594
      7 C          -0.0632    2.7193   22.4532 C.3     1  UNL1        0.0356
      8 N           0.0306    2.0889   23.8291 N.3     1  UNL1       -0.2715
      9 O          -0.1052   -0.2697   20.7451 O.2     1  UNL1       -0.2701
     10 C           1.3461    0.1056   20.7997 C.2     1  UNL1        0.2458
     11 N           1.8370    1.0514   21.8554 N.am    1  UNL1       -0.3024
     12 H           2.7895    1.2977   21.8912 H       1  UNL1        0.1497
     13 C           2.3065   -0.4649   19.7986 C.ar    1  UNL1        0.0534
     14 C           2.8389   -1.8557   19.9783 C.ar    1  UNL1        0.0045
     15 C           3.7993   -2.4262   18.9772 C.ar    1  UNL1        0.0001
     16 C           4.2273   -1.6060   17.7965 C.ar    1  UNL1        0.0000
     17 C           3.6948   -0.2152   17.6168 C.ar    1  UNL1        0.0001
     18 C           2.7344    0.3553   18.6180 C.ar    1  UNL1        0.0044
     19 C           2.2020    1.7461   18.4383 C.ar    1  UNL1        0.0001
     20 C           3.1478    2.9084   18.3707 C.ar    1  UNL1        0.0000
     21 C           2.6154    4.2991   18.1911 C.ar    1  UNL1        0.0000
     22 C           1.1371    4.5276   18.0791 C.ar    1  UNL1        0.0000
     23 C           0.1913    3.3653   18.1467 C.ar    1  UNL1        0.0000
     24 C           0.7237    1.9746   18.3263 C.ar    1  UNL1        0.0000
     25 C           0.9910    1.5184   22.8280 C.3     1  UNL1        0.0991
     26 C           2.2722    2.2369   22.5239 C.ar    1  UNL1       -0.0061
     27 C           3.5868    1.5417   22.7201 C.ar    1  UNL1       -0.0029
     28 C           4.8679    2.2602   22.4159 C.ar    1  UNL1       -0.0002
     29 C           4.8344    3.6739   21.9156 C.ar    1  UNL1        0.0022
     30 C           6.1155    4.3924   21.6114 C.ar    1  UNL1        0.0296
     31 C           6.0820    5.8061   21.1110 C.ar    1  UNL1        0.1401
     32 F           7.3631    6.5246   20.8069 F       1  UNL1       -0.2042
     33 C           4.7673    6.5013   20.9148 C.ar    1  UNL1        0.0296
     34 C           3.4863    5.7828   21.2189 C.ar    1  UNL1        0.0023
     35 C           3.5198    4.3691   21.7193 C.ar    1  UNL1       -0.0001
     36 C           2.2387    3.6506   22.0235 C.ar    1  UNL1       -0.0029
@<TRIPOS>BOND
     1     9    10    2
     2    10    11   am
     3    11     1    1
     4     1     2    1
     5     2     3    1
     6     3     4    1
     7     4     5    1
     8     5     6    1
     9     6     7    1
    10     6     8    1
    11     8    25    1
    12    25    26    1
    13    26    27   ar
    14    27    28   ar
    15    28    29   ar
    16    29    30   ar
    17    30    31   ar
    18    31    32    1
    19    31    33   ar
    20    33    34   ar
    21    34    35   ar
    22    35    36   ar
    23    10    13    1
    24    13    14   ar
    25    14    15   ar
    26    15    16   ar
    27    16    17   ar
    28    17    18   ar
    29    18    19    1
    30    19    20   ar
    31    20    21   ar
    32    21    22   ar
    33    22    23   ar
    34    23    24   ar
    35     7     1    1
    36    36    26   ar
    37    18    13   ar
    38    24    19   ar
    39     8     3    1
    40    35    29   ar
    41    11    12    1
