@<TRIPOS>MOLECULE
*****
 40 44 0 0 0
SMALL
GASTEIGER

@<TRIPOS>ATOM
      1 N           3.1892    0.3940   22.2903 N.am    1  UNL1       -0.2533
      2 C           1.8326    0.9408   22.6230 C.2     1  UNL1        0.3092
      3 O           0.6472    0.5692   21.7823 O.2     1  UNL1       -0.2521
      4 N           1.6614    1.8594   23.7964 N.am    1  UNL1       -0.2680
      5 H           3.9672    0.6379   22.8422 H       1  UNL1        0.1578
      6 H           2.4394    2.1033   24.3482 H       1  UNL1        0.1564
      7 C           0.3049    2.4063   24.1292 C.ar    1  UNL1        0.0517
      8 C          -0.3798    3.3433   23.1788 C.ar    1  UNL1        0.0162
      9 C          -1.7363    3.8902   23.5115 C.ar    1  UNL1        0.0189
     10 C          -2.4082    3.5001   24.7947 C.ar    1  UNL1        0.0669
     11 C          -1.7235    2.5631   25.7450 C.ar    1  UNL1        0.0189
     12 C          -0.3670    2.0162   25.4123 C.ar    1  UNL1        0.0162
     13 N          -3.7648    4.0470   25.1274 N.ar    1  UNL1       -0.2729
     14 C          -4.2093    4.5453   26.4706 C.ar    1  UNL1        0.1840
     15 N          -5.6342    4.9979   26.3486 N.ar    1  UNL1       -0.2192
     16 C          -6.0703    4.7793   24.9301 C.ar    1  UNL1        0.1484
     17 C          -7.3701    5.0395   24.2283 C.ar    1  UNL1        0.1480
     18 N          -8.5255    5.6272   24.9830 N.pl3   1  UNL1       -0.3413
     19 N          -7.5145    4.7119   22.7716 N.ar    1  UNL1       -0.2078
     20 C          -6.3591    4.1242   22.0169 C.ar    1  UNL1        0.2015
     21 N          -5.0593    3.8641   22.7188 N.ar    1  UNL1       -0.2045
     22 C          -4.9149    4.1916   24.1754 C.ar    1  UNL1        0.1711
     23 H          -8.4307    5.8422   25.9391 H       1  UNL1        0.1438
     24 H          -9.3787    5.7979   24.5223 H       1  UNL1        0.1438
     25 N           3.0579   -0.1925   19.6858 N.ar    1  UNL1       -0.2162
     26 N           3.3747   -1.3991   18.8529 N.ar    1  UNL1       -0.1683
     27 C           3.8729   -2.4770   19.7694 C.ar    1  UNL1        0.0810
     28 C           3.8641   -1.9365   21.1686 C.ar    1  UNL1        0.0509
     29 C           3.3604   -0.5246   21.1169 C.ar    1  UNL1        0.1380
     30 C           0.9509    5.0435   17.6499 C.3     1  UNL1        0.0310
     31 C           1.4777    3.7346   18.1589 C.ar    1  UNL1       -0.0218
     32 C           0.6056    2.5144   18.1336 C.ar    1  UNL1       -0.0027
     33 C           1.1323    1.2053   18.6425 C.ar    1  UNL1        0.0189
     34 C           2.5312    1.1165   19.1768 C.ar    1  UNL1        0.0842
     35 C           3.4033    2.3368   19.2021 C.ar    1  UNL1        0.0189
     36 C           2.8765    3.6458   18.6931 C.ar    1  UNL1       -0.0027
     37 C           4.3043   -3.8538   19.3587 C.3     1  UNL1        0.0372
     38 C           5.7177   -3.5237   19.7370 C.3     1  UNL1        0.0060
     39 C           2.8908   -4.1838   18.9804 C.3     1  UNL1        0.0060
     40 C           4.7357   -5.2304   18.9480 C.3     1  UNL1        0.0060
@<TRIPOS>BOND
     1    30    31    1
     2    31    32   ar
     3    32    33   ar
     4    33    34   ar
     5    34    25    1
     6    25    26   ar
     7    26    27   ar
     8    27    37    1
     9    37    38    1
    10    37    39    1
    11    37    40    1
    12    27    28   ar
    13    28    29   ar
    14    29     1    1
    15     1     2   am
    16     2     3    2
    17     2     4   am
    18     4     7    1
    19     7     8   ar
    20     8     9   ar
    21     9    10   ar
    22    10    13    1
    23    13    14   ar
    24    14    15   ar
    25    15    16   ar
    26    16    17   ar
    27    17    18    1
    28    17    19   ar
    29    19    20   ar
    30    20    21   ar
    31    21    22   ar
    32    10    11   ar
    33    11    12   ar
    34    34    35   ar
    35    35    36   ar
    36    36    31   ar
    37    29    25   ar
    38    12     7   ar
    39    22    13   ar
    40    22    16   ar
    41     1     5    1
    42     4     6    1
    43    18    23    1
    44    18    24    1
@<TRIPOS>MOLECULE
*****
 40 44 0 0 0
SMALL
GASTEIGER

@<TRIPOS>ATOM
      1 N           5.7105    0.9544   20.6764 N.am    1  UNL1       -0.2533
      2 C           5.6463    0.1098   21.9144 C.2     1  UNL1        0.3092
      3 O           4.3353   -0.4645   22.3635 O.2     1  UNL1       -0.2521
      4 N           6.8930   -0.1604   22.7034 N.am    1  UNL1       -0.2680
      5 H           6.5710    1.3313   20.3817 H       1  UNL1        0.1578
      6 H           7.7535    0.2165   22.4087 H       1  UNL1        0.1564
      7 C           6.8289   -1.0049   23.9415 C.ar    1  UNL1        0.0517
      8 C           6.6844   -0.3554   25.2858 C.ar    1  UNL1        0.0162
      9 C           6.6202   -1.1999   26.5238 C.ar    1  UNL1        0.0189
     10 C           6.7005   -2.6940   26.4175 C.ar    1  UNL1        0.0669
     11 C           6.8450   -3.3435   25.0732 C.ar    1  UNL1        0.0189
     12 C           6.9092   -2.4990   23.8352 C.ar    1  UNL1        0.0162
     13 N           6.6364   -3.5385   27.6555 N.ar    1  UNL1       -0.2729
     14 C           6.4411   -5.0251   27.6996 C.ar    1  UNL1        0.1840
     15 N           6.4403   -5.4500   29.1381 N.ar    1  UNL1       -0.2192
     16 C           6.6350   -4.2261   29.9831 C.ar    1  UNL1        0.1484
     17 C           6.7176   -4.0347   31.4685 C.ar    1  UNL1        0.1480
     18 N           6.5964   -5.2160   32.3849 N.pl3   1  UNL1       -0.3413
     19 N           6.9214   -2.6619   32.0376 N.ar    1  UNL1       -0.2078
     20 C           7.0426   -1.4805   31.1213 C.ar    1  UNL1        0.2015
     21 N           6.9600   -1.6719   29.6359 N.ar    1  UNL1       -0.2045
     22 C           6.7562   -3.0447   29.0668 C.ar    1  UNL1        0.1711
     23 H           6.4627   -6.1170   32.0113 H       1  UNL1        0.1438
     24 H           6.6506   -5.0904   33.3598 H       1  UNL1        0.1438
     25 N           3.6665    0.2095   19.1234 N.ar    1  UNL1       -0.2162
     26 N           2.5053    0.9149   18.4877 N.ar    1  UNL1       -0.1683
     27 C           2.5850    2.3660   18.8588 C.ar    1  UNL1        0.0810
     28 C           3.7954    2.5575   19.7238 C.ar    1  UNL1        0.0509
     29 C           4.4638    1.2246   19.8874 C.ar    1  UNL1        0.1380
     30 C           4.9044   -5.6452   18.6870 C.3     1  UNL1        0.0310
     31 C           4.5949   -4.1816   18.7961 C.ar    1  UNL1       -0.0218
     32 C           5.5111   -3.1726   18.1696 C.ar    1  UNL1       -0.0027
     33 C           5.2016   -1.7088   18.2787 C.ar    1  UNL1        0.0189
     34 C           3.9759   -1.2542   19.0143 C.ar    1  UNL1        0.0842
     35 C           3.0598   -2.2633   19.6409 C.ar    1  UNL1        0.0189
     36 C           3.3692   -3.7269   19.5318 C.ar    1  UNL1       -0.0027
     37 C           1.6232    3.4377   18.4385 C.3     1  UNL1        0.0372
     38 C           2.7670    4.3887   18.2459 C.3     1  UNL1        0.0060
     39 C           0.4794    2.4866   18.6312 C.3     1  UNL1        0.0060
     40 C           0.6614    4.5093   18.0183 C.3     1  UNL1        0.0060
@<TRIPOS>BOND
     1    30    31    1
     2    31    32   ar
     3    32    33   ar
     4    33    34   ar
     5    34    25    1
     6    25    26   ar
     7    26    27   ar
     8    27    37    1
     9    37    38    1
    10    37    39    1
    11    37    40    1
    12    27    28   ar
    13    28    29   ar
    14    29     1    1
    15     1     2   am
    16     2     3    2
    17     2     4   am
    18     4     7    1
    19     7     8   ar
    20     8     9   ar
    21     9    10   ar
    22    10    13    1
    23    13    14   ar
    24    14    15   ar
    25    15    16   ar
    26    16    17   ar
    27    17    18    1
    28    17    19   ar
    29    19    20   ar
    30    20    21   ar
    31    21    22   ar
    32    10    11   ar
    33    11    12   ar
    34    34    35   ar
    35    35    36   ar
    36    36    31   ar
    37    29    25   ar
    38    12     7   ar
    39    22    13   ar
    40    22    16   ar
    41     1     5    1
    42     4     6    1
    43    18    23    1
    44    18    24    1
@<TRIPOS>MOLECULE
*****
 40 44 0 0 0
SMALL
GASTEIGER

@<TRIPOS>ATOM
      1 N           1.6086    0.6482   20.4755 N.am    1  UNL1       -0.2533
      2 C           1.7154    0.8456   21.9587 C.2     1  UNL1        0.3092
      3 O           2.8297    0.1952   22.7236 O.2     1  UNL1       -0.2521
      4 N           0.7077    1.6934   22.6768 N.am    1  UNL1       -0.2680
      5 H           0.8772    1.0751   19.9735 H       1  UNL1        0.1578
      6 H          -0.0238    2.1202   22.1748 H       1  UNL1        0.1564
      7 C           0.8143    1.8908   24.1600 C.ar    1  UNL1        0.0517
      8 C          -0.0496    1.0886   25.0874 C.ar    1  UNL1        0.0162
      9 C           0.0570    1.2860   26.5705 C.ar    1  UNL1        0.0189
     10 C           1.0277    2.2857   27.1263 C.ar    1  UNL1        0.0669
     11 C           1.8916    3.0878   26.1988 C.ar    1  UNL1        0.0189
     12 C           1.7849    2.8903   24.7157 C.ar    1  UNL1        0.0162
     13 N           1.1344    2.4831   28.6094 N.ar    1  UNL1       -0.2729
     14 C           0.7128    3.7061   29.3686 C.ar    1  UNL1        0.1840
     15 N           0.9992    3.4710   30.8221 N.ar    1  UNL1       -0.2192
     16 C           1.5978    2.1026   30.9612 C.ar    1  UNL1        0.1484
     17 C           2.0777    1.3338   32.1564 C.ar    1  UNL1        0.1480
     18 N           1.9941    1.9443   33.5240 N.pl3   1  UNL1       -0.3413
     19 N           2.6410   -0.0456   31.9840 N.ar    1  UNL1       -0.2078
     20 C           2.7246   -0.6562   30.6165 C.ar    1  UNL1        0.2015
     21 N           2.2448    0.1127   29.4213 N.ar    1  UNL1       -0.2045
     22 C           1.6814    1.4921   29.5936 C.ar    1  UNL1        0.1711
     23 H           1.6244    2.8497   33.6371 H       1  UNL1        0.1438
     24 H           2.3091    1.4397   34.3084 H       1  UNL1        0.1438
     25 N           3.6456    0.2900   18.7822 N.ar    1  UNL1       -0.2162
     26 N           4.4371   -0.8936   18.3104 N.ar    1  UNL1       -0.1683
     27 C           3.8970   -2.1147   18.9940 C.ar    1  UNL1        0.0810
     28 C           2.7717   -1.6857   19.8882 C.ar    1  UNL1        0.0509
     29 C           2.6163   -0.1995   19.7573 C.ar    1  UNL1        0.1380
     30 C           4.4547    5.9832   17.0696 C.3     1  UNL1        0.0310
     31 C           4.2524    4.5599   17.4977 C.ar    1  UNL1       -0.0218
     32 C           5.3927    3.5876   17.4316 C.ar    1  UNL1       -0.0027
     33 C           5.1904    2.1642   17.8598 C.ar    1  UNL1        0.0189
     34 C           3.8479    1.7132   18.3541 C.ar    1  UNL1        0.0842
     35 C           2.7076    2.6857   18.4202 C.ar    1  UNL1        0.0189
     36 C           2.9099    4.1089   17.9920 C.ar    1  UNL1       -0.0027
     37 C           4.3948   -3.5183   18.8147 C.3     1  UNL1        0.0372
     38 C           3.1074   -4.0464   19.3747 C.3     1  UNL1        0.0060
     39 C           5.6822   -2.9902   18.2547 C.3     1  UNL1        0.0060
     40 C           4.8925   -4.9219   18.6355 C.3     1  UNL1        0.0060
@<TRIPOS>BOND
     1    30    31    1
     2    31    32   ar
     3    32    33   ar
     4    33    34   ar
     5    34    25    1
     6    25    26   ar
     7    26    27   ar
     8    27    37    1
     9    37    38    1
    10    37    39    1
    11    37    40    1
    12    27    28   ar
    13    28    29   ar
    14    29     1    1
    15     1     2   am
    16     2     3    2
    17     2     4   am
    18     4     7    1
    19     7     8   ar
    20     8     9   ar
    21     9    10   ar
    22    10    13    1
    23    13    14   ar
    24    14    15   ar
    25    15    16   ar
    26    16    17   ar
    27    17    18    1
    28    17    19   ar
    29    19    20   ar
    30    20    21   ar
    31    21    22   ar
    32    10    11   ar
    33    11    12   ar
    34    34    35   ar
    35    35    36   ar
    36    36    31   ar
    37    29    25   ar
    38    12     7   ar
    39    22    13   ar
    40    22    16   ar
    41     1     5    1
    42     4     6    1
    43    18    23    1
    44    18    24    1
@<TRIPOS>MOLECULE
*****
 40 44 0 0 0
SMALL
GASTEIGER

@<TRIPOS>ATOM
      1 N           3.4133    0.2671   22.2857 N.am    1  UNL1       -0.2533
      2 C           2.0644    0.8082   22.6570 C.2     1  UNL1        0.3092
      3 O           0.8564    0.4278   21.8533 O.2     1  UNL1       -0.2521
      4 N           1.9237    1.7298   23.8321 N.am    1  UNL1       -0.2680
      5 H           4.2061    0.5167   22.8132 H       1  UNL1        0.1578
      6 H           2.7165    1.9794   24.3596 H       1  UNL1        0.1564
      7 C           0.5749    2.2710   24.2035 C.ar    1  UNL1        0.0517
      8 C          -0.0587    1.8776   25.5049 C.ar    1  UNL1        0.0162
      9 C          -1.4075    2.4188   25.8763 C.ar    1  UNL1        0.0189
     10 C          -2.1227    3.3534   24.9462 C.ar    1  UNL1        0.0669
     11 C          -1.4891    3.7467   23.6448 C.ar    1  UNL1        0.0189
     12 C          -0.1403    3.2055   23.2734 C.ar    1  UNL1        0.0162
     13 N          -3.4715    3.8946   25.3175 N.ar    1  UNL1       -0.2729
     14 C          -4.7794    3.5062   24.6943 C.ar    1  UNL1        0.1840
     15 N          -5.8654    4.2908   25.3690 N.ar    1  UNL1       -0.2192
     16 C          -5.2286    5.1640   26.4092 C.ar    1  UNL1        0.1484
     17 C          -5.8048    6.1505   27.3812 C.ar    1  UNL1        0.1480
     18 N          -7.2843    6.3954   27.4129 N.pl3   1  UNL1       -0.3413
     19 N          -4.9015    6.8921   28.3213 N.ar    1  UNL1       -0.2078
     20 C          -3.4220    6.6472   28.2896 C.ar    1  UNL1        0.2015
     21 N          -2.8457    5.6608   27.3176 N.ar    1  UNL1       -0.2045
     22 C          -3.7490    4.9192   26.3774 C.ar    1  UNL1        0.1711
     23 H          -7.8772    5.9086   26.7958 H       1  UNL1        0.1438
     24 H          -7.6625    7.0428   28.0509 H       1  UNL1        0.1438
     25 N           3.2730   -0.3069   19.6788 N.ar    1  UNL1       -0.2162
     26 N           3.5458   -1.5230   18.8443 N.ar    1  UNL1       -0.1683
     27 C           3.9955   -2.6224   19.7603 C.ar    1  UNL1        0.0810
     28 C           4.0007   -2.0856   21.1610 C.ar    1  UNL1        0.0509
     29 C           3.5541   -0.6545   21.1106 C.ar    1  UNL1        0.1380
     30 C           1.3881    5.0145   17.6465 C.3     1  UNL1        0.0310
     31 C           1.8593    3.6842   18.1546 C.ar    1  UNL1       -0.0218
     32 C           0.9088    2.5254   18.2161 C.ar    1  UNL1       -0.0027
     33 C           1.3800    1.1950   18.7242 C.ar    1  UNL1        0.0189
     34 C           2.8017    1.0235   19.1707 C.ar    1  UNL1        0.0842
     35 C           3.7522    2.1823   19.1091 C.ar    1  UNL1        0.0189
     36 C           3.2810    3.5127   18.6011 C.ar    1  UNL1       -0.0027
     37 C           4.3738   -4.0142   19.3480 C.3     1  UNL1        0.0372
     38 C           5.8006   -3.7359   19.7179 C.3     1  UNL1        0.0060
     39 C           2.9470   -4.2924   18.9782 C.3     1  UNL1        0.0060
     40 C           4.7521   -5.4059   18.9358 C.3     1  UNL1        0.0060
@<TRIPOS>BOND
     1    30    31    1
     2    31    32   ar
     3    32    33   ar
     4    33    34   ar
     5    34    25    1
     6    25    26   ar
     7    26    27   ar
     8    27    37    1
     9    37    38    1
    10    37    39    1
    11    37    40    1
    12    27    28   ar
    13    28    29   ar
    14    29     1    1
    15     1     2   am
    16     2     3    2
    17     2     4   am
    18     4     7    1
    19     7     8   ar
    20     8     9   ar
    21     9    10   ar
    22    10    13    1
    23    13    14   ar
    24    14    15   ar
    25    15    16   ar
    26    16    17   ar
    27    17    18    1
    28    17    19   ar
    29    19    20   ar
    30    20    21   ar
    31    21    22   ar
    32    10    11   ar
    33    11    12   ar
    34    34    35   ar
    35    35    36   ar
    36    36    31   ar
    37    29    25   ar
    38    12     7   ar
    39    22    13   ar
    40    22    16   ar
    41     1     5    1
    42     4     6    1
    43    18    23    1
    44    18    24    1
@<TRIPOS>MOLECULE
*****
 40 44 0 0 0
SMALL
GASTEIGER

@<TRIPOS>ATOM
      1 N           5.8251    1.1701   20.6189 N.am    1  UNL1       -0.2533
      2 C           5.7013    0.5547   21.9813 C.2     1  UNL1        0.3092
      3 O           4.3461    0.2385   22.5411 O.2     1  UNL1       -0.2521
      4 N           6.9328    0.2555   22.7838 N.am    1  UNL1       -0.2680
      5 H           6.7146    1.3776   20.2515 H       1  UNL1        0.1578
      6 H           7.8222    0.4631   22.4163 H       1  UNL1        0.1564
      7 C           6.8090   -0.3598   24.1461 C.ar    1  UNL1        0.0517
      8 C           6.9977    0.4854   25.3708 C.ar    1  UNL1        0.0162
      9 C           6.8740   -0.1300   26.7332 C.ar    1  UNL1        0.0189
     10 C           6.5616   -1.5907   26.8708 C.ar    1  UNL1        0.0669
     11 C           6.3729   -2.4358   25.6461 C.ar    1  UNL1        0.0189
     12 C           6.4967   -1.8205   24.2838 C.ar    1  UNL1        0.0162
     13 N           6.4378   -2.2061   28.2332 N.ar    1  UNL1       -0.2729
     14 C           5.8317   -1.5570   29.4421 C.ar    1  UNL1        0.1840
     15 N           5.9178   -2.5284   30.5818 N.ar    1  UNL1       -0.2192
     16 C           6.5771   -3.7777   30.0774 C.ar    1  UNL1        0.1484
     17 C           6.9263   -5.0710   30.7522 C.ar    1  UNL1        0.1480
     18 N           6.6049   -5.2702   32.2038 N.pl3   1  UNL1       -0.3413
     19 N           7.5969   -6.1650   29.9755 N.ar    1  UNL1       -0.2078
     20 C           7.9183   -5.9658   28.5240 C.ar    1  UNL1        0.2015
     21 N           7.5691   -4.6726   27.8491 N.ar    1  UNL1       -0.2045
     22 C           6.8985   -3.5785   28.6258 C.ar    1  UNL1        0.1711
     23 H           6.1648   -4.5521   32.7136 H       1  UNL1        0.1438
     24 H           6.8341   -6.1190   32.6467 H       1  UNL1        0.1438
     25 N           3.7647    0.4684   19.0674 N.ar    1  UNL1       -0.2162
     26 N           2.6337    1.2023   18.4101 N.ar    1  UNL1       -0.1683
     27 C           2.7637    2.6568   18.7528 C.ar    1  UNL1        0.0810
     28 C           3.9750    2.8218   19.6219 C.ar    1  UNL1        0.0509
     29 C           4.5937    1.4692   19.8164 C.ar    1  UNL1        0.1380
     30 C           4.7923   -5.4348   18.7557 C.3     1  UNL1        0.0310
     31 C           4.5354   -3.9590   18.8336 C.ar    1  UNL1       -0.0218
     32 C           3.3529   -3.4430   19.5986 C.ar    1  UNL1       -0.0027
     33 C           3.0959   -1.9671   19.6766 C.ar    1  UNL1        0.0189
     34 C           4.0216   -1.0074   18.9895 C.ar    1  UNL1        0.0842
     35 C           5.2042   -1.5235   18.2244 C.ar    1  UNL1        0.0189
     36 C           5.4611   -2.9992   18.1465 C.ar    1  UNL1       -0.0027
     37 C           1.8437    3.7538   18.3050 C.3     1  UNL1        0.0372
     38 C           3.0284    4.6168   17.9859 C.3     1  UNL1        0.0060
     39 C           0.6592    2.8907   18.6241 C.3     1  UNL1        0.0060
     40 C           0.9240    4.8508   17.8571 C.3     1  UNL1        0.0060
@<TRIPOS>BOND
     1    30    31    1
     2    31    32   ar
     3    32    33   ar
     4    33    34   ar
     5    34    25    1
     6    25    26   ar
     7    26    27   ar
     8    27    37    1
     9    37    38    1
    10    37    39    1
    11    37    40    1
    12    27    28   ar
    13    28    29   ar
    14    29     1    1
    15     1     2   am
    16     2     3    2
    17     2     4   am
    18     4     7    1
    19     7     8   ar
    20     8     9   ar
    21     9    10   ar
    22    10    13    1
    23    13    14   ar
    24    14    15   ar
    25    15    16   ar
    26    16    17   ar
    27    17    18    1
    28    17    19   ar
    29    19    20   ar
    30    20    21   ar
    31    21    22   ar
    32    10    11   ar
    33    11    12   ar
    34    34    35   ar
    35    35    36   ar
    36    36    31   ar
    37    29    25   ar
    38    12     7   ar
    39    22    13   ar
    40    22    16   ar
    41     1     5    1
    42     4     6    1
    43    18    23    1
    44    18    24    1
@<TRIPOS>MOLECULE
*****
 40 44 0 0 0
SMALL
GASTEIGER

@<TRIPOS>ATOM
      1 N           1.8324    0.6024   20.9054 N.am    1  UNL1       -0.2533
      2 C           1.9748    0.5503   22.3977 C.2     1  UNL1        0.3092
      3 O           3.0092   -0.3388   23.0219 O.2     1  UNL1       -0.2521
      4 N           1.0827    1.3873   23.2658 N.am    1  UNL1       -0.2680
      5 H           1.1535    1.1859   20.4957 H       1  UNL1        0.1578
      6 H           0.4038    1.9708   22.8562 H       1  UNL1        0.1564
      7 C           1.2251    1.3352   24.7582 C.ar    1  UNL1        0.0517
      8 C           0.0202    1.0939   25.6185 C.ar    1  UNL1        0.0162
      9 C           0.1626    1.0418   27.1108 C.ar    1  UNL1        0.0189
     10 C           1.5098    1.2311   27.7429 C.ar    1  UNL1        0.0669
     11 C           2.7145    1.4724   26.8825 C.ar    1  UNL1        0.0189
     12 C           2.5722    1.5244   25.3902 C.ar    1  UNL1        0.0162
     13 N           1.6521    1.1790   29.2352 N.ar    1  UNL1       -0.2729
     14 C           2.1670    0.0169   30.0318 C.ar    1  UNL1        0.1840
     15 N           2.1376    0.3996   31.4818 N.ar    1  UNL1       -0.2192
     16 C           1.6045    1.7982   31.5814 C.ar    1  UNL1        0.1484
     17 C           1.3536    2.6953   32.7571 C.ar    1  UNL1        0.1480
     18 N           1.6537    2.2136   34.1456 N.pl3   1  UNL1       -0.3413
     19 N           0.8026    4.0741   32.5442 N.ar    1  UNL1       -0.2078
     20 C           0.5026    4.5557   31.1557 C.ar    1  UNL1        0.2015
     21 N           0.7535    3.6586   29.9801 N.ar    1  UNL1       -0.2045
     22 C           1.3045    2.2799   30.1929 C.ar    1  UNL1        0.1711
     23 H           2.0153    1.3087   34.2853 H       1  UNL1        0.1438
     24 H           1.4890    2.8024   34.9172 H       1  UNL1        0.1438
     25 N           3.5835    0.2658   18.9140 N.ar    1  UNL1       -0.2162
     26 N           4.3040   -0.9092   18.3225 N.ar    1  UNL1       -0.1683
     27 C           3.8903   -2.1359   19.0801 C.ar    1  UNL1        0.0810
     28 C           2.9141   -1.7190   20.1399 C.ar    1  UNL1        0.0509
     29 C           2.7245   -0.2346   20.0372 C.ar    1  UNL1        0.1380
     30 C           4.0545    5.9672   17.1050 C.3     1  UNL1        0.0310
     31 C           3.9368    4.5419   17.5572 C.ar    1  UNL1       -0.0218
     32 C           5.1475    3.6564   17.5692 C.ar    1  UNL1       -0.0027
     33 C           5.0297    2.2310   18.0215 C.ar    1  UNL1        0.0189
     34 C           3.7012    1.6912   18.4618 C.ar    1  UNL1        0.0842
     35 C           2.4905    2.5767   18.4497 C.ar    1  UNL1        0.0189
     36 C           2.6083    4.0021   17.9975 C.ar    1  UNL1       -0.0027
     37 C           4.3689   -3.5342   18.8230 C.3     1  UNL1        0.0372
     38 C           3.0294   -4.0684   19.2356 C.3     1  UNL1        0.0060
     39 C           5.7084   -2.9999   18.4105 C.3     1  UNL1        0.0060
     40 C           4.8474   -4.9324   18.5660 C.3     1  UNL1        0.0060
@<TRIPOS>BOND
     1    30    31    1
     2    31    32   ar
     3    32    33   ar
     4    33    34   ar
     5    34    25    1
     6    25    26   ar
     7    26    27   ar
     8    27    37    1
     9    37    38    1
    10    37    39    1
    11    37    40    1
    12    27    28   ar
    13    28    29   ar
    14    29     1    1
    15     1     2   am
    16     2     3    2
    17     2     4   am
    18     4     7    1
    19     7     8   ar
    20     8     9   ar
    21     9    10   ar
    22    10    13    1
    23    13    14   ar
    24    14    15   ar
    25    15    16   ar
    26    16    17   ar
    27    17    18    1
    28    17    19   ar
    29    19    20   ar
    30    20    21   ar
    31    21    22   ar
    32    10    11   ar
    33    11    12   ar
    34    34    35   ar
    35    35    36   ar
    36    36    31   ar
    37    29    25   ar
    38    12     7   ar
    39    22    13   ar
    40    22    16   ar
    41     1     5    1
    42     4     6    1
    43    18    23    1
    44    18    24    1
@<TRIPOS>MOLECULE
*****
 40 44 0 0 0
SMALL
GASTEIGER

@<TRIPOS>ATOM
      1 N           0.2449    3.7733   22.9540 N.am    1  UNL1       -0.2533
      2 C           0.6271    2.9308   24.1348 C.2     1  UNL1        0.3092
      3 O          -0.2978    1.8535   24.6184 O.2     1  UNL1       -0.2521
      4 N           1.9344    3.1657   24.8319 N.am    1  UNL1       -0.2680
      5 H           0.8520    4.4803   22.6365 H       1  UNL1        0.1578
      6 H           2.5414    3.8728   24.5144 H       1  UNL1        0.1564
      7 C           2.3167    2.3233   26.0126 C.ar    1  UNL1        0.0517
      8 C           2.7875    0.9140   25.8075 C.ar    1  UNL1        0.0162
      9 C           3.1698    0.0716   26.9883 C.ar    1  UNL1        0.0189
     10 C           3.0812    0.6386   28.3743 C.ar    1  UNL1        0.0669
     11 C           2.6104    2.0479   28.5793 C.ar    1  UNL1        0.0189
     12 C           2.2281    2.8902   27.3985 C.ar    1  UNL1        0.0162
     13 N           3.4636   -0.2038   29.5551 N.ar    1  UNL1       -0.2729
     14 C           2.6581   -0.3835   30.8077 C.ar    1  UNL1        0.1840
     15 N           3.4152   -1.3051   31.7173 N.ar    1  UNL1       -0.2192
     16 C           4.6885   -1.6951   31.0268 C.ar    1  UNL1        0.1484
     17 C           5.8246   -2.5820   31.4423 C.ar    1  UNL1        0.1480
     18 N           5.7948   -3.2626   32.7787 N.pl3   1  UNL1       -0.3413
     19 N           6.9906   -2.7882   30.5215 N.ar    1  UNL1       -0.2078
     20 C           7.0204   -2.1075   29.1851 C.ar    1  UNL1        0.2015
     21 N           5.8843   -1.2206   28.7696 N.ar    1  UNL1       -0.2045
     22 C           4.7184   -1.0144   29.6905 C.ar    1  UNL1        0.1711
     23 H           5.0295   -3.1273   33.3830 H       1  UNL1        0.1438
     24 H           6.5404   -3.8447   33.0513 H       1  UNL1        0.1438
     25 N          -1.2610    2.7449   20.9995 N.ar    1  UNL1       -0.2162
     26 N          -2.7218    2.7718   20.6603 N.ar    1  UNL1       -0.1683
     27 C          -3.4261    3.5820   21.7080 C.ar    1  UNL1        0.0810
     28 C          -2.4005    4.0557   22.6947 C.ar    1  UNL1        0.0509
     29 C          -1.0623    3.5384   22.2568 C.ar    1  UNL1        0.1380
     30 C           3.0342   -0.0466   17.8755 C.3     1  UNL1        0.0310
     31 C           1.9604    0.6512   18.6565 C.ar    1  UNL1       -0.0218
     32 C           1.6565    2.0955   18.3886 C.ar    1  UNL1       -0.0027
     33 C           0.5827    2.7934   19.1696 C.ar    1  UNL1        0.0189
     34 C          -0.1872    2.0471   20.2185 C.ar    1  UNL1        0.0842
     35 C           0.1167    0.6027   20.4864 C.ar    1  UNL1        0.0189
     36 C           1.1905   -0.0951   19.7054 C.ar    1  UNL1       -0.0027
     37 C          -4.8977    3.8681   21.7598 C.3     1  UNL1        0.0372
     38 C          -4.9924    3.1432   23.0696 C.3     1  UNL1        0.0060
     39 C          -4.8029    4.5930   20.4500 C.3     1  UNL1        0.0060
     40 C          -6.3692    4.1542   21.8117 C.3     1  UNL1        0.0060
@<TRIPOS>BOND
     1    30    31    1
     2    31    32   ar
     3    32    33   ar
     4    33    34   ar
     5    34    25    1
     6    25    26   ar
     7    26    27   ar
     8    27    37    1
     9    37    38    1
    10    37    39    1
    11    37    40    1
    12    27    28   ar
    13    28    29   ar
    14    29     1    1
    15     1     2   am
    16     2     3    2
    17     2     4   am
    18     4     7    1
    19     7     8   ar
    20     8     9   ar
    21     9    10   ar
    22    10    13    1
    23    13    14   ar
    24    14    15   ar
    25    15    16   ar
    26    16    17   ar
    27    17    18    1
    28    17    19   ar
    29    19    20   ar
    30    20    21   ar
    31    21    22   ar
    32    10    11   ar
    33    11    12   ar
    34    34    35   ar
    35    35    36   ar
    36    36    31   ar
    37    29    25   ar
    38    12     7   ar
    39    22    13   ar
    40    22    16   ar
    41     1     5    1
    42     4     6    1
    43    18    23    1
    44    18    24    1
@<TRIPOS>MOLECULE
*****
 40 44 0 0 0
SMALL
GASTEIGER

@<TRIPOS>ATOM
      1 N           2.7442    2.3780   22.8826 N.am    1  UNL1       -0.2533
      2 C           3.1426    1.2585   23.7981 C.2     1  UNL1        0.3092
      3 O           2.1779    0.1471   24.0879 O.2     1  UNL1       -0.2521
      4 N           4.5059    1.2505   24.4237 N.am    1  UNL1       -0.2680
      5 H           3.3774    3.1074   22.6924 H       1  UNL1        0.1578
      6 H           5.1391    1.9799   24.2335 H       1  UNL1        0.1564
      7 C           4.9044    0.1311   25.3392 C.ar    1  UNL1        0.0517
      8 C           4.4379    0.1259   26.7648 C.ar    1  UNL1        0.0162
      9 C           4.8364   -0.9935   27.6803 C.ar    1  UNL1        0.0189
     10 C           5.7015   -2.1078   27.1701 C.ar    1  UNL1        0.0669
     11 C           6.1679   -2.1026   25.7446 C.ar    1  UNL1        0.0189
     12 C           5.7694   -0.9832   24.8291 C.ar    1  UNL1        0.0162
     13 N           6.1000   -3.2272   28.0856 N.ar    1  UNL1       -0.2729
     14 C           6.4179   -4.6336   27.6721 C.ar    1  UNL1        0.1840
     15 N           6.7650   -5.4123   28.9063 N.ar    1  UNL1       -0.2192
     16 C           6.6615   -4.4872   30.0825 C.ar    1  UNL1        0.1484
     17 C           6.8884   -4.7001   31.5499 C.ar    1  UNL1        0.1480
     18 N           7.2994   -6.0505   32.0571 N.pl3   1  UNL1       -0.3413
     19 N           6.7044   -3.5624   32.5100 N.ar    1  UNL1       -0.2078
     20 C           6.2934   -2.2119   32.0027 C.ar    1  UNL1        0.2015
     21 N           6.0665   -1.9991   30.5354 N.ar    1  UNL1       -0.2045
     22 C           6.2505   -3.1367   29.5753 C.ar    1  UNL1        0.1711
     23 H           7.4202   -6.7972   31.4269 H       1  UNL1        0.1438
     24 H           7.4484   -6.1902   33.0202 H       1  UNL1        0.1438
     25 N           0.9582    1.5962   21.0539 N.ar    1  UNL1       -0.2162
     26 N          -0.4829    1.9073   20.7779 N.ar    1  UNL1       -0.1683
     27 C          -0.9510    2.8895   21.8105 C.ar    1  UNL1        0.0810
     28 C           0.2009    3.1853   22.7246 C.ar    1  UNL1        0.0509
     29 C           1.3809    2.3860   22.2570 C.ar    1  UNL1        0.1380
     30 C           4.4241   -2.1503   17.8991 C.3     1  UNL1        0.0310
     31 C           3.5576   -1.2137   18.6878 C.ar    1  UNL1       -0.0218
     32 C           3.3308    0.1871   18.2016 C.ar    1  UNL1       -0.0027
     33 C           2.4643    1.1237   18.9903 C.ar    1  UNL1        0.0189
     34 C           1.8247    0.6596   20.2652 C.ar    1  UNL1        0.0842
     35 C           2.0515   -0.7413   20.7514 C.ar    1  UNL1        0.0189
     36 C           2.9180   -1.6779   19.9628 C.ar    1  UNL1       -0.0027
     37 C          -2.3291    3.4733   21.9113 C.3     1  UNL1        0.0372
     38 C          -2.1363    3.6740   23.3852 C.3     1  UNL1        0.0060
     39 C          -2.5219    3.2726   20.4373 C.3     1  UNL1        0.0060
     40 C          -3.7071    4.0571   22.0121 C.3     1  UNL1        0.0060
@<TRIPOS>BOND
     1    30    31    1
     2    31    32   ar
     3    32    33   ar
     4    33    34   ar
     5    34    25    1
     6    25    26   ar
     7    26    27   ar
     8    27    37    1
     9    37    38    1
    10    37    39    1
    11    37    40    1
    12    27    28   ar
    13    28    29   ar
    14    29     1    1
    15     1     2   am
    16     2     3    2
    17     2     4   am
    18     4     7    1
    19     7     8   ar
    20     8     9   ar
    21     9    10   ar
    22    10    13    1
    23    13    14   ar
    24    14    15   ar
    25    15    16   ar
    26    16    17   ar
    27    17    18    1
    28    17    19   ar
    29    19    20   ar
    30    20    21   ar
    31    21    22   ar
    32    10    11   ar
    33    11    12   ar
    34    34    35   ar
    35    35    36   ar
    36    36    31   ar
    37    29    25   ar
    38    12     7   ar
    39    22    13   ar
    40    22    16   ar
    41     1     5    1
    42     4     6    1
    43    18    23    1
    44    18    24    1
@<TRIPOS>MOLECULE
*****
 40 44 0 0 0
SMALL
GASTEIGER

@<TRIPOS>ATOM
      1 N           3.2076    2.2722   21.2234 N.am    1  UNL1       -0.2533
      2 C           3.0463    1.7522   22.6211 C.2     1  UNL1        0.3092
      3 O           1.7249    1.2012   23.0686 O.2     1  UNL1       -0.2521
      4 N           4.2065    1.7832   23.5714 N.am    1  UNL1       -0.2680
      5 H           4.0749    2.6339   20.9297 H       1  UNL1        0.1578
      6 H           5.0738    2.1449   23.2777 H       1  UNL1        0.1564
      7 C           4.0454    1.2633   24.9691 C.ar    1  UNL1        0.0517
      8 C           3.7933    2.2165   26.0995 C.ar    1  UNL1        0.0162
      9 C           3.6321    1.6965   27.4973 C.ar    1  UNL1        0.0189
     10 C           3.7230    0.2232   27.7646 C.ar    1  UNL1        0.0669
     11 C           3.9750   -0.7299   26.6341 C.ar    1  UNL1        0.0189
     12 C           4.1362   -0.2099   25.2364 C.ar    1  UNL1        0.0162
     13 N           3.5618   -0.2968   29.1623 N.ar    1  UNL1       -0.2729
     14 C           2.2704   -0.4125   29.9165 C.ar    1  UNL1        0.1840
     15 N           2.5742   -0.9796   31.2715 N.ar    1  UNL1       -0.2192
     16 C           4.0534   -1.2143   31.3548 C.ar    1  UNL1        0.1484
     17 C           4.9234   -1.7578   32.4492 C.ar    1  UNL1        0.1480
     18 N           4.3130   -2.1798   33.7528 N.pl3   1  UNL1       -0.3413
     19 N           6.4037   -1.8793   32.2400 N.ar    1  UNL1       -0.2078
     20 C           7.0141   -1.4573   30.9364 C.ar    1  UNL1        0.2015
     21 N           6.1441   -0.9138   29.8420 N.ar    1  UNL1       -0.2045
     22 C           4.6638   -0.7923   30.0512 C.ar    1  UNL1        0.1711
     23 H           3.3414   -2.1000   33.8901 H       1  UNL1        0.1438
     24 H           4.8840   -2.5365   34.4711 H       1  UNL1        0.1438
     25 N           1.7363    1.1456   19.2970 N.ar    1  UNL1       -0.2162
     26 N           0.4913    1.5276   18.5528 N.ar    1  UNL1       -0.1683
     27 C           0.0328    2.8592   19.0690 C.ar    1  UNL1        0.0810
     28 C           0.9946    3.3003   20.1323 C.ar    1  UNL1        0.0509
     29 C           2.0474    2.2412   20.2732 C.ar    1  UNL1        0.1380
     30 C           4.9144   -3.8820   18.5077 C.3     1  UNL1        0.0310
     31 C           4.1199   -2.6251   18.7050 C.ar    1  UNL1       -0.0218
     32 C           4.1949   -1.5233   17.6899 C.ar    1  UNL1       -0.0027
     33 C           3.4003   -0.2663   17.8872 C.ar    1  UNL1        0.0189
     34 C           2.5308   -0.1112   19.0997 C.ar    1  UNL1        0.0842
     35 C           2.4559   -1.2131   20.1148 C.ar    1  UNL1        0.0189
     36 C           3.2504   -2.4700   19.9175 C.ar    1  UNL1       -0.0027
     37 C          -1.1753    3.6169   18.6037 C.3     1  UNL1        0.0372
     38 C          -0.5579    3.7667   17.2449 C.3     1  UNL1        0.0060
     39 C          -1.7927    3.4671   19.9625 C.3     1  UNL1        0.0060
     40 C          -2.3834    4.3745   18.1383 C.3     1  UNL1        0.0060
@<TRIPOS>BOND
     1    30    31    1
     2    31    32   ar
     3    32    33   ar
     4    33    34   ar
     5    34    25    1
     6    25    26   ar
     7    26    27   ar
     8    27    37    1
     9    37    38    1
    10    37    39    1
    11    37    40    1
    12    27    28   ar
    13    28    29   ar
    14    29     1    1
    15     1     2   am
    16     2     3    2
    17     2     4   am
    18     4     7    1
    19     7     8   ar
    20     8     9   ar
    21     9    10   ar
    22    10    13    1
    23    13    14   ar
    24    14    15   ar
    25    15    16   ar
    26    16    17   ar
    27    17    18    1
    28    17    19   ar
    29    19    20   ar
    30    20    21   ar
    31    21    22   ar
    32    10    11   ar
    33    11    12   ar
    34    34    35   ar
    35    35    36   ar
    36    36    31   ar
    37    29    25   ar
    38    12     7   ar
    39    22    13   ar
    40    22    16   ar
    41     1     5    1
    42     4     6    1
    43    18    23    1
    44    18    24    1
