@<TRIPOS>MOLECULE
*****
 34 36 0 0 0
SMALL
GASTEIGER

@<TRIPOS>ATOM
      1 C           2.0228    0.6546   20.4475 C.ar    1  UNL1        0.0528
      2 C           0.6104    0.9421   20.8627 C.ar    1  UNL1        0.0167
      3 C          -0.1657    2.0286   20.1792 C.ar    1  UNL1        0.0505
      4 C           0.4705    2.8275   19.0807 C.ar    1  UNL1        0.0170
      5 C           1.8829    2.5400   18.6655 C.ar    1  UNL1        0.0307
      6 C           2.6590    1.4535   19.3490 C.ar    1  UNL1        0.1402
      7 F           4.0715    1.1659   18.9338 F       1  UNL1       -0.2044
      8 C           2.5913    0.5047   22.2841 C.3     1  UNL1        0.0607
      9 C           2.7990   -0.4320   21.1310 C.3     1  UNL1        0.2223
     10 C           2.7370   -0.9912   19.7406 C.3     1  UNL1        0.1959
     11 O           3.3792   -2.3117   19.4340 O.3     1  UNL1       -0.3357
     12 C           4.0832   -3.0729   20.5180 C.3     1  UNL1        0.2740
     13 C           4.8594   -4.1594   21.2014 C.3     1  UNL1        0.0512
     14 C           4.1452   -2.5136   21.9084 C.2     1  UNL1        0.3217
     15 N           4.8493   -3.2749   22.9923 N.pl3   1  UNL1       -0.2480
     16 N           3.5031   -1.1932   22.2149 N.2     1  UNL1       -0.0692
     17 H           5.2707   -4.1415   22.7911 H       1  UNL1        0.2882
     18 H           4.8899   -2.9078   23.9049 H       1  UNL1        0.2882
     19 C           4.2909   -4.0096   19.3649 C.3     1  UNL1        0.4305
     20 F           4.4985   -4.9462   18.2117 F       1  UNL1       -0.1670
     21 F           2.8097   -4.2303   19.2775 F       1  UNL1       -0.1670
     22 F           5.7719   -3.7888   19.4523 F       1  UNL1       -0.1670
     23 N          -1.5782    2.3162   20.5944 N.am    1  UNL1       -0.2791
     24 C          -1.8511    3.2950   21.6979 C.2     1  UNL1        0.2672
     25 O          -0.7115    3.9860   22.3862 O.2     1  UNL1       -0.2682
     26 H          -2.3262    1.8627   20.1426 H       1  UNL1        0.1552
     27 C          -3.2635    3.5826   22.1130 C.ar    1  UNL1        0.1348
     28 C          -3.6240    3.6229   23.5685 C.ar    1  UNL1        0.0245
     29 C          -5.0364    3.9106   23.9836 C.ar    1  UNL1        0.0135
     30 C          -6.0883    4.1579   22.9433 C.ar    1  UNL1        0.0876
     31 C          -5.7278    4.1176   21.4878 C.ar    1  UNL1        0.1092
     32 N          -4.3154    3.8299   21.0727 N.ar    1  UNL1       -0.2385
     33 C          -7.5007    4.4455   23.3584 C.1     1  UNL1        0.1020
     34 N          -8.9131    4.7332   23.7736 N.1     1  UNL1       -0.1908
@<TRIPOS>BOND
     1     9     8    1
     2     9     1    1
     3     1     2   ar
     4     2     3   ar
     5     3    23    1
     6    23    24   am
     7    24    25    2
     8    24    27    1
     9    27    28   ar
    10    28    29   ar
    11    29    30   ar
    12    30    33    1
    13    33    34    3
    14    30    31   ar
    15    31    32   ar
    16     3     4   ar
    17     4     5   ar
    18     5     6   ar
    19     6     7    1
    20     9    10    1
    21    10    11    1
    22    11    12    1
    23    12    13    1
    24    12    19    1
    25    19    20    1
    26    19    21    1
    27    19    22    1
    28    12    14    1
    29    14    15    1
    30    14    16    2
    31    16     9    1
    32     6     1   ar
    33    32    27   ar
    34    23    26    1
    35    15    17    1
    36    15    18    1
@<TRIPOS>MOLECULE
*****
 34 36 0 0 0
SMALL
GASTEIGER

@<TRIPOS>ATOM
      1 C           7.1357   -4.0992   23.2235 C.ar    1  UNL1        0.0528
      2 C           6.5696   -3.6738   24.5458 C.ar    1  UNL1        0.0167
      3 C           6.8480   -4.4848   25.7765 C.ar    1  UNL1        0.0505
      4 C           7.6925   -5.7211   25.6850 C.ar    1  UNL1        0.0170
      5 C           8.2585   -6.1465   24.3627 C.ar    1  UNL1        0.0307
      6 C           7.9801   -5.3355   23.1319 C.ar    1  UNL1        0.1402
      7 F           8.5462   -5.7609   21.8095 F       1  UNL1       -0.2044
      8 C           8.0681   -2.5695   22.5098 C.3     1  UNL1        0.0607
      9 C           6.8573   -3.2882   21.9926 C.3     1  UNL1        0.2223
     10 C           5.7433   -4.2886   21.9029 C.3     1  UNL1        0.1959
     11 O           4.7713   -4.2284   20.7620 O.3     1  UNL1       -0.3357
     12 C           4.9135   -3.1678   19.7108 C.3     1  UNL1        0.2740
     13 C           4.6352   -2.3569   18.4800 C.3     1  UNL1        0.0512
     14 C           6.0275   -2.1675   19.8005 C.2     1  UNL1        0.3217
     15 N           6.1697   -1.1069   18.7493 N.pl3   1  UNL1       -0.2480
     16 N           6.9995   -2.2276   20.9414 N.2     1  UNL1       -0.0692
     17 H           5.5318   -1.0674   18.0005 H       1  UNL1        0.2882
     18 H           6.9009   -0.4503   18.8082 H       1  UNL1        0.2882
     19 C           3.7027   -3.8866   19.1936 C.3     1  UNL1        0.4305
     20 F           2.4919   -4.6054   18.6763 F       1  UNL1       -0.1670
     21 F           4.5778   -4.9919   18.6810 F       1  UNL1       -0.1670
     22 F           2.8277   -2.7814   19.7061 F       1  UNL1       -0.1670
     23 N           6.2820   -4.0594   27.0990 N.am    1  UNL1       -0.2791
     24 C           7.1696   -3.4157   28.1226 C.2     1  UNL1        0.2672
     25 O           8.6233   -3.1974   27.8238 O.2     1  UNL1       -0.2682
     26 H           5.3279   -4.2027   27.2950 H       1  UNL1        0.1552
     27 C           6.6036   -2.9904   29.4449 C.ar    1  UNL1        0.1348
     28 C           6.8441   -3.8257   30.6674 C.ar    1  UNL1        0.0245
     29 C           6.2781   -3.4003   31.9898 C.ar    1  UNL1        0.0135
     30 C           5.4716   -2.1396   32.0897 C.ar    1  UNL1        0.0876
     31 C           5.2311   -1.3042   30.8673 C.ar    1  UNL1        0.1092
     32 N           5.7971   -1.7295   29.5449 N.ar    1  UNL1       -0.2385
     33 C           4.9056   -1.7142   33.4121 C.1     1  UNL1        0.1020
     34 N           4.3396   -1.2889   34.7345 N.1     1  UNL1       -0.1908
@<TRIPOS>BOND
     1     9     8    1
     2     9     1    1
     3     1     2   ar
     4     2     3   ar
     5     3    23    1
     6    23    24   am
     7    24    25    2
     8    24    27    1
     9    27    28   ar
    10    28    29   ar
    11    29    30   ar
    12    30    33    1
    13    33    34    3
    14    30    31   ar
    15    31    32   ar
    16     3     4   ar
    17     4     5   ar
    18     5     6   ar
    19     6     7    1
    20     9    10    1
    21    10    11    1
    22    11    12    1
    23    12    13    1
    24    12    19    1
    25    19    20    1
    26    19    21    1
    27    19    22    1
    28    12    14    1
    29    14    15    1
    30    14    16    2
    31    16     9    1
    32     6     1   ar
    33    32    27   ar
    34    23    26    1
    35    15    17    1
    36    15    18    1
@<TRIPOS>MOLECULE
*****
 34 36 0 0 0
SMALL
GASTEIGER

@<TRIPOS>ATOM
      1 C           3.3074    0.7768   18.4565 C.ar    1  UNL1        0.0528
      2 C           1.8823    1.2334   18.5594 C.ar    1  UNL1        0.0167
      3 C           1.5568    2.6961   18.4928 C.ar    1  UNL1        0.0505
      4 C           2.6563    3.7022   18.3233 C.ar    1  UNL1        0.0170
      5 C           4.0814    3.2456   18.2204 C.ar    1  UNL1        0.0307
      6 C           4.4069    1.7829   18.2870 C.ar    1  UNL1        0.1402
      7 F           5.8320    1.3262   18.1841 F       1  UNL1       -0.2044
      8 C           3.5022   -0.5155   17.0385 C.3     1  UNL1        0.0607
      9 C           3.6329   -0.6860   18.5231 C.3     1  UNL1        0.2223
     10 C           3.6506   -0.3484   19.9845 C.3     1  UNL1        0.1959
     11 O           3.9484   -1.4144   20.9969 O.3     1  UNL1       -0.3357
     12 C           4.2286   -2.8180   20.5479 C.3     1  UNL1        0.2740
     13 C           4.5541   -4.2806   20.6144 C.3     1  UNL1        0.0512
     14 C           4.2109   -3.1555   19.0865 C.2     1  UNL1        0.3217
     15 N           4.4911   -4.5591   18.6375 N.pl3   1  UNL1       -0.2480
     16 N           3.9131   -2.0895   18.0741 N.2     1  UNL1       -0.0692
     17 H           4.6866   -5.2587   19.3020 H       1  UNL1        0.2882
     18 H           4.4795   -4.7806   17.6783 H       1  UNL1        0.2882
     19 C           4.3593   -2.9884   22.0325 C.3     1  UNL1        0.4305
     20 F           4.4900   -3.1588   23.5170 F       1  UNL1       -0.1670
     21 F           5.4965   -3.9439   21.8226 F       1  UNL1       -0.1670
     22 F           3.2222   -2.0330   22.2422 F       1  UNL1       -0.1670
     23 N           0.1316    3.1528   18.5957 N.am    1  UNL1       -0.2791
     24 C          -0.5279    3.2553   19.9390 C.2     1  UNL1        0.2672
     25 O           0.2377    2.9011   21.1794 O.2     1  UNL1       -0.2682
     26 H          -0.3708    3.3852   17.7816 H       1  UNL1        0.1552
     27 C          -1.9530    3.7119   20.0420 C.ar    1  UNL1        0.1348
     28 C          -2.3627    5.0296   19.4538 C.ar    1  UNL1        0.0245
     29 C          -3.7878    5.4862   19.5568 C.ar    1  UNL1        0.0135
     30 C          -4.8032    4.6252   20.2479 C.ar    1  UNL1        0.0876
     31 C          -4.3935    3.3075   20.8361 C.ar    1  UNL1        0.1092
     32 N          -2.9684    2.8509   20.7331 N.ar    1  UNL1       -0.2385
     33 C          -6.2282    5.0818   20.3509 C.1     1  UNL1        0.1020
     34 N          -7.6534    5.5386   20.4538 N.1     1  UNL1       -0.1908
@<TRIPOS>BOND
     1     9     8    1
     2     9     1    1
     3     1     2   ar
     4     2     3   ar
     5     3    23    1
     6    23    24   am
     7    24    25    2
     8    24    27    1
     9    27    28   ar
    10    28    29   ar
    11    29    30   ar
    12    30    33    1
    13    33    34    3
    14    30    31   ar
    15    31    32   ar
    16     3     4   ar
    17     4     5   ar
    18     5     6   ar
    19     6     7    1
    20     9    10    1
    21    10    11    1
    22    11    12    1
    23    12    13    1
    24    12    19    1
    25    19    20    1
    26    19    21    1
    27    19    22    1
    28    12    14    1
    29    14    15    1
    30    14    16    2
    31    16     9    1
    32     6     1   ar
    33    32    27   ar
    34    23    26    1
    35    15    17    1
    36    15    18    1
@<TRIPOS>MOLECULE
*****
 34 36 0 0 0
SMALL
GASTEIGER

@<TRIPOS>ATOM
      1 C           2.5811    0.5464   21.0653 C.ar    1  UNL1        0.0528
      2 C           1.2826    0.9993   20.4664 C.ar    1  UNL1        0.0167
      3 C           0.2232    1.6021   21.3406 C.ar    1  UNL1        0.0505
      4 C           0.4623    1.7519   22.8138 C.ar    1  UNL1        0.0170
      5 C           1.7608    1.2990   23.4128 C.ar    1  UNL1        0.0307
      6 C           2.8202    0.6963   22.5386 C.ar    1  UNL1        0.1402
      7 F           4.1187    0.2434   23.1376 F       1  UNL1       -0.2044
      8 C           4.0004    1.3951   20.0733 C.3     1  UNL1        0.0607
      9 C           3.6406   -0.0563   20.1911 C.3     1  UNL1        0.2223
     10 C           2.9129   -1.2984   20.6125 C.3     1  UNL1        0.1959
     11 O           3.3695   -2.6392   20.1188 O.3     1  UNL1       -0.3357
     12 C           4.5540   -2.7378   19.2036 C.3     1  UNL1        0.2740
     13 C           5.6134   -3.3405   18.3294 C.3     1  UNL1        0.0512
     14 C           5.2817   -1.4958   18.7823 C.2     1  UNL1        0.3217
     15 N           6.4661   -1.5944   17.8671 N.pl3   1  UNL1       -0.2480
     16 N           4.8250   -0.1550   19.2760 N.2     1  UNL1       -0.0692
     17 H           6.7659   -2.4744   17.5431 H       1  UNL1        0.2882
     18 H           6.9438   -0.7792   17.5906 H       1  UNL1        0.2882
     19 C           4.1942   -4.1893   19.3214 C.3     1  UNL1        0.4305
     20 F           3.8344   -5.6408   19.4392 F       1  UNL1       -0.1670
     21 F           2.8105   -3.8864   18.8278 F       1  UNL1       -0.1670
     22 F           5.5779   -4.4922   19.8150 F       1  UNL1       -0.1670
     23 N          -1.0753    2.0550   20.7416 N.am    1  UNL1       -0.2791
     24 C          -1.1676    3.3973   20.0784 C.2     1  UNL1        0.2672
     25 O           0.0387    4.2866   20.0143 O.2     1  UNL1       -0.2682
     26 H          -1.8670    1.4713   20.7837 H       1  UNL1        0.1552
     27 C          -2.4660    3.8502   19.4795 C.ar    1  UNL1        0.1348
     28 C          -3.7656    3.4019   20.0795 C.ar    1  UNL1        0.0245
     29 C          -5.0641    3.8549   19.4805 C.ar    1  UNL1        0.0135
     30 C          -5.0630    4.7562   18.2815 C.ar    1  UNL1        0.0876
     31 C          -3.7634    5.2045   17.6815 C.ar    1  UNL1        0.1092
     32 N          -2.4649    4.7516   18.2804 N.ar    1  UNL1       -0.2385
     33 C          -6.3614    5.2091   17.6825 C.1     1  UNL1        0.1020
     34 N          -7.6600    5.6621   17.0835 N.1     1  UNL1       -0.1908
@<TRIPOS>BOND
     1     9     8    1
     2     9     1    1
     3     1     2   ar
     4     2     3   ar
     5     3    23    1
     6    23    24   am
     7    24    25    2
     8    24    27    1
     9    27    28   ar
    10    28    29   ar
    11    29    30   ar
    12    30    33    1
    13    33    34    3
    14    30    31   ar
    15    31    32   ar
    16     3     4   ar
    17     4     5   ar
    18     5     6   ar
    19     6     7    1
    20     9    10    1
    21    10    11    1
    22    11    12    1
    23    12    13    1
    24    12    19    1
    25    19    20    1
    26    19    21    1
    27    19    22    1
    28    12    14    1
    29    14    15    1
    30    14    16    2
    31    16     9    1
    32     6     1   ar
    33    32    27   ar
    34    23    26    1
    35    15    17    1
    36    15    18    1
@<TRIPOS>MOLECULE
*****
 34 36 0 0 0
SMALL
GASTEIGER

@<TRIPOS>ATOM
      1 C           7.0621   -4.0150   23.4703 C.ar    1  UNL1        0.0528
      2 C           6.3473   -3.2712   24.5592 C.ar    1  UNL1        0.0167
      3 C           6.3612   -3.8001   25.9627 C.ar    1  UNL1        0.0505
      4 C           7.0899   -5.0730   26.2773 C.ar    1  UNL1        0.0170
      5 C           7.8047   -5.8168   25.1884 C.ar    1  UNL1        0.0307
      6 C           7.7908   -5.2878   23.7849 C.ar    1  UNL1        0.1402
      7 F           8.5056   -6.0317   22.6959 F       1  UNL1       -0.2044
      8 C           8.3615   -2.9364   22.5392 C.3     1  UNL1        0.0607
      9 C           7.0482   -3.4860   22.0667 C.3     1  UNL1        0.2223
     10 C           5.7398   -4.2193   22.0816 C.3     1  UNL1        0.1959
     11 O           4.8736   -4.2328   20.8571 O.3     1  UNL1       -0.3357
     12 C           5.3158   -3.5130   19.6176 C.3     1  UNL1        0.2740
     13 C           5.3020   -2.9840   18.2140 C.3     1  UNL1        0.0512
     14 C           6.6242   -2.7797   19.6026 C.2     1  UNL1        0.3217
     15 N           7.0665   -2.0598   18.3632 N.pl3   1  UNL1       -0.2480
     16 N           7.4905   -2.7662   20.8272 N.2     1  UNL1       -0.0692
     17 H           6.4980   -2.0687   17.5594 H       1  UNL1        0.2882
     18 H           7.9253   -1.5785   18.3534 H       1  UNL1        0.2882
     19 C           4.0025   -4.0626   19.1451 C.3     1  UNL1        0.4305
     20 F           2.6892   -4.6122   18.6725 F       1  UNL1       -0.1670
     21 F           3.2785   -3.0215   19.9464 F       1  UNL1       -0.1670
     22 F           4.7266   -5.1036   18.3438 F       1  UNL1       -0.1670
     23 N           5.6464   -3.0563   27.0517 N.am    1  UNL1       -0.2791
     24 C           6.4243   -2.2198   28.0240 C.2     1  UNL1        0.2672
     25 O           7.9169   -2.1272   27.9072 O.2     1  UNL1       -0.2682
     26 H           4.6668   -3.1171   27.1283 H       1  UNL1        0.1552
     27 C           5.7096   -1.4760   29.1129 C.ar    1  UNL1        0.1348
     28 C           4.3153   -0.9713   28.8862 C.ar    1  UNL1        0.0245
     29 C           3.6006   -0.2275   29.9753 C.ar    1  UNL1        0.0135
     30 C           4.2802    0.0117   31.2909 C.ar    1  UNL1        0.0876
     31 C           5.6744   -0.4930   31.5176 C.ar    1  UNL1        0.1092
     32 N           6.3891   -1.2368   30.4287 N.ar    1  UNL1       -0.2385
     33 C           3.5654    0.7555   32.3799 C.1     1  UNL1        0.1020
     34 N           2.8507    1.4994   33.4689 N.1     1  UNL1       -0.1908
@<TRIPOS>BOND
     1     9     8    1
     2     9     1    1
     3     1     2   ar
     4     2     3   ar
     5     3    23    1
     6    23    24   am
     7    24    25    2
     8    24    27    1
     9    27    28   ar
    10    28    29   ar
    11    29    30   ar
    12    30    33    1
    13    33    34    3
    14    30    31   ar
    15    31    32   ar
    16     3     4   ar
    17     4     5   ar
    18     5     6   ar
    19     6     7    1
    20     9    10    1
    21    10    11    1
    22    11    12    1
    23    12    13    1
    24    12    19    1
    25    19    20    1
    26    19    21    1
    27    19    22    1
    28    12    14    1
    29    14    15    1
    30    14    16    2
    31    16     9    1
    32     6     1   ar
    33    32    27   ar
    34    23    26    1
    35    15    17    1
    36    15    18    1
@<TRIPOS>MOLECULE
*****
 34 36 0 0 0
SMALL
GASTEIGER

@<TRIPOS>ATOM
      1 C          -2.6851    3.9580   20.5629 C.ar    1  UNL1        0.0528
      2 C          -1.6730    2.9084   20.9150 C.ar    1  UNL1        0.0167
      3 C          -0.3183    2.9270   20.2713 C.ar    1  UNL1        0.0505
      4 C           0.0244    3.9953   19.2756 C.ar    1  UNL1        0.0170
      5 C          -0.9877    5.0449   18.9236 C.ar    1  UNL1        0.0307
      6 C          -2.3424    5.0263   19.5672 C.ar    1  UNL1        0.1402
      7 F          -3.3546    6.0759   19.2152 F       1  UNL1       -0.2044
      8 C          -4.3904    3.4125   19.8466 C.3     1  UNL1        0.0607
      9 C          -4.0399    3.9394   21.2066 C.3     1  UNL1        0.2223
     10 C          -3.2189    4.4727   22.3430 C.3     1  UNL1        0.1959
     11 O          -3.8744    4.8044   23.6508 O.3     1  UNL1       -0.3357
     12 C          -5.3509    4.6028   23.8221 C.3     1  UNL1        0.2740
     13 C          -6.7056    4.5842   24.4657 C.3     1  UNL1        0.0512
     14 C          -6.1719    4.0695   22.6857 C.2     1  UNL1        0.3217
     15 N          -7.6484    3.8679   22.8570 N.pl3   1  UNL1       -0.2480
     16 N          -5.5164    3.7378   21.3779 N.2     1  UNL1       -0.0692
     17 H          -8.0786    4.0857   23.7153 H       1  UNL1        0.2882
     18 H          -8.1872    3.5179   22.1111 H       1  UNL1        0.2882
     19 C          -5.0004    5.1297   25.1822 C.3     1  UNL1        0.4305
     20 F          -4.6499    5.6565   26.5422 F       1  UNL1       -0.1670
     21 F          -4.8654    6.5107   24.6124 F       1  UNL1       -0.1670
     22 F          -5.1354    3.7487   25.7518 F       1  UNL1       -0.1670
     23 N           0.6939    1.8774   20.6233 N.am    1  UNL1       -0.2791
     24 C           1.1579    0.9035   19.5811 C.2     1  UNL1        0.2672
     25 O           0.6098    0.9793   18.1868 O.2     1  UNL1       -0.2682
     26 H           1.0536    1.8277   21.5384 H       1  UNL1        0.1552
     27 C           2.1700   -0.1461   19.9331 C.ar    1  UNL1        0.1348
     28 C           2.3721   -0.5427   21.3655 C.ar    1  UNL1        0.0245
     29 C           3.3843   -1.5924   21.7174 C.ar    1  UNL1        0.0135
     30 C           4.1943   -2.2454   20.6370 C.ar    1  UNL1        0.0876
     31 C           3.9921   -1.8488   19.2045 C.ar    1  UNL1        0.1092
     32 N           2.9800   -0.7992   18.8526 N.ar    1  UNL1       -0.2385
     33 C           5.2064   -3.2950   20.9889 C.1     1  UNL1        0.1020
     34 N           6.2185   -4.3447   21.3409 N.1     1  UNL1       -0.1908
@<TRIPOS>BOND
     1     9     8    1
     2     9     1    1
     3     1     2   ar
     4     2     3   ar
     5     3    23    1
     6    23    24   am
     7    24    25    2
     8    24    27    1
     9    27    28   ar
    10    28    29   ar
    11    29    30   ar
    12    30    33    1
    13    33    34    3
    14    30    31   ar
    15    31    32   ar
    16     3     4   ar
    17     4     5   ar
    18     5     6   ar
    19     6     7    1
    20     9    10    1
    21    10    11    1
    22    11    12    1
    23    12    13    1
    24    12    19    1
    25    19    20    1
    26    19    21    1
    27    19    22    1
    28    12    14    1
    29    14    15    1
    30    14    16    2
    31    16     9    1
    32     6     1   ar
    33    32    27   ar
    34    23    26    1
    35    15    17    1
    36    15    18    1
@<TRIPOS>MOLECULE
*****
 34 36 0 0 0
SMALL
GASTEIGER

@<TRIPOS>ATOM
      1 C           7.9222   -4.7725   28.3829 C.ar    1  UNL1        0.0528
      2 C           7.3500   -4.2386   27.1033 C.ar    1  UNL1        0.0167
      3 C           7.0164   -5.1772   25.9818 C.ar    1  UNL1        0.0505
      4 C           7.2550   -6.6496   26.1400 C.ar    1  UNL1        0.0170
      5 C           7.8272   -7.1835   27.4196 C.ar    1  UNL1        0.0307
      6 C           8.1608   -6.2449   28.5411 C.ar    1  UNL1        0.1402
      7 F           8.7331   -6.7787   29.8208 F       1  UNL1       -0.2044
      8 C           9.5360   -3.7737   28.7249 C.3     1  UNL1        0.0607
      9 C           8.2558   -3.8339   29.5045 C.3     1  UNL1        0.2223
     10 C           6.8599   -4.2200   29.8945 C.3     1  UNL1        0.1959
     11 O           6.2421   -3.6466   31.1353 O.3     1  UNL1       -0.3357
     12 C           7.0203   -2.6872   31.9861 C.3     1  UNL1        0.2740
     13 C           7.3540   -1.7486   33.1075 C.3     1  UNL1        0.0512
     14 C           8.4163   -2.3011   31.5961 C.2     1  UNL1        0.3217
     15 N           9.1945   -1.3416   32.4468 N.pl3   1  UNL1       -0.2480
     16 N           9.0341   -2.8744   30.3552 N.2     1  UNL1       -0.0692
     17 H           8.7891   -0.9653   33.2612 H       1  UNL1        0.2882
     18 H          10.1108   -1.0882   32.1908 H       1  UNL1        0.2882
     19 C           5.7402   -2.7473   32.7656 C.3     1  UNL1        0.4305
     20 F           4.4600   -2.8075   33.5452 F       1  UNL1       -0.1670
     21 F           5.5948   -1.2595   32.6417 F       1  UNL1       -0.1670
     22 F           5.8856   -4.2351   32.8896 F       1  UNL1       -0.1670
     23 N           6.4442   -4.6434   24.7021 N.am    1  UNL1       -0.2791
     24 C           7.3529   -4.3058   23.5574 C.2     1  UNL1        0.2672
     25 O           8.8339   -4.5020   23.6925 O.2     1  UNL1       -0.2682
     26 H           5.4722   -4.5146   24.6134 H       1  UNL1        0.1552
     27 C           6.7808   -3.7720   22.2777 C.ar    1  UNL1        0.1348
     28 C           7.5851   -2.8298   21.4320 C.ar    1  UNL1        0.0245
     29 C           7.0129   -2.2960   20.1523 C.ar    1  UNL1        0.0135
     30 C           5.6364   -2.7044   19.7183 C.ar    1  UNL1        0.0876
     31 C           4.8320   -3.6465   20.5641 C.ar    1  UNL1        0.1092
     32 N           5.4042   -4.1803   21.8438 N.ar    1  UNL1       -0.2385
     33 C           5.0642   -2.1706   18.4386 C.1     1  UNL1        0.1020
     34 N           4.4920   -1.6368   17.1589 N.1     1  UNL1       -0.1908
@<TRIPOS>BOND
     1     9     8    1
     2     9     1    1
     3     1     2   ar
     4     2     3   ar
     5     3    23    1
     6    23    24   am
     7    24    25    2
     8    24    27    1
     9    27    28   ar
    10    28    29   ar
    11    29    30   ar
    12    30    33    1
    13    33    34    3
    14    30    31   ar
    15    31    32   ar
    16     3     4   ar
    17     4     5   ar
    18     5     6   ar
    19     6     7    1
    20     9    10    1
    21    10    11    1
    22    11    12    1
    23    12    13    1
    24    12    19    1
    25    19    20    1
    26    19    21    1
    27    19    22    1
    28    12    14    1
    29    14    15    1
    30    14    16    2
    31    16     9    1
    32     6     1   ar
    33    32    27   ar
    34    23    26    1
    35    15    17    1
    36    15    18    1
@<TRIPOS>MOLECULE
*****
 34 36 0 0 0
SMALL
GASTEIGER

@<TRIPOS>ATOM
      1 C           2.0390    0.6834   20.2208 C.ar    1  UNL1        0.0528
      2 C           1.9596    0.8695   21.7070 C.ar    1  UNL1        0.0167
      3 C           0.7991    1.6039   22.3100 C.ar    1  UNL1        0.0505
      4 C          -0.2822    2.1524   21.4267 C.ar    1  UNL1        0.0170
      5 C          -0.2028    1.9663   19.9404 C.ar    1  UNL1        0.0307
      6 C           0.9578    1.2318   19.3375 C.ar    1  UNL1        0.1402
      7 F           1.0371    1.0457   17.8511 F       1  UNL1       -0.2044
      8 C           3.5897    1.3612   19.2963 C.3     1  UNL1        0.0607
      9 C           3.1996   -0.0511   19.6177 C.3     1  UNL1        0.2223
     10 C           2.4064   -1.2083   20.1486 C.3     1  UNL1        0.1959
     11 O           2.9093   -2.6095   19.9648 O.3     1  UNL1       -0.3357
     12 C           4.2054   -2.8535   19.2501 C.3     1  UNL1        0.2740
     13 C           5.3659   -3.5879   18.6471 C.3     1  UNL1        0.0512
     14 C           4.9985   -1.6963   18.7193 C.2     1  UNL1        0.3217
     15 N           6.2946   -1.9403   18.0046 N.pl3   1  UNL1       -0.2480
     16 N           4.4956   -0.2951   18.9031 N.2     1  UNL1       -0.0692
     17 H           6.6247   -2.8600   17.8840 H       1  UNL1        0.2882
     18 H           6.8152   -1.1808   17.6562 H       1  UNL1        0.2882
     19 C           3.8152   -4.2658   19.5715 C.3     1  UNL1        0.4305
     20 F           3.4251   -5.6781   19.8930 F       1  UNL1       -0.1670
     21 F           4.9211   -4.3412   20.5822 F       1  UNL1       -0.1670
     22 F           2.7094   -4.1902   18.5609 F       1  UNL1       -0.1670
     23 N           0.7197    1.7901   23.7963 N.am    1  UNL1       -0.2791
     24 C           1.5020    0.8914   24.7075 C.2     1  UNL1        0.2672
     25 O           2.3638   -0.1933   24.1324 O.2     1  UNL1       -0.2682
     26 H           0.1541    2.5020   24.1738 H       1  UNL1        0.1552
     27 C           1.4227    1.0775   26.1938 C.ar    1  UNL1        0.1348
     28 C           0.2263    1.7463   26.8031 C.ar    1  UNL1        0.0245
     29 C           0.1470    1.9324   28.2895 C.ar    1  UNL1        0.0135
     30 C           1.2640    1.4496   29.1664 C.ar    1  UNL1        0.0876
     31 C           2.4604    0.7808   28.5571 C.ar    1  UNL1        0.1092
     32 N           2.5398    0.5947   27.0708 N.ar    1  UNL1       -0.2385
     33 C           1.1846    1.6357   30.6527 C.1     1  UNL1        0.1020
     34 N           1.1052    1.8218   32.1390 N.1     1  UNL1       -0.1908
@<TRIPOS>BOND
     1     9     8    1
     2     9     1    1
     3     1     2   ar
     4     2     3   ar
     5     3    23    1
     6    23    24   am
     7    24    25    2
     8    24    27    1
     9    27    28   ar
    10    28    29   ar
    11    29    30   ar
    12    30    33    1
    13    33    34    3
    14    30    31   ar
    15    31    32   ar
    16     3     4   ar
    17     4     5   ar
    18     5     6   ar
    19     6     7    1
    20     9    10    1
    21    10    11    1
    22    11    12    1
    23    12    13    1
    24    12    19    1
    25    19    20    1
    26    19    21    1
    27    19    22    1
    28    12    14    1
    29    14    15    1
    30    14    16    2
    31    16     9    1
    32     6     1   ar
    33    32    27   ar
    34    23    26    1
    35    15    17    1
    36    15    18    1
@<TRIPOS>MOLECULE
*****
 34 36 0 0 0
SMALL
GASTEIGER

@<TRIPOS>ATOM
      1 C           2.5234    0.5386   20.0060 C.ar    1  UNL1        0.0528
      2 C           1.6158    0.9321   21.1335 C.ar    1  UNL1        0.0167
      3 C           0.3721    1.7228   20.8541 C.ar    1  UNL1        0.0505
      4 C           0.0361    2.1199   19.4472 C.ar    1  UNL1        0.0170
      5 C           0.9437    1.7264   18.3197 C.ar    1  UNL1        0.0307
      6 C           2.1874    0.9358   18.5991 C.ar    1  UNL1        0.1402
      7 F           3.0952    0.5423   17.4716 F       1  UNL1       -0.2044
      8 C           4.2406    1.1203   20.6629 C.3     1  UNL1        0.0607
      9 C           3.7672   -0.2520   20.2854 C.3     1  UNL1        0.2223
     10 C           2.8618   -1.3498   19.8108 C.3     1  UNL1        0.1959
     11 O           3.3646   -2.7615   19.7467 O.3     1  UNL1       -0.3357
     12 C           4.7728   -3.0755   20.1572 C.3     1  UNL1        0.2740
     13 C           6.0165   -3.8661   20.4366 C.3     1  UNL1        0.0512
     14 C           5.6781   -1.9778   20.6318 C.2     1  UNL1        0.3217
     15 N           7.0863   -2.2919   21.0423 N.pl3   1  UNL1       -0.2480
     16 N           5.1754   -0.5661   20.6959 N.2     1  UNL1       -0.0692
     17 H           7.4163   -3.2184   21.0003 H       1  UNL1        0.2882
     18 H           7.6805   -1.5714   21.3538 H       1  UNL1        0.2882
     19 C           4.2993   -4.4479   19.7797 C.3     1  UNL1        0.4305
     20 F           3.8259   -5.8203   19.4021 F       1  UNL1       -0.1670
     21 F           3.9046   -4.7036   21.2040 F       1  UNL1       -0.1670
     22 F           4.6941   -4.1922   18.3554 F       1  UNL1       -0.1670
     23 N          -0.5356    2.1163   21.9816 N.am    1  UNL1       -0.2791
     24 C          -0.8992    3.5575   22.1836 C.2     1  UNL1        0.2672
     25 O          -0.3551    4.6051   21.2581 O.2     1  UNL1       -0.2682
     26 H          -0.8928    1.4287   22.5890 H       1  UNL1        0.1552
     27 C          -1.8069    3.9510   23.3111 C.ar    1  UNL1        0.1348
     28 C          -1.7162    3.2416   24.6296 C.ar    1  UNL1        0.0245
     29 C          -2.6240    3.6352   25.7570 C.ar    1  UNL1        0.0135
     30 C          -3.6224    4.7382   25.5660 C.ar    1  UNL1        0.0876
     31 C          -3.7131    5.4476   24.2475 C.ar    1  UNL1        0.1092
     32 N          -2.8054    5.0541   23.1200 N.ar    1  UNL1       -0.2385
     33 C          -4.5301    5.1317   26.6934 C.1     1  UNL1        0.1020
     34 N          -5.4378    5.5253   27.8209 N.1     1  UNL1       -0.1908
@<TRIPOS>BOND
     1     9     8    1
     2     9     1    1
     3     1     2   ar
     4     2     3   ar
     5     3    23    1
     6    23    24   am
     7    24    25    2
     8    24    27    1
     9    27    28   ar
    10    28    29   ar
    11    29    30   ar
    12    30    33    1
    13    33    34    3
    14    30    31   ar
    15    31    32   ar
    16     3     4   ar
    17     4     5   ar
    18     5     6   ar
    19     6     7    1
    20     9    10    1
    21    10    11    1
    22    11    12    1
    23    12    13    1
    24    12    19    1
    25    19    20    1
    26    19    21    1
    27    19    22    1
    28    12    14    1
    29    14    15    1
    30    14    16    2
    31    16     9    1
    32     6     1   ar
    33    32    27   ar
    34    23    26    1
    35    15    17    1
    36    15    18    1
