@<TRIPOS>MOLECULE
*****
 30 33 0 0 0
SMALL
GASTEIGER

@<TRIPOS>ATOM
      1 C          -5.0453  -14.8310   25.7713 C.3     1  UNL1        0.0203
      2 C          -5.3779  -16.0225   24.9230 C.3     1  UNL1        0.0888
      3 N          -6.7202  -16.1204   24.2606 N.3     1  UNL1       -0.2713
      4 C          -6.9312  -15.5222   22.9014 C.3     1  UNL1        0.0749
      5 C          -8.2735  -15.6201   22.2390 C.3     1  UNL1        0.0485
      6 C          -9.4048  -16.3161   22.9360 C.3     1  UNL1        0.1096
      7 O         -10.0915  -15.9107   21.6655 O.3     1  UNL1       -0.3826
      8 C          -9.1938  -16.9143   24.2953 C.3     1  UNL1        0.0485
      9 C          -7.8515  -16.8164   24.9577 C.3     1  UNL1        0.0749
     10 H          -9.4654  -15.4361   21.0967 H       1  UNL1        0.2107
     11 C         -10.7746  -16.8713   23.1917 C.ar    1  UNL1        0.0019
     12 C         -10.9439  -18.0746   24.0711 C.ar    1  UNL1        0.0003
     13 C         -12.3137  -18.6299   24.3269 C.ar    1  UNL1        0.0294
     14 C         -13.5142  -17.9818   23.7031 C.ar    1  UNL1        0.1401
     15 F         -14.8839  -18.5371   23.9589 F       1  UNL1       -0.2042
     16 C         -13.3448  -16.7785   22.8238 C.ar    1  UNL1        0.0294
     17 C         -11.9750  -16.2232   22.5680 C.ar    1  UNL1        0.0003
     18 C          -4.3683  -17.1161   24.7369 C.3     1  UNL1        0.1470
     19 O          -3.6866  -17.7184   25.9297 O.3     1  UNL1       -0.3787
     20 H          -3.0688  -18.4061   25.6360 H       1  UNL1        0.2108
     21 C          -4.0402  -17.6075   23.3581 C.2     1  UNL1        0.0047
     22 C          -4.8285  -18.7324   22.7556 C.2     1  UNL1       -0.0217
     23 C          -4.5004  -19.2237   21.3768 C.3     1  UNL1        0.0722
     24 C          -3.3841  -18.5901   20.6007 C.2     1  UNL1        0.0932
     25 N          -2.8347  -18.8597   19.2311 N.am    1  UNL1       -0.1431
     26 C          -1.7068  -17.9013   18.9874 C.2     1  UNL1        0.4298
     27 O          -0.8729  -17.8191   17.7432 O.2     1  UNL1       -0.2238
     28 O          -1.5592  -17.0395   20.2062 O.3     1  UNL1       -0.4079
     29 C          -2.5959  -17.4652   21.2033 C.2     1  UNL1        0.1614
     30 C          -2.9239  -16.9739   22.5820 C.2     1  UNL1        0.0365
@<TRIPOS>BOND
     1     1     2    1
     2     2    18    1
     3    18    19    1
     4    18    21    1
     5    21    22    2
     6    22    23    1
     7    23    24    1
     8    24    25    2
     9    25    26    1
    10    26    27    2
    11    26    28    1
    12    28    29    1
    13    29    30    2
    14     2     3    1
    15     3     4    1
    16     4     5    1
    17     5     6    1
    18     6     7    1
    19     6    11    1
    20    11    12   ar
    21    12    13   ar
    22    13    14   ar
    23    14    15    1
    24    14    16   ar
    25    16    17   ar
    26     6     8    1
    27     8     9    1
    28    30    21    1
    29     9     3    1
    30    29    24    1
    31    17    11   ar
    32    19    20    1
    33     7    10    1
@<TRIPOS>MOLECULE
*****
 30 33 0 0 0
SMALL
GASTEIGER

@<TRIPOS>ATOM
      1 C         -11.4716  -17.1461   19.4442 C.3     1  UNL1        0.0203
      2 C         -10.8437  -17.7559   20.6624 C.3     1  UNL1        0.0888
      3 N          -9.4899  -18.3950   20.5682 N.3     1  UNL1       -0.2713
      4 C          -9.3020  -19.6362   19.7472 C.3     1  UNL1        0.0749
      5 C          -7.9482  -20.2753   19.6530 C.3     1  UNL1        0.0485
      6 C          -6.7824  -19.6732   20.3797 C.3     1  UNL1        0.1096
      7 O          -6.1082  -20.8469   19.7331 O.3     1  UNL1       -0.3826
      8 C          -6.9702  -18.4320   21.2008 C.3     1  UNL1        0.0485
      9 C          -8.3240  -17.7929   21.2950 C.3     1  UNL1        0.0749
     10 H          -6.7571  -21.3465   19.2133 H       1  UNL1        0.2107
     11 C          -5.3823  -19.4787   20.8820 C.ar    1  UNL1        0.0019
     12 C          -4.2164  -19.7680   19.9838 C.ar    1  UNL1        0.0003
     13 C          -2.8164  -19.5735   20.4859 C.ar    1  UNL1        0.0294
     14 C          -2.5824  -19.0897   21.8865 C.ar    1  UNL1        0.1401
     15 F          -1.1824  -18.8952   22.3886 F       1  UNL1       -0.2042
     16 C          -3.7484  -18.8004   22.7846 C.ar    1  UNL1        0.0294
     17 C          -5.1484  -18.9949   22.2824 C.ar    1  UNL1        0.0003
     18 C         -11.5695  -17.7267   21.9747 C.3     1  UNL1        0.1470
     19 O         -13.0676  -17.7969   22.0050 O.3     1  UNL1       -0.3787
     20 H         -13.3741  -17.7667   22.9247 H       1  UNL1        0.2108
     21 C         -10.7973  -17.6271   23.2569 C.2     1  UNL1        0.0047
     22 C         -10.7859  -18.7795   24.2169 C.2     1  UNL1       -0.0217
     23 C         -10.0137  -18.6799   25.4990 C.3     1  UNL1        0.0722
     24 C          -9.2530  -17.4279   25.8210 C.2     1  UNL1        0.0932
     25 N          -8.4077  -17.0419   26.9986 N.am    1  UNL1       -0.1431
     26 C          -7.8967  -15.6509   26.7663 C.2     1  UNL1        0.4298
     27 O          -7.0117  -14.8705   27.6925 O.2     1  UNL1       -0.2238
     28 O          -8.4262  -15.1772   25.4452 O.3     1  UNL1       -0.4079
     29 C          -9.2644  -16.2755   24.8610 C.2     1  UNL1        0.1614
     30 C         -10.0366  -16.3751   23.5789 C.2     1  UNL1        0.0365
@<TRIPOS>BOND
     1     1     2    1
     2     2    18    1
     3    18    19    1
     4    18    21    1
     5    21    22    2
     6    22    23    1
     7    23    24    1
     8    24    25    2
     9    25    26    1
    10    26    27    2
    11    26    28    1
    12    28    29    1
    13    29    30    2
    14     2     3    1
    15     3     4    1
    16     4     5    1
    17     5     6    1
    18     6     7    1
    19     6    11    1
    20    11    12   ar
    21    12    13   ar
    22    13    14   ar
    23    14    15    1
    24    14    16   ar
    25    16    17   ar
    26     6     8    1
    27     8     9    1
    28    30    21    1
    29     9     3    1
    30    29    24    1
    31    17    11   ar
    32    19    20    1
    33     7    10    1
@<TRIPOS>MOLECULE
*****
 30 33 0 0 0
SMALL
GASTEIGER

@<TRIPOS>ATOM
      1 C          -9.9466  -20.0349   19.0836 C.3     1  UNL1        0.0203
      2 C          -9.4944  -19.3951   20.3628 C.3     1  UNL1        0.0888
      3 N          -8.0453  -19.4316   20.7482 N.3     1  UNL1       -0.2713
      4 C          -7.6299  -20.0583   22.0461 C.3     1  UNL1        0.0749
      5 C          -6.1807  -20.0948   22.4316 C.3     1  UNL1        0.0485
      6 C          -5.1469  -19.5045   21.5191 C.3     1  UNL1        0.1096
      7 O          -4.2663  -19.9841   22.6347 O.3     1  UNL1       -0.3826
      8 C          -5.5622  -18.8777   20.2211 C.3     1  UNL1        0.0485
      9 C          -7.0114  -18.8412   19.8357 C.3     1  UNL1        0.0749
     10 H          -4.8112  -20.4014   23.3202 H       1  UNL1        0.2107
     11 C          -3.8072  -19.0807   20.9940 C.ar    1  UNL1        0.0019
     12 C          -3.5984  -18.9149   19.5179 C.ar    1  UNL1        0.0003
     13 C          -2.2588  -18.4912   18.9928 C.ar    1  UNL1        0.0294
     14 C          -1.1278  -18.2332   19.9439 C.ar    1  UNL1        0.1401
     15 F           0.2118  -17.8095   19.4188 F       1  UNL1       -0.2042
     16 C          -1.3366  -18.3990   21.4200 C.ar    1  UNL1        0.0294
     17 C          -2.6763  -18.8228   21.9451 C.ar    1  UNL1        0.0003
     18 C         -10.4914  -18.7189   21.2565 C.3     1  UNL1        0.1470
     19 O         -11.8463  -18.3531   20.7270 O.3     1  UNL1       -0.3787
     20 H         -12.3633  -17.9270   21.4285 H       1  UNL1        0.2108
     21 C         -10.1335  -18.4086   22.6798 C.2     1  UNL1        0.0047
     22 C         -10.4613  -19.3892   23.7665 C.2     1  UNL1       -0.0217
     23 C         -10.1034  -19.0788   25.1897 C.3     1  UNL1        0.0722
     24 C          -9.4177  -17.7878   25.5262 C.2     1  UNL1        0.0932
     25 N          -8.9459  -17.2116   26.8283 N.am    1  UNL1       -0.1431
     26 C          -8.3266  -15.8748   26.5463 C.2     1  UNL1        0.4298
     27 O          -7.7241  -14.9503   27.5623 O.2     1  UNL1       -0.2238
     28 O          -8.4156  -15.6250   25.0699 O.3     1  UNL1       -0.4079
     29 C          -9.0899  -16.8072   24.4395 C.2     1  UNL1        0.1614
     30 C          -9.4478  -17.1176   23.0163 C.2     1  UNL1        0.0365
@<TRIPOS>BOND
     1     1     2    1
     2     2    18    1
     3    18    19    1
     4    18    21    1
     5    21    22    2
     6    22    23    1
     7    23    24    1
     8    24    25    2
     9    25    26    1
    10    26    27    2
    11    26    28    1
    12    28    29    1
    13    29    30    2
    14     2     3    1
    15     3     4    1
    16     4     5    1
    17     5     6    1
    18     6     7    1
    19     6    11    1
    20    11    12   ar
    21    12    13   ar
    22    13    14   ar
    23    14    15    1
    24    14    16   ar
    25    16    17   ar
    26     6     8    1
    27     8     9    1
    28    30    21    1
    29     9     3    1
    30    29    24    1
    31    17    11   ar
    32    19    20    1
    33     7    10    1
@<TRIPOS>MOLECULE
*****
 30 33 0 0 0
SMALL
GASTEIGER

@<TRIPOS>ATOM
      1 C           7.4141   -2.1734   18.5801 C.3     1  UNL1        0.0203
      2 C           6.4846   -3.0401   19.3770 C.3     1  UNL1        0.0888
      3 N           6.9529   -3.6608   20.6598 N.3     1  UNL1       -0.2713
      4 C           8.2540   -4.4059   20.7013 C.3     1  UNL1        0.0749
      5 C           8.7223   -5.0266   21.9841 C.3     1  UNL1        0.0485
      6 C           7.8894   -4.9022   23.2253 C.3     1  UNL1        0.1096
      7 O           9.0401   -5.7003   23.7628 O.3     1  UNL1       -0.3826
      8 C           6.5881   -4.1570   23.1839 C.3     1  UNL1        0.0485
      9 C           6.1199   -3.5364   21.9011 C.3     1  UNL1        0.0749
     10 H           9.6801   -5.8636   23.0524 H       1  UNL1        0.2107
     11 C           7.4561   -5.0549   24.6533 C.ar    1  UNL1        0.0019
     12 C           7.0450   -3.8494   25.4454 C.ar    1  UNL1        0.0003
     13 C           6.6117   -4.0021   26.8733 C.ar    1  UNL1        0.0294
     14 C           6.5895   -5.3606   27.5091 C.ar    1  UNL1        0.1401
     15 F           6.1562   -5.5133   28.9370 F       1  UNL1       -0.2042
     16 C           7.0006   -6.5661   26.7170 C.ar    1  UNL1        0.0294
     17 C           7.4339   -6.4134   25.2890 C.ar    1  UNL1        0.0003
     18 C           5.0870   -3.2861   18.8912 C.3     1  UNL1        0.1470
     19 O           4.6676   -4.6666   18.4809 O.3     1  UNL1       -0.3787
     20 H           3.7409   -4.6514   18.1948 H       1  UNL1        0.2108
     21 C           4.1086   -2.1515   18.8156 C.2     1  UNL1        0.0047
     22 C           4.1385   -1.2121   17.6467 C.2     1  UNL1       -0.0217
     23 C           3.1601   -0.0776   17.5712 C.3     1  UNL1        0.0722
     24 C           2.1520    0.1174   18.6646 C.2     1  UNL1        0.0932
     25 N           1.0703    1.1379   18.8622 N.am    1  UNL1       -0.1431
     26 C           0.3721    0.8290   20.1533 C.2     1  UNL1        0.4298
     27 O          -0.7749    1.5966   20.7411 O.2     1  UNL1       -0.2238
     28 O           1.0221   -0.3823   20.7536 O.3     1  UNL1       -0.4079
     29 C           2.1221   -0.8221   19.8335 C.2     1  UNL1        0.1614
     30 C           3.1004   -1.9565   19.9090 C.2     1  UNL1        0.0365
@<TRIPOS>BOND
     1     1     2    1
     2     2    18    1
     3    18    19    1
     4    18    21    1
     5    21    22    2
     6    22    23    1
     7    23    24    1
     8    24    25    2
     9    25    26    1
    10    26    27    2
    11    26    28    1
    12    28    29    1
    13    29    30    2
    14     2     3    1
    15     3     4    1
    16     4     5    1
    17     5     6    1
    18     6     7    1
    19     6    11    1
    20    11    12   ar
    21    12    13   ar
    22    13    14   ar
    23    14    15    1
    24    14    16   ar
    25    16    17   ar
    26     6     8    1
    27     8     9    1
    28    30    21    1
    29     9     3    1
    30    29    24    1
    31    17    11   ar
    32    19    20    1
    33     7    10    1
@<TRIPOS>MOLECULE
*****
 30 33 0 0 0
SMALL
GASTEIGER

@<TRIPOS>ATOM
      1 C           3.3857   -4.9327   19.3460 C.3     1  UNL1        0.0203
      2 C           4.3500   -3.8157   19.6153 C.3     1  UNL1        0.0888
      3 N           5.1787   -3.8254   20.8656 N.3     1  UNL1       -0.2713
      4 C           6.6663   -3.9966   20.7780 C.3     1  UNL1        0.0749
      5 C           7.4950   -4.0064   22.0283 C.3     1  UNL1        0.0485
      6 C           6.8361   -3.8449   23.3661 C.3     1  UNL1        0.1096
      7 O           8.2676   -3.9758   23.7949 O.3     1  UNL1       -0.3826
      8 C           5.3484   -3.6737   23.4537 C.3     1  UNL1        0.0485
      9 C           4.5197   -3.6640   22.2034 C.3     1  UNL1        0.0749
     10 H           8.8302   -4.0899   23.0130 H       1  UNL1        0.2107
     11 C           6.6744   -3.7289   24.8529 C.ar    1  UNL1        0.0019
     12 C           6.9223   -4.9205   25.7295 C.ar    1  UNL1        0.0003
     13 C           6.7605   -4.8046   27.2162 C.ar    1  UNL1        0.0294
     14 C           6.3508   -3.4969   27.8263 C.ar    1  UNL1        0.1401
     15 F           6.1891   -3.3810   29.3130 F       1  UNL1       -0.2042
     16 C           6.1029   -2.3053   26.9497 C.ar    1  UNL1        0.0294
     17 C           6.2646   -2.4213   25.4629 C.ar    1  UNL1        0.0003
     18 C           4.4855   -2.6890   18.6344 C.3     1  UNL1        0.1470
     19 O           5.4659   -2.7927   17.5039 O.3     1  UNL1       -0.3787
     20 H           5.4276   -1.9854   16.9676 H       1  UNL1        0.2108
     21 C           3.6407   -1.4586   18.7840 C.2     1  UNL1        0.0047
     22 C           3.9513   -0.2329   17.9772 C.2     1  UNL1       -0.0217
     23 C           3.1065    0.9975   18.1268 C.3     1  UNL1        0.0722
     24 C           1.9510    1.0021   19.0833 C.2     1  UNL1        0.0932
     25 N           0.9487    2.0591   19.4413 N.am    1  UNL1       -0.1431
     26 C           0.0186    1.4866   20.4695 C.2     1  UNL1        0.4298
     27 O          -1.1363    2.1997   21.1082 O.2     1  UNL1       -0.2238
     28 O           0.4461    0.0758   20.7469 O.3     1  UNL1       -0.4079
     29 C           1.6404   -0.2236   19.8902 C.2     1  UNL1        0.1614
     30 C           2.4852   -1.4539   19.7406 C.2     1  UNL1        0.0365
@<TRIPOS>BOND
     1     1     2    1
     2     2    18    1
     3    18    19    1
     4    18    21    1
     5    21    22    2
     6    22    23    1
     7    23    24    1
     8    24    25    2
     9    25    26    1
    10    26    27    2
    11    26    28    1
    12    28    29    1
    13    29    30    2
    14     2     3    1
    15     3     4    1
    16     4     5    1
    17     5     6    1
    18     6     7    1
    19     6    11    1
    20    11    12   ar
    21    12    13   ar
    22    13    14   ar
    23    14    15    1
    24    14    16   ar
    25    16    17   ar
    26     6     8    1
    27     8     9    1
    28    30    21    1
    29     9     3    1
    30    29    24    1
    31    17    11   ar
    32    19    20    1
    33     7    10    1
@<TRIPOS>MOLECULE
*****
 30 33 0 0 0
SMALL
GASTEIGER

@<TRIPOS>ATOM
      1 C          -8.6383  -20.3728   23.2882 C.3     1  UNL1        0.0203
      2 C          -8.1639  -19.3229   22.3276 C.3     1  UNL1        0.0888
      3 N          -6.8316  -19.4693   21.6543 N.3     1  UNL1       -0.2713
      4 C          -6.5800  -20.6258   20.7328 C.3     1  UNL1        0.0749
      5 C          -5.2476  -20.7722   20.0596 C.3     1  UNL1        0.0485
      6 C          -4.1668  -19.7622   20.3078 C.3     1  UNL1        0.1096
      7 O          -3.4538  -20.6784   19.3579 O.3     1  UNL1       -0.3826
      8 C          -4.4184  -18.6056   21.2293 C.3     1  UNL1        0.0485
      9 C          -5.7507  -18.4592   21.9026 C.3     1  UNL1        0.0749
     10 H          -4.0459  -21.4028   19.1016 H       1  UNL1        0.2107
     11 C          -2.8384  -19.0703   20.2261 C.ar    1  UNL1        0.0019
     12 C          -1.9553  -18.9969   21.4363 C.ar    1  UNL1        0.0003
     13 C          -0.6269  -18.3051   21.3547 C.ar    1  UNL1        0.0294
     14 C          -0.1816  -17.6865   20.0627 C.ar    1  UNL1        0.1401
     15 F           1.1468  -16.9947   19.9811 F       1  UNL1       -0.2042
     16 C          -1.0646  -17.7599   18.8525 C.ar    1  UNL1        0.0294
     17 C          -2.3931  -18.4518   18.9341 C.ar    1  UNL1        0.0003
     18 C          -9.0219  -18.1265   22.0404 C.3     1  UNL1        0.1470
     19 O          -8.4540  -16.9593   21.2886 O.3     1  UNL1       -0.3787
     20 H          -9.1356  -16.2764   21.1889 H       1  UNL1        0.2108
     21 C         -10.4480  -18.0973   22.5049 C.2     1  UNL1        0.0047
     22 C         -11.5341  -17.6646   21.5653 C.2     1  UNL1       -0.0217
     23 C         -12.9600  -17.6354   22.0299 C.3     1  UNL1        0.0722
     24 C         -13.2998  -18.0389   23.4341 C.2     1  UNL1        0.0932
     25 N         -14.6050  -18.1107   24.1699 N.am    1  UNL1       -0.1431
     26 C         -14.3254  -18.5878   25.5642 C.2     1  UNL1        0.4298
     27 O         -15.3449  -18.8039   26.6432 O.2     1  UNL1       -0.2238
     28 O         -12.8475  -18.8108   25.6902 O.3     1  UNL1       -0.4079
     29 C         -12.2136  -18.4716   24.3737 C.2     1  UNL1        0.1614
     30 C         -10.7877  -18.5008   23.9091 C.2     1  UNL1        0.0365
@<TRIPOS>BOND
     1     1     2    1
     2     2    18    1
     3    18    19    1
     4    18    21    1
     5    21    22    2
     6    22    23    1
     7    23    24    1
     8    24    25    2
     9    25    26    1
    10    26    27    2
    11    26    28    1
    12    28    29    1
    13    29    30    2
    14     2     3    1
    15     3     4    1
    16     4     5    1
    17     5     6    1
    18     6     7    1
    19     6    11    1
    20    11    12   ar
    21    12    13   ar
    22    13    14   ar
    23    14    15    1
    24    14    16   ar
    25    16    17   ar
    26     6     8    1
    27     8     9    1
    28    30    21    1
    29     9     3    1
    30    29    24    1
    31    17    11   ar
    32    19    20    1
    33     7    10    1
@<TRIPOS>MOLECULE
*****
 30 33 0 0 0
SMALL
GASTEIGER

@<TRIPOS>ATOM
      1 C           9.1685   -2.5022   21.8656 C.3     1  UNL1        0.0203
      2 C           8.2229   -3.6051   21.4919 C.3     1  UNL1        0.0888
      3 N           6.9277   -3.2827   20.8075 N.3     1  UNL1       -0.2713
      4 C           6.2496   -4.3175   19.9594 C.3     1  UNL1        0.0749
      5 C           4.9544   -3.9951   19.2750 C.3     1  UNL1        0.0485
      6 C           4.3372   -2.6378   19.4386 C.3     1  UNL1        0.1096
      7 O           3.3224   -3.2786   18.5389 O.3     1  UNL1       -0.3826
      8 C           5.0153   -1.6028   20.2867 C.3     1  UNL1        0.0485
      9 C           6.3105   -1.9253   20.9711 C.3     1  UNL1        0.0749
     10 H           3.5948   -4.1882   18.3403 H       1  UNL1        0.2107
     11 C           3.3676   -1.5030   19.2898 C.ar    1  UNL1        0.0019
     12 C           2.1466   -1.4409   20.1587 C.ar    1  UNL1        0.0003
     13 C           1.1769   -0.3062   20.0100 C.ar    1  UNL1        0.0294
     14 C           1.4284    0.7666   18.9921 C.ar    1  UNL1        0.1401
     15 F           0.4588    1.9013   18.8433 F       1  UNL1       -0.2042
     16 C           2.6495    0.7045   18.1231 C.ar    1  UNL1        0.0294
     17 C           3.6191   -0.4303   18.2720 C.ar    1  UNL1        0.0003
     18 C           8.5726   -5.0303   21.8025 C.3     1  UNL1        0.1470
     19 O           9.1786   -5.9019   20.7428 O.3     1  UNL1       -0.3787
     20 H           9.3421   -6.7863   21.1061 H       1  UNL1        0.2108
     21 C           8.3162   -5.5839   23.1729 C.2     1  UNL1        0.0047
     22 C           8.6401   -7.0169   23.4755 C.2     1  UNL1       -0.0217
     23 C           8.3837   -7.5704   24.8458 C.3     1  UNL1        0.0722
     24 C           7.8034   -6.6910   25.9135 C.2     1  UNL1        0.0932
     25 N           7.4440   -6.9549   27.3458 N.am    1  UNL1       -0.1431
     26 C           6.8980   -5.6851   27.9282 C.2     1  UNL1        0.4298
     27 O           6.4149   -5.4969   29.3358 O.2     1  UNL1       -0.2238
     28 O           6.9199   -4.6363   26.8560 O.3     1  UNL1       -0.4079
     29 C           7.4794   -5.2580   25.6108 C.2     1  UNL1        0.1614
     30 C           7.7358   -4.7045   24.2405 C.2     1  UNL1        0.0365
@<TRIPOS>BOND
     1     1     2    1
     2     2    18    1
     3    18    19    1
     4    18    21    1
     5    21    22    2
     6    22    23    1
     7    23    24    1
     8    24    25    2
     9    25    26    1
    10    26    27    2
    11    26    28    1
    12    28    29    1
    13    29    30    2
    14     2     3    1
    15     3     4    1
    16     4     5    1
    17     5     6    1
    18     6     7    1
    19     6    11    1
    20    11    12   ar
    21    12    13   ar
    22    13    14   ar
    23    14    15    1
    24    14    16   ar
    25    16    17   ar
    26     6     8    1
    27     8     9    1
    28    30    21    1
    29     9     3    1
    30    29    24    1
    31    17    11   ar
    32    19    20    1
    33     7    10    1
@<TRIPOS>MOLECULE
*****
 30 33 0 0 0
SMALL
GASTEIGER

@<TRIPOS>ATOM
      1 C          -6.8755  -15.1742   25.8195 C.3     1  UNL1        0.0203
      2 C          -7.2629  -16.3975   25.0425 C.3     1  UNL1        0.0888
      3 N          -6.3232  -16.9658   24.0208 N.3     1  UNL1       -0.2713
      4 C          -6.7488  -18.1296   23.1756 C.3     1  UNL1        0.0749
      5 C          -5.8090  -18.6979   22.1539 C.3     1  UNL1        0.0485
      6 C          -4.4437  -18.1023   21.9773 C.3     1  UNL1        0.1096
      7 O          -4.3885  -19.1906   20.9464 O.3     1  UNL1       -0.3826
      8 C          -4.0181  -16.9384   22.8224 C.3     1  UNL1        0.0485
      9 C          -4.9578  -16.3701   23.8442 C.3     1  UNL1        0.0749
     10 H          -5.2278  -19.6770   20.9444 H       1  UNL1        0.2107
     11 C          -3.0592  -17.8847   21.4427 C.ar    1  UNL1        0.0019
     12 C          -2.3910  -16.5524   21.6111 C.ar    1  UNL1        0.0003
     13 C          -1.0066  -16.3347   21.0765 C.ar    1  UNL1        0.0294
     14 C          -0.2902  -17.4495   20.3735 C.ar    1  UNL1        0.1401
     15 F           1.0943  -17.2318   19.8389 F       1  UNL1       -0.2042
     16 C          -0.9584  -18.7818   20.2051 C.ar    1  UNL1        0.0294
     17 C          -2.3429  -18.9995   20.7397 C.ar    1  UNL1        0.0003
     18 C          -8.5900  -17.0524   25.2873 C.3     1  UNL1        0.1470
     19 O          -8.8924  -17.6569   26.6264 O.3     1  UNL1       -0.3787
     20 H          -9.7854  -18.0355   26.6160 H       1  UNL1        0.2108
     21 C          -9.6147  -17.1029   24.1930 C.2     1  UNL1        0.0047
     22 C         -10.7694  -18.0553   24.2901 C.2     1  UNL1       -0.0217
     23 C         -11.7941  -18.1057   23.1959 C.3     1  UNL1        0.0722
     24 C         -11.6640  -17.2037   22.0044 C.2     1  UNL1        0.0932
     25 N         -12.5121  -17.0304   20.7793 N.am    1  UNL1       -0.1431
     26 C         -11.8815  -15.9710   19.9251 C.2     1  UNL1        0.4298
     27 O         -12.3980  -15.4793   18.6054 O.2     1  UNL1       -0.2238
     28 O         -10.6437  -15.4894   20.6222 O.3     1  UNL1       -0.4079
     29 C         -10.5093  -16.2513   21.9073 C.2     1  UNL1        0.1614
     30 C          -9.4846  -16.2009   23.0016 C.2     1  UNL1        0.0365
@<TRIPOS>BOND
     1     1     2    1
     2     2    18    1
     3    18    19    1
     4    18    21    1
     5    21    22    2
     6    22    23    1
     7    23    24    1
     8    24    25    2
     9    25    26    1
    10    26    27    2
    11    26    28    1
    12    28    29    1
    13    29    30    2
    14     2     3    1
    15     3     4    1
    16     4     5    1
    17     5     6    1
    18     6     7    1
    19     6    11    1
    20    11    12   ar
    21    12    13   ar
    22    13    14   ar
    23    14    15    1
    24    14    16   ar
    25    16    17   ar
    26     6     8    1
    27     8     9    1
    28    30    21    1
    29     9     3    1
    30    29    24    1
    31    17    11   ar
    32    19    20    1
    33     7    10    1
@<TRIPOS>MOLECULE
*****
 30 33 0 0 0
SMALL
GASTEIGER

@<TRIPOS>ATOM
      1 C           6.3648    0.4754   16.8607 C.3     1  UNL1        0.0203
      2 C           5.5708   -0.4278   17.7574 C.3     1  UNL1        0.0888
      3 N           6.2107   -1.0279   18.9741 N.3     1  UNL1       -0.2713
      4 C           6.7900   -0.1377   20.0332 C.3     1  UNL1        0.0749
      5 C           7.4298   -0.7378   21.2499 C.3     1  UNL1        0.0485
      6 C           7.4905   -2.2282   21.4075 C.3     1  UNL1        0.1096
      7 O           8.1731   -1.8044   22.6742 O.3     1  UNL1       -0.3826
      8 C           6.9112   -3.1186   20.3483 C.3     1  UNL1        0.0485
      9 C           6.2713   -2.5185   19.1316 C.3     1  UNL1        0.0749
     10 H           8.2094   -0.8359   22.7135 H       1  UNL1        0.2107
     11 C           7.7882   -3.5715   22.0050 C.ar    1  UNL1        0.0019
     12 C           8.6169   -4.5637   21.2443 C.ar    1  UNL1        0.0003
     13 C           8.9147   -5.9070   21.8417 C.ar    1  UNL1        0.0294
     14 C           8.3835   -6.2581   23.2000 C.ar    1  UNL1        0.1401
     15 F           8.6812   -7.6014   23.7974 F       1  UNL1       -0.2042
     16 C           7.5547   -5.2659   23.9606 C.ar    1  UNL1        0.0294
     17 C           7.2570   -3.9226   23.3631 C.ar    1  UNL1        0.0003
     18 C           4.1371   -0.7308   17.4373 C.3     1  UNL1        0.1470
     19 O           3.7847   -1.4172   16.1509 O.3     1  UNL1       -0.3787
     20 H           2.8234   -1.5369   16.1011 H       1  UNL1        0.2108
     21 C           3.0557   -0.3475   18.4036 C.2     1  UNL1        0.0047
     22 C           2.7516   -1.2302   19.5777 C.2     1  UNL1       -0.0217
     23 C           1.6702   -0.8468   20.5439 C.3     1  UNL1        0.0722
     24 C           0.8929    0.4191   20.3360 C.2     1  UNL1        0.0932
     25 N          -0.2217    1.0519   21.1153 N.am    1  UNL1       -0.1431
     26 C          -0.6065    2.3256   20.4228 C.2     1  UNL1        0.4298
     27 O          -1.6797    3.2778   20.8607 O.2     1  UNL1       -0.2238
     28 O           0.2703    2.4800   19.2156 O.3     1  UNL1       -0.4079
     29 C           1.1969    1.3017   19.1619 C.2     1  UNL1        0.1614
     30 C           2.2783    0.9184   18.1957 C.2     1  UNL1        0.0365
@<TRIPOS>BOND
     1     1     2    1
     2     2    18    1
     3    18    19    1
     4    18    21    1
     5    21    22    2
     6    22    23    1
     7    23    24    1
     8    24    25    2
     9    25    26    1
    10    26    27    2
    11    26    28    1
    12    28    29    1
    13    29    30    2
    14     2     3    1
    15     3     4    1
    16     4     5    1
    17     5     6    1
    18     6     7    1
    19     6    11    1
    20    11    12   ar
    21    12    13   ar
    22    13    14   ar
    23    14    15    1
    24    14    16   ar
    25    16    17   ar
    26     6     8    1
    27     8     9    1
    28    30    21    1
    29     9     3    1
    30    29    24    1
    31    17    11   ar
    32    19    20    1
    33     7    10    1
