@<TRIPOS>MOLECULE
*****
 30 32 0 0 0
SMALL
GASTEIGER

@<TRIPOS>ATOM
      1 C          -9.2129  -19.9608   23.6420 C.3     1  UNL1        0.1152
      2 N          -8.7919  -18.5965   23.1824 N.am    1  UNL1       -0.2743
      3 C          -7.8596  -18.4525   22.0161 C.2     1  UNL1        0.2264
      4 O          -7.4386  -17.0881   21.5565 O.2     1  UNL1       -0.2748
      5 C          -7.3483  -19.6728   21.3095 C.3     1  UNL1        0.0948
      6 C          -5.9379  -20.1324   21.5315 C.3     1  UNL1        0.0950
      7 C          -4.7948  -19.3509   20.9547 C.2     1  UNL1        0.2280
      8 O          -4.9754  -18.5936   19.6726 O.2     1  UNL1       -0.2747
      9 N          -3.4712  -19.3268   21.6599 N.am    1  UNL1       -0.2641
     10 H          -3.3527  -19.8239   22.5014 H       1  UNL1        0.1567
     11 C          -2.3282  -18.5454   21.0830 C.ar    1  UNL1        0.1656
     12 N          -1.1885  -19.1081   20.2864 N.ar    1  UNL1       -0.2224
     13 C          -0.2801  -17.9744   19.9125 C.ar    1  UNL1        0.1079
     14 C          -0.8583  -16.7112   20.4780 C.ar    1  UNL1        0.0588
     15 S          -2.1241  -17.0640   21.2014 S.2     1  UNL1       -0.0508
     16 C          -9.3031  -17.3761   23.8890 C.3     1  UNL1        0.1138
     17 C          -8.4633  -16.7101   24.9384 C.ar    1  UNL1       -0.0029
     18 C          -8.8160  -16.8610   26.3885 C.ar    1  UNL1       -0.0026
     19 C          -7.9762  -16.1950   27.4378 C.ar    1  UNL1       -0.0003
     20 C          -6.7837  -15.3780   27.0370 C.ar    1  UNL1       -0.0000
     21 C          -6.4311  -15.2271   25.5869 C.ar    1  UNL1       -0.0003
     22 C          -7.2709  -15.8931   24.5376 C.ar    1  UNL1       -0.0026
     23 C         -10.6541  -16.8217   23.5462 C.3     1  UNL1        0.0968
     24 N         -11.0271  -16.5879   22.1122 N.3     1  UNL1       -0.2689
     25 C         -12.1028  -17.3063   21.3527 C.3     1  UNL1        0.0748
     26 C         -12.1304  -16.7571   19.9571 C.3     1  UNL1        0.0480
     27 C         -11.0718  -15.6993   19.8542 C.3     1  UNL1        0.1278
     28 O         -10.7514  -14.8884   18.6337 O.3     1  UNL1       -0.3830
     29 C         -10.3900  -15.5948   21.1861 C.3     1  UNL1        0.1017
     30 H         -11.3381  -15.1516   17.9075 H       1  UNL1        0.2104
@<TRIPOS>BOND
     1     1     2    1
     2     2     3   am
     3     3     4    2
     4     3     5    1
     5     5     6    1
     6     6     7    1
     7     7     8    2
     8     7     9   am
     9     9    11    1
    10    11    12   ar
    11    12    13   ar
    12    13    14   ar
    13    14    15   ar
    14     2    16    1
    15    16    23    1
    16    23    24    1
    17    24    25    1
    18    25    26    1
    19    26    27    1
    20    27    28    1
    21    27    29    1
    22    16    17    1
    23    17    18   ar
    24    18    19   ar
    25    19    20   ar
    26    20    21   ar
    27    21    22   ar
    28    15    11   ar
    29    29    24    1
    30    22    17   ar
    31     9    10    1
    32    28    30    1
@<TRIPOS>MOLECULE
*****
 30 32 0 0 0
SMALL
GASTEIGER

@<TRIPOS>ATOM
      1 C          -9.1291  -19.5130   23.8237 C.3     1  UNL1        0.1152
      2 N          -8.7172  -18.1978   23.2317 N.am    1  UNL1       -0.2743
      3 C          -8.0344  -18.1571   21.8967 C.2     1  UNL1        0.2264
      4 O          -7.6224  -16.8419   21.3047 O.2     1  UNL1       -0.2748
      5 C          -7.7635  -19.4317   21.1537 C.3     1  UNL1        0.0948
      6 C          -6.7697  -19.4483   20.0303 C.3     1  UNL1        0.0950
      7 C          -5.3153  -19.2131   20.3120 C.2     1  UNL1        0.2280
      8 O          -4.6926  -19.7716   21.5571 O.2     1  UNL1       -0.2747
      9 N          -4.4836  -18.4194   19.3486 N.am    1  UNL1       -0.2641
     10 H          -4.8923  -18.0528   18.5314 H       1  UNL1        0.1567
     11 C          -3.0292  -18.1841   19.6303 C.ar    1  UNL1        0.1656
     12 N          -1.9036  -18.3504   18.6528 N.ar    1  UNL1       -0.2224
     13 C          -0.6238  -18.0103   19.3574 C.ar    1  UNL1        0.1079
     14 C          -0.9583  -17.6339   20.7703 C.ar    1  UNL1        0.0588
     15 S          -2.4449  -17.7413   20.9390 S.2     1  UNL1       -0.0508
     16 C          -8.9880  -16.9232   23.9747 C.3     1  UNL1        0.1138
     17 C          -7.9426  -16.3486   24.8842 C.ar    1  UNL1       -0.0029
     18 C          -6.6182  -15.9183   24.3269 C.ar    1  UNL1       -0.0026
     19 C          -5.5729  -15.3437   25.2364 C.ar    1  UNL1       -0.0003
     20 C          -5.8520  -15.1995   26.7031 C.ar    1  UNL1       -0.0000
     21 C          -7.1765  -15.6298   27.2604 C.ar    1  UNL1       -0.0003
     22 C          -8.2218  -16.2044   26.3509 C.ar    1  UNL1       -0.0026
     23 C         -10.3041  -16.2232   23.8083 C.3     1  UNL1        0.0968
     24 N         -11.1559  -16.5034   22.6057 N.3     1  UNL1       -0.2689
     25 C         -12.2312  -17.5448   22.5103 C.3     1  UNL1        0.0748
     26 C         -12.8218  -17.4764   21.1330 C.3     1  UNL1        0.0480
     27 C         -12.1113  -16.3927   20.3773 C.3     1  UNL1        0.1278
     28 O         -12.3827  -15.9825   18.9604 O.3     1  UNL1       -0.3830
     29 C         -11.0817  -15.7914   21.2875 C.3     1  UNL1        0.1017
     30 H         -13.0968  -16.5289   18.5967 H       1  UNL1        0.2104
@<TRIPOS>BOND
     1     1     2    1
     2     2     3   am
     3     3     4    2
     4     3     5    1
     5     5     6    1
     6     6     7    1
     7     7     8    2
     8     7     9   am
     9     9    11    1
    10    11    12   ar
    11    12    13   ar
    12    13    14   ar
    13    14    15   ar
    14     2    16    1
    15    16    23    1
    16    23    24    1
    17    24    25    1
    18    25    26    1
    19    26    27    1
    20    27    28    1
    21    27    29    1
    22    16    17    1
    23    17    18   ar
    24    18    19   ar
    25    19    20   ar
    26    20    21   ar
    27    21    22   ar
    28    15    11   ar
    29    29    24    1
    30    22    17   ar
    31     9    10    1
    32    28    30    1
@<TRIPOS>MOLECULE
*****
 30 32 0 0 0
SMALL
GASTEIGER

@<TRIPOS>ATOM
      1 C          -9.0338  -20.4048   23.7931 C.3     1  UNL1        0.1152
      2 N          -8.6740  -19.1538   23.0479 N.am    1  UNL1       -0.2743
      3 C          -7.5710  -19.1771   22.0316 C.2     1  UNL1        0.2264
      4 O          -7.2112  -17.9260   21.2865 O.2     1  UNL1       -0.2748
      5 C          -6.8277  -20.4515   21.7606 C.3     1  UNL1        0.0948
      6 C          -6.0860  -20.6269   20.4687 C.3     1  UNL1        0.0950
      7 C          -4.6846  -20.1099   20.3323 C.2     1  UNL1        0.2280
      8 O          -3.5316  -21.0687   20.2969 O.2     1  UNL1       -0.2747
      9 N          -4.4361  -18.6341   20.2312 N.am    1  UNL1       -0.2641
     10 H          -5.1928  -18.0048   20.2544 H       1  UNL1        0.1567
     11 C          -3.0346  -18.1171   20.0948 C.ar    1  UNL1        0.1656
     12 N          -2.2257  -17.4661   21.1775 N.ar    1  UNL1       -0.2224
     13 C          -0.8871  -17.1070   20.6035 C.ar    1  UNL1        0.1079
     14 C          -0.8688  -17.5360   19.1663 C.ar    1  UNL1        0.0588
     15 S          -2.1960  -18.1602   18.8519 S.2     1  UNL1       -0.0508
     16 C          -9.4173  -17.8793   23.3190 C.3     1  UNL1        0.1138
     17 C         -10.4883  -17.4203   22.3743 C.ar    1  UNL1       -0.0029
     18 C         -11.8409  -18.0680   22.4023 C.ar    1  UNL1       -0.0026
     19 C         -12.9119  -17.6089   21.4577 C.ar    1  UNL1       -0.0003
     20 C         -12.6302  -16.5022   20.4851 C.ar    1  UNL1       -0.0000
     21 C         -11.2775  -15.8545   20.4572 C.ar    1  UNL1       -0.0003
     22 C         -10.2066  -16.3136   21.4018 C.ar    1  UNL1       -0.0026
     23 C          -9.0895  -17.0640   24.5345 C.3     1  UNL1        0.0968
     24 N          -7.7971  -16.3055   24.6029 N.3     1  UNL1       -0.2689
     25 C          -7.0803  -15.8962   25.8553 C.3     1  UNL1        0.0748
     26 C          -5.8348  -15.1610   25.4573 C.3     1  UNL1        0.0480
     27 C          -5.7820  -15.1160   23.9588 C.3     1  UNL1        0.1278
     28 O          -4.7054  -14.4761   23.1334 O.3     1  UNL1       -0.3830
     29 C          -6.9947  -15.8234   23.4308 C.3     1  UNL1        0.1017
     30 H          -4.0363  -14.0885   23.7191 H       1  UNL1        0.2104
@<TRIPOS>BOND
     1     1     2    1
     2     2     3   am
     3     3     4    2
     4     3     5    1
     5     5     6    1
     6     6     7    1
     7     7     8    2
     8     7     9   am
     9     9    11    1
    10    11    12   ar
    11    12    13   ar
    12    13    14   ar
    13    14    15   ar
    14     2    16    1
    15    16    23    1
    16    23    24    1
    17    24    25    1
    18    25    26    1
    19    26    27    1
    20    27    28    1
    21    27    29    1
    22    16    17    1
    23    17    18   ar
    24    18    19   ar
    25    19    20   ar
    26    20    21   ar
    27    21    22   ar
    28    15    11   ar
    29    29    24    1
    30    22    17   ar
    31     9    10    1
    32    28    30    1
@<TRIPOS>MOLECULE
*****
 30 32 0 0 0
SMALL
GASTEIGER

@<TRIPOS>ATOM
      1 C          -8.5489  -19.9005   23.1280 C.3     1  UNL1        0.1152
      2 N          -7.9482  -18.8106   22.2907 N.am    1  UNL1       -0.2743
      3 C          -7.0411  -19.1568   21.1472 C.2     1  UNL1        0.2264
      4 O          -6.4403  -18.0670   20.3099 O.2     1  UNL1       -0.2748
      5 C          -6.7349  -20.5930   20.8412 C.3     1  UNL1        0.0948
      6 C          -5.3663  -20.9836   20.3675 C.3     1  UNL1        0.0950
      7 C          -4.1897  -20.1022   20.6653 C.2     1  UNL1        0.2280
      8 O          -3.7395  -19.9056   22.0825 O.2     1  UNL1       -0.2747
      9 N          -3.4632  -19.4174   19.5458 N.am    1  UNL1       -0.2641
     10 H          -3.7587  -19.5464   18.6156 H       1  UNL1        0.1567
     11 C          -2.2866  -18.5360   19.8436 C.ar    1  UNL1        0.1656
     12 N          -0.8442  -18.8894   19.6317 N.ar    1  UNL1       -0.2224
     13 C          -0.0119  -17.7182   20.0627 C.ar    1  UNL1        0.1079
     14 C          -0.9398  -16.6411   20.5409 C.ar    1  UNL1        0.0588
     15 S          -2.3456  -17.1465   20.4055 S.2     1  UNL1       -0.0508
     16 C          -8.2544  -17.3744   22.5968 C.3     1  UNL1        0.1138
     17 C          -7.4901  -16.6567   23.6696 C.ar    1  UNL1       -0.0029
     18 C          -8.1940  -16.1955   24.9112 C.ar    1  UNL1       -0.0026
     19 C          -7.4297  -15.4779   25.9839 C.ar    1  UNL1       -0.0003
     20 C          -5.9614  -15.2215   25.8150 C.ar    1  UNL1       -0.0000
     21 C          -5.2575  -15.6827   24.5734 C.ar    1  UNL1       -0.0003
     22 C          -6.0218  -16.4004   23.5007 C.ar    1  UNL1       -0.0026
     23 C          -9.3248  -16.6559   21.8301 C.3     1  UNL1        0.0968
     24 N         -10.7612  -17.0564   21.9929 N.3     1  UNL1       -0.2689
     25 C         -11.7551  -17.2443   20.8853 C.3     1  UNL1        0.0748
     26 C         -13.0641  -17.6433   21.4998 C.3     1  UNL1        0.0480
     27 C         -12.8791  -17.7020   22.9872 C.3     1  UNL1        0.1278
     28 O         -13.9323  -18.0605   23.9932 O.3     1  UNL1       -0.3830
     29 C         -11.4558  -17.3393   23.2920 C.3     1  UNL1        0.1017
     30 H         -14.7653  -18.2523   23.5347 H       1  UNL1        0.2104
@<TRIPOS>BOND
     1     1     2    1
     2     2     3   am
     3     3     4    2
     4     3     5    1
     5     5     6    1
     6     6     7    1
     7     7     8    2
     8     7     9   am
     9     9    11    1
    10    11    12   ar
    11    12    13   ar
    12    13    14   ar
    13    14    15   ar
    14     2    16    1
    15    16    23    1
    16    23    24    1
    17    24    25    1
    18    25    26    1
    19    26    27    1
    20    27    28    1
    21    27    29    1
    22    16    17    1
    23    17    18   ar
    24    18    19   ar
    25    19    20   ar
    26    20    21   ar
    27    21    22   ar
    28    15    11   ar
    29    29    24    1
    30    22    17   ar
    31     9    10    1
    32    28    30    1
@<TRIPOS>MOLECULE
*****
 30 32 0 0 0
SMALL
GASTEIGER

@<TRIPOS>ATOM
      1 C          -8.7312  -20.3450   23.3732 C.3     1  UNL1        0.1152
      2 N          -8.3902  -19.1919   22.4764 N.am    1  UNL1       -0.2743
      3 C          -7.2870  -19.3260   21.4688 C.2     1  UNL1        0.2264
      4 O          -6.9461  -18.1730   20.5721 O.2     1  UNL1       -0.2748
      5 C          -6.5248  -20.6132   21.3581 C.3     1  UNL1        0.0948
      6 C          -5.3484  -20.7110   20.4328 C.3     1  UNL1        0.0950
      7 C          -4.1153  -19.8993   20.6989 C.2     1  UNL1        0.2280
      8 O          -3.6516  -19.6800   22.1084 O.2     1  UNL1       -0.2747
      9 N          -3.3460  -19.3071   19.5555 N.am    1  UNL1       -0.2641
     10 H          -3.6504  -19.4511   18.6304 H       1  UNL1        0.1567
     11 C          -2.1130  -18.4954   19.8216 C.ar    1  UNL1        0.1656
     12 N          -0.6974  -18.9767   19.7001 N.ar    1  UNL1       -0.2224
     13 C           0.2114  -17.8387   20.0594 C.ar    1  UNL1        0.1079
     14 C          -0.6424  -16.6542   20.4029 C.ar    1  UNL1        0.0588
     15 S          -2.0789  -17.0601   20.2559 S.2     1  UNL1       -0.0508
     16 C          -9.1524  -17.9048   22.5871 C.3     1  UNL1        0.1138
     17 C         -10.6506  -17.9241   22.6594 C.ar    1  UNL1       -0.0029
     18 C         -11.3349  -18.2443   23.9552 C.ar    1  UNL1       -0.0026
     19 C         -12.8330  -18.2636   24.0274 C.ar    1  UNL1       -0.0003
     20 C         -13.6468  -17.9629   22.8038 C.ar    1  UNL1       -0.0000
     21 C         -12.9626  -17.6427   21.5080 C.ar    1  UNL1       -0.0003
     22 C         -11.4645  -17.6234   21.4357 C.ar    1  UNL1       -0.0026
     23 C          -8.4166  -16.5983   22.6255 C.3     1  UNL1        0.0968
     24 N          -7.8703  -16.0831   23.9241 N.3     1  UNL1       -0.2689
     25 C          -8.5329  -16.1940   25.2652 C.3     1  UNL1        0.0748
     26 C          -7.6376  -15.5460   26.2795 C.3     1  UNL1        0.0480
     27 C          -6.4218  -15.0346   25.5651 C.3     1  UNL1        0.1278
     28 O          -5.2653  -14.3172   26.1957 O.3     1  UNL1       -0.3830
     29 C          -6.5656  -15.3665   24.1094 C.3     1  UNL1        0.1017
     30 H          -5.4199  -14.2302   27.1494 H       1  UNL1        0.2104
@<TRIPOS>BOND
     1     1     2    1
     2     2     3   am
     3     3     4    2
     4     3     5    1
     5     5     6    1
     6     6     7    1
     7     7     8    2
     8     7     9   am
     9     9    11    1
    10    11    12   ar
    11    12    13   ar
    12    13    14   ar
    13    14    15   ar
    14     2    16    1
    15    16    23    1
    16    23    24    1
    17    24    25    1
    18    25    26    1
    19    26    27    1
    20    27    28    1
    21    27    29    1
    22    16    17    1
    23    17    18   ar
    24    18    19   ar
    25    19    20   ar
    26    20    21   ar
    27    21    22   ar
    28    15    11   ar
    29    29    24    1
    30    22    17   ar
    31     9    10    1
    32    28    30    1
@<TRIPOS>MOLECULE
*****
 30 32 0 0 0
SMALL
GASTEIGER

@<TRIPOS>ATOM
      1 C          -8.8439  -17.0825   25.7537 C.3     1  UNL1        0.1152
      2 N          -8.7600  -17.1447   24.2574 N.am    1  UNL1       -0.2743
      3 C          -7.9826  -16.1050   23.5059 C.2     1  UNL1        0.2264
      4 O          -7.8987  -16.1672   22.0096 O.2     1  UNL1       -0.2748
      5 C          -7.2891  -15.0030   24.2508 C.3     1  UNL1        0.0948
      6 C          -5.8487  -15.1526   24.6415 C.3     1  UNL1        0.0950
      7 C          -4.8168  -15.4625   23.5978 C.2     1  UNL1        0.2280
      8 O          -4.4192  -14.4138   22.6017 O.2     1  UNL1       -0.2747
      9 N          -4.1826  -16.8209   23.5502 N.am    1  UNL1       -0.2641
     10 H          -4.4436  -17.5092   24.2040 H       1  UNL1        0.1567
     11 C          -3.1507  -17.1307   22.5065 C.ar    1  UNL1        0.1656
     12 N          -2.3861  -16.1257   21.6970 N.ar    1  UNL1       -0.2224
     13 C          -1.4651  -16.8738   20.7793 C.ar    1  UNL1        0.1079
     14 C          -1.6605  -18.3412   21.0217 C.ar    1  UNL1        0.0588
     15 S          -2.7022  -18.4999   22.0892 S.2     1  UNL1       -0.0508
     16 C          -9.4534  -18.2467   23.5125 C.3     1  UNL1        0.1138
     17 C         -10.8572  -18.0520   23.0210 C.ar    1  UNL1       -0.0029
     18 C         -12.0129  -18.2394   23.9587 C.ar    1  UNL1       -0.0026
     19 C         -13.4166  -18.0447   23.4671 C.ar    1  UNL1       -0.0003
     20 C         -13.6646  -17.6625   22.0380 C.ar    1  UNL1       -0.0000
     21 C         -12.5089  -17.4751   21.1004 C.ar    1  UNL1       -0.0003
     22 C         -11.1052  -17.6698   21.5919 C.ar    1  UNL1       -0.0026
     23 C          -8.7431  -19.5433   23.2591 C.3     1  UNL1        0.0968
     24 N          -7.8671  -19.6949   22.0509 N.3     1  UNL1       -0.2689
     25 C          -8.2072  -19.2621   20.6555 C.3     1  UNL1        0.0748
     26 C          -7.0476  -19.6057   19.7681 C.3     1  UNL1        0.0480
     27 C          -5.9910  -20.2509   20.6151 C.3     1  UNL1        0.1278
     28 O          -4.6614  -20.7528   20.1355 O.3     1  UNL1       -0.3830
     29 C          -6.4975  -20.3061   22.0259 C.3     1  UNL1        0.1017
     30 H          -4.5820  -20.5971   19.1814 H       1  UNL1        0.2104
@<TRIPOS>BOND
     1     1     2    1
     2     2     3   am
     3     3     4    2
     4     3     5    1
     5     5     6    1
     6     6     7    1
     7     7     8    2
     8     7     9   am
     9     9    11    1
    10    11    12   ar
    11    12    13   ar
    12    13    14   ar
    13    14    15   ar
    14     2    16    1
    15    16    23    1
    16    23    24    1
    17    24    25    1
    18    25    26    1
    19    26    27    1
    20    27    28    1
    21    27    29    1
    22    16    17    1
    23    17    18   ar
    24    18    19   ar
    25    19    20   ar
    26    20    21   ar
    27    21    22   ar
    28    15    11   ar
    29    29    24    1
    30    22    17   ar
    31     9    10    1
    32    28    30    1
@<TRIPOS>MOLECULE
*****
 30 32 0 0 0
SMALL
GASTEIGER

@<TRIPOS>ATOM
      1 C          -3.5679  -17.5859   25.1805 C.3     1  UNL1        0.1152
      2 N          -4.3645  -17.4568   23.9161 N.am    1  UNL1       -0.2743
      3 C          -5.4698  -16.4467   23.8257 C.2     1  UNL1        0.2264
      4 O          -6.2664  -16.3177   22.5613 O.2     1  UNL1       -0.2748
      5 C          -5.7784  -15.5657   24.9998 C.3     1  UNL1        0.0948
      6 C          -7.1449  -14.9650   25.1480 C.3     1  UNL1        0.0950
      7 C          -8.3636  -15.8230   24.9796 C.2     1  UNL1        0.2280
      8 O          -8.8564  -16.6587   26.1236 O.2     1  UNL1       -0.2747
      9 N          -9.0896  -15.8454   23.6672 N.am    1  UNL1       -0.2641
     10 H          -8.7662  -15.2969   22.9164 H       1  UNL1        0.1567
     11 C         -10.3084  -16.7034   23.4988 C.ar    1  UNL1        0.1656
     12 N         -10.5153  -18.0667   24.0893 N.ar    1  UNL1       -0.2224
     13 C         -11.8691  -18.5546   23.6657 C.ar    1  UNL1        0.1079
     14 C         -12.4988  -17.4930   22.8135 C.ar    1  UNL1        0.0588
     15 S         -11.5342  -16.3488   22.7103 S.2     1  UNL1       -0.0508
     16 C          -4.0559  -18.3379   22.7420 C.3     1  UNL1        0.1138
     17 C          -2.9259  -17.9892   21.8191 C.ar    1  UNL1       -0.0029
     18 C          -2.4486  -18.9880   20.8070 C.ar    1  UNL1       -0.0026
     19 C          -1.3187  -18.6393   19.8842 C.ar    1  UNL1       -0.0003
     20 C          -0.6660  -17.2917   19.9736 C.ar    1  UNL1       -0.0000
     21 C          -1.1433  -16.2928   20.9857 C.ar    1  UNL1       -0.0003
     22 C          -2.2732  -16.6416   21.9085 C.ar    1  UNL1       -0.0026
     23 C          -4.8772  -19.5676   22.4907 C.3     1  UNL1        0.0968
     24 N          -6.1304  -19.4781   21.6712 N.3     1  UNL1       -0.2689
     25 C          -6.2007  -19.3699   20.1768 C.3     1  UNL1        0.0748
     26 C          -7.6471  -19.3059   19.7842 C.3     1  UNL1        0.0480
     27 C          -8.4706  -19.3746   21.0361 C.3     1  UNL1        0.1278
     28 O          -9.9684  -19.3425   21.1090 O.3     1  UNL1       -0.3830
     29 C          -7.5332  -19.4810   22.2023 C.3     1  UNL1        0.1017
     30 H         -10.3342  -19.2696   20.2136 H       1  UNL1        0.2104
@<TRIPOS>BOND
     1     1     2    1
     2     2     3   am
     3     3     4    2
     4     3     5    1
     5     5     6    1
     6     6     7    1
     7     7     8    2
     8     7     9   am
     9     9    11    1
    10    11    12   ar
    11    12    13   ar
    12    13    14   ar
    13    14    15   ar
    14     2    16    1
    15    16    23    1
    16    23    24    1
    17    24    25    1
    18    25    26    1
    19    26    27    1
    20    27    28    1
    21    27    29    1
    22    16    17    1
    23    17    18   ar
    24    18    19   ar
    25    19    20   ar
    26    20    21   ar
    27    21    22   ar
    28    15    11   ar
    29    29    24    1
    30    22    17   ar
    31     9    10    1
    32    28    30    1
@<TRIPOS>MOLECULE
*****
 30 32 0 0 0
SMALL
GASTEIGER

@<TRIPOS>ATOM
      1 C         -13.7576   -3.7702   20.5413 C.3     1  UNL1        0.1152
      2 N         -14.1844   -3.6203   19.1111 N.am    1  UNL1       -0.2743
      3 C         -15.6405   -3.6685   18.7540 C.2     1  UNL1        0.2264
      4 O         -16.0674   -3.5187   17.3239 O.2     1  UNL1       -0.2748
      5 C         -16.6698   -3.8666   19.8271 C.3     1  UNL1        0.0948
      6 C         -17.8216   -4.7999   19.5984 C.3     1  UNL1        0.0950
      7 C         -17.5817   -6.1553   19.0023 C.2     1  UNL1        0.2280
      8 O         -17.9969   -6.4370   17.5887 O.2     1  UNL1       -0.2747
      9 N         -16.9268   -7.2289   19.8197 N.am    1  UNL1       -0.2641
     10 H         -16.6543   -7.0441   20.7475 H       1  UNL1        0.1567
     11 C         -16.6870   -8.5843   19.2236 C.ar    1  UNL1        0.1656
     12 N         -17.6035   -9.7674   19.3261 N.ar    1  UNL1       -0.2224
     13 C         -16.9715  -10.9089   18.5861 C.ar    1  UNL1        0.1079
     14 C         -15.6643  -10.4314   18.0263 C.ar    1  UNL1        0.0588
     15 S         -15.4885   -8.9947   18.4203 S.2     1  UNL1       -0.0508
     16 C         -13.1552   -3.4222   18.0381 C.3     1  UNL1        0.1138
     17 C         -12.5775   -2.0593   17.7953 C.ar    1  UNL1       -0.0029
     18 C         -13.3547   -0.8358   18.1811 C.ar    1  UNL1       -0.0026
     19 C         -12.7770    0.5271   17.9384 C.ar    1  UNL1       -0.0003
     20 C         -11.4222    0.6663   17.3098 C.ar    1  UNL1       -0.0000
     21 C         -10.6451   -0.5573   16.9239 C.ar    1  UNL1       -0.0003
     22 C         -11.2228   -1.9201   17.1667 C.ar    1  UNL1       -0.0026
     23 C         -12.7036   -4.5870   17.2078 C.3     1  UNL1        0.0968
     24 N         -11.6528   -5.5198   17.7329 N.3     1  UNL1       -0.2689
     25 C         -10.6461   -5.2033   18.7989 C.3     1  UNL1        0.0748
     26 C          -9.7953   -6.4208   19.0091 C.3     1  UNL1        0.0480
     27 C         -10.2763   -7.4896   18.0729 C.3     1  UNL1        0.1278
     28 O          -9.7089   -8.8724   17.9475 O.3     1  UNL1       -0.3830
     29 C         -11.4243   -6.9328   17.2842 C.3     1  UNL1        0.1017
     30 H          -8.9728   -8.9776   18.5704 H       1  UNL1        0.2104
@<TRIPOS>BOND
     1     1     2    1
     2     2     3   am
     3     3     4    2
     4     3     5    1
     5     5     6    1
     6     6     7    1
     7     7     8    2
     8     7     9   am
     9     9    11    1
    10    11    12   ar
    11    12    13   ar
    12    13    14   ar
    13    14    15   ar
    14     2    16    1
    15    16    23    1
    16    23    24    1
    17    24    25    1
    18    25    26    1
    19    26    27    1
    20    27    28    1
    21    27    29    1
    22    16    17    1
    23    17    18   ar
    24    18    19   ar
    25    19    20   ar
    26    20    21   ar
    27    21    22   ar
    28    15    11   ar
    29    29    24    1
    30    22    17   ar
    31     9    10    1
    32    28    30    1
@<TRIPOS>MOLECULE
*****
 30 32 0 0 0
SMALL
GASTEIGER

@<TRIPOS>ATOM
      1 C          -8.0242  -18.6605   23.1747 C.3     1  UNL1        0.1152
      2 N          -6.6277  -18.4537   22.6680 N.am    1  UNL1       -0.2743
      3 C          -5.8298  -17.2704   23.1299 C.2     1  UNL1        0.2264
      4 O          -4.4332  -17.0635   22.6232 O.2     1  UNL1       -0.2748
      5 C          -6.4285  -16.2940   24.0985 C.3     1  UNL1        0.0948
      6 C          -7.1504  -15.0810   23.5911 C.3     1  UNL1        0.0950
      7 C          -8.1703  -15.2172   22.4997 C.2     1  UNL1        0.2280
      8 O          -7.8374  -14.7817   21.1035 O.2     1  UNL1       -0.2747
      9 N          -9.5232  -15.7887   22.8046 N.am    1  UNL1       -0.2641
     10 H          -9.7417  -16.0745   23.7210 H       1  UNL1        0.1567
     11 C         -10.5432  -15.9249   21.7132 C.ar    1  UNL1        0.1656
     12 N         -10.3440  -15.5657   20.2704 N.ar    1  UNL1       -0.2224
     13 C         -11.6192  -15.8629   19.5385 C.ar    1  UNL1        0.1079
     14 C         -12.6064  -16.4057   20.5288 C.ar    1  UNL1        0.0588
     15 S         -11.9414  -16.4440   21.8728 S.2     1  UNL1       -0.0508
     16 C          -6.0290  -19.4300   21.6993 C.3     1  UNL1        0.1138
     17 C          -6.8535  -19.9626   20.5651 C.ar    1  UNL1       -0.0029
     18 C          -8.0273  -19.1782   20.0582 C.ar    1  UNL1       -0.0026
     19 C          -8.8518  -19.7108   18.9240 C.ar    1  UNL1       -0.0003
     20 C          -8.5026  -21.0279   18.2967 C.ar    1  UNL1       -0.0000
     21 C          -7.3288  -21.8123   18.8036 C.ar    1  UNL1       -0.0003
     22 C          -6.5043  -21.2796   19.9378 C.ar    1  UNL1       -0.0026
     23 C          -4.6057  -19.8738   21.8649 C.3     1  UNL1        0.0968
     24 N          -3.5492  -19.3706   20.9264 N.3     1  UNL1       -0.2689
     25 C          -3.7859  -18.7734   19.5710 C.3     1  UNL1        0.0748
     26 C          -2.4535  -18.4101   18.9854 C.3     1  UNL1        0.0480
     27 C          -1.3934  -18.7827   19.9791 C.3     1  UNL1        0.1278
     28 O           0.0844  -18.5947   19.8040 O.3     1  UNL1       -0.3830
     29 C          -2.0706  -19.3764   21.1787 C.3     1  UNL1        0.1017
     30 H           0.2586  -18.1901   18.9398 H       1  UNL1        0.2104
@<TRIPOS>BOND
     1     1     2    1
     2     2     3   am
     3     3     4    2
     4     3     5    1
     5     5     6    1
     6     6     7    1
     7     7     8    2
     8     7     9   am
     9     9    11    1
    10    11    12   ar
    11    12    13   ar
    12    13    14   ar
    13    14    15   ar
    14     2    16    1
    15    16    23    1
    16    23    24    1
    17    24    25    1
    18    25    26    1
    19    26    27    1
    20    27    28    1
    21    27    29    1
    22    16    17    1
    23    17    18   ar
    24    18    19   ar
    25    19    20   ar
    26    20    21   ar
    27    21    22   ar
    28    15    11   ar
    29    29    24    1
    30    22    17   ar
    31     9    10    1
    32    28    30    1
