@<TRIPOS>MOLECULE
*****
 29 30 0 0 0
SMALL
GASTEIGER

@<TRIPOS>ATOM
      1 C          -9.2043  -19.0560   20.8920 C.ar    1  UNL1        0.1575
      2 C          -8.4483  -18.4060   22.0127 C.ar    1  UNL1        0.0399
      3 C          -6.9483  -18.4156   22.0102 C.ar    1  UNL1        0.0222
      4 C          -6.2043  -19.0751   20.8871 C.ar    1  UNL1        0.0814
      5 N          -6.9603  -19.7250   19.7664 N.ar    1  UNL1       -0.2411
      6 C          -8.4603  -19.7155   19.7689 C.ar    1  UNL1        0.1586
      7 C          -4.7044  -19.0847   20.8846 C.ar    1  UNL1        0.0205
      8 C          -3.9569  -19.7622   21.9946 C.ar    1  UNL1        0.0222
      9 C          -2.4569  -19.7718   21.9922 C.ar    1  UNL1        0.0987
     10 N          -1.7044  -19.1038   20.8797 N.ar    1  UNL1       -0.2426
     11 C          -2.4519  -18.4263   19.7697 C.ar    1  UNL1        0.1250
     12 C          -3.9519  -18.4167   19.7722 C.ar    1  UNL1        0.0218
     13 C          -1.6995  -17.7583   18.6572 C.3     1  UNL1        0.3581
     14 F          -0.2033  -17.8499   18.6029 F       1  UNL1       -0.1915
     15 F          -2.4432  -16.9986   17.5990 F       1  UNL1       -0.1915
     16 C          -9.2163  -20.3655   18.6481 C.3     1  UNL1        0.3611
     17 F         -10.5338  -19.8011   18.2057 F       1  UNL1       -0.1914
     18 F          -8.6548  -21.5797   17.9698 F       1  UNL1       -0.1914
     19 O         -10.7042  -19.0464   20.8945 O.3     1  UNL1       -0.4727
     20 C         -11.4470  -17.8053   20.4969 C.3     1  UNL1        0.2193
     21 C         -11.8070  -16.7824   21.5332 C.3     1  UNL1        0.0798
     22 C         -10.7777  -15.8485   20.9689 C.3     1  UNL1        0.0193
     23 N         -12.1670  -15.7594   22.5695 N.3     1  UNL1       -0.3203
     24 H         -12.0379  -14.8242   22.1833 H       1  UNL1        0.1189
     25 H         -11.5664  -15.8761   23.3856 H       1  UNL1        0.1189
     26 C         -12.8363  -17.7162   22.0975 C.3     1  UNL1        0.0179
     27 C         -14.0479  -18.0710   24.3682 C.3     1  UNL1        0.0000
     28 C         -12.7918  -18.0932   23.5486 C.3     1  UNL1        0.0014
     29 C         -11.4911  -18.4924   24.1802 C.3     1  UNL1        0.0000
@<TRIPOS>BOND
     1    27    28    1
     2    28    29    1
     3    28    26    1
     4    26    21    1
     5    21    22    1
     6    21    23    1
     7    21    20    1
     8    20    19    1
     9    19     1    1
    10     1     2   ar
    11     2     3   ar
    12     3     4   ar
    13     4     7    1
    14     7     8   ar
    15     8     9   ar
    16     9    10   ar
    17    10    11   ar
    18    11    13    1
    19    13    14    1
    20    13    15    1
    21    11    12   ar
    22     4     5   ar
    23     5     6   ar
    24     6    16    1
    25    16    17    1
    26    16    18    1
    27     6     1   ar
    28    12     7   ar
    29    23    24    1
    30    23    25    1
@<TRIPOS>MOLECULE
*****
 29 30 0 0 0
SMALL
GASTEIGER

@<TRIPOS>ATOM
      1 C          -9.2103  -17.8805   23.4820 C.ar    1  UNL1        0.1575
      2 C          -8.1667  -16.8378   23.2107 C.ar    1  UNL1        0.0399
      3 C          -6.8771  -17.2221   22.5479 C.ar    1  UNL1        0.0222
      4 C          -6.6311  -18.6490   22.1563 C.ar    1  UNL1        0.0814
      5 N          -7.6747  -19.6917   22.4276 N.ar    1  UNL1       -0.2411
      6 C          -8.9643  -19.3074   23.0904 C.ar    1  UNL1        0.1586
      7 C          -5.3415  -19.0332   21.4935 C.ar    1  UNL1        0.0205
      8 C          -5.2644  -20.2863   20.6727 C.ar    1  UNL1        0.0222
      9 C          -3.9748  -20.6705   20.0099 C.ar    1  UNL1        0.0987
     10 N          -2.7624  -19.8017   20.1678 N.ar    1  UNL1       -0.2426
     11 C          -2.8395  -18.5485   20.9886 C.ar    1  UNL1        0.1250
     12 C          -4.1291  -18.1643   21.6514 C.ar    1  UNL1        0.0218
     13 C          -1.6271  -17.6796   21.1466 C.3     1  UNL1        0.3581
     14 F          -0.3259  -18.0868   20.5212 F       1  UNL1       -0.1915
     15 F          -1.7158  -16.4034   21.9298 F       1  UNL1       -0.1915
     16 C         -10.0080  -20.3502   23.3616 C.3     1  UNL1        0.3611
     17 F          -9.9801  -21.1226   24.6472 F       1  UNL1       -0.1914
     18 F         -11.0795  -20.6206   22.3474 F       1  UNL1       -0.1914
     19 O         -10.4999  -17.4963   24.1448 O.3     1  UNL1       -0.4727
     20 C         -11.4564  -16.5753   23.4471 C.3     1  UNL1        0.2193
     21 C         -12.4848  -17.1330   22.5083 C.3     1  UNL1        0.0798
     22 C         -12.8723  -18.1523   23.5382 C.3     1  UNL1        0.0193
     23 N         -13.5132  -17.6907   21.5694 N.3     1  UNL1       -0.3203
     24 H         -14.3033  -18.0500   22.1051 H       1  UNL1        0.1189
     25 H         -13.1005  -18.4470   21.0235 H       1  UNL1        0.1189
     26 C         -12.0973  -16.1136   21.4784 C.3     1  UNL1        0.0179
     27 C         -11.4901  -15.6531   18.9946 C.3     1  UNL1        0.0000
     28 C         -11.4534  -16.5505   20.1960 C.3     1  UNL1        0.0014
     29 C         -10.7726  -17.8847   20.1150 C.3     1  UNL1        0.0000
@<TRIPOS>BOND
     1    27    28    1
     2    28    29    1
     3    28    26    1
     4    26    21    1
     5    21    22    1
     6    21    23    1
     7    21    20    1
     8    20    19    1
     9    19     1    1
    10     1     2   ar
    11     2     3   ar
    12     3     4   ar
    13     4     7    1
    14     7     8   ar
    15     8     9   ar
    16     9    10   ar
    17    10    11   ar
    18    11    13    1
    19    13    14    1
    20    13    15    1
    21    11    12   ar
    22     4     5   ar
    23     5     6   ar
    24     6    16    1
    25    16    17    1
    26    16    18    1
    27     6     1   ar
    28    12     7   ar
    29    23    24    1
    30    23    25    1
@<TRIPOS>MOLECULE
*****
 29 30 0 0 0
SMALL
GASTEIGER

@<TRIPOS>ATOM
      1 C         -10.0689  -19.5829   21.8005 C.ar    1  UNL1        0.1575
      2 C          -9.5346  -19.3700   20.4152 C.ar    1  UNL1        0.0399
      3 C          -8.0546  -19.3844   20.1717 C.ar    1  UNL1        0.0222
      4 C          -7.1088  -19.6118   21.3135 C.ar    1  UNL1        0.0814
      5 N          -7.6431  -19.8247   22.6988 N.ar    1  UNL1       -0.2411
      6 C          -9.1231  -19.8103   22.9423 C.ar    1  UNL1        0.1586
      7 C          -5.6288  -19.6262   21.0700 C.ar    1  UNL1        0.0205
      8 C          -5.0350  -20.6218   20.1182 C.ar    1  UNL1        0.0222
      9 C          -3.5549  -20.6362   19.8747 C.ar    1  UNL1        0.0987
     10 N          -2.6687  -19.6550   20.5831 N.ar    1  UNL1       -0.2426
     11 C          -3.2625  -18.6594   21.5349 C.ar    1  UNL1        0.1250
     12 C          -4.7426  -18.6450   21.7784 C.ar    1  UNL1        0.0218
     13 C          -2.3763  -17.6781   22.2433 C.3     1  UNL1        0.3581
     14 F          -2.0152  -17.8969   23.6827 F       1  UNL1       -0.1915
     15 F          -1.8513  -16.4781   21.5124 F       1  UNL1       -0.1915
     16 C          -9.6574  -20.0232   24.3277 C.3     1  UNL1        0.3611
     17 F         -10.2121  -18.8656   25.1038 F       1  UNL1       -0.1914
     18 F          -9.6370  -21.3937   24.9370 F       1  UNL1       -0.1914
     19 O         -11.5489  -19.5685   22.0440 O.3     1  UNL1       -0.4727
     20 C         -12.4014  -18.5042   21.4192 C.3     1  UNL1        0.2193
     21 C         -12.6146  -17.2006   22.1301 C.3     1  UNL1        0.0798
     22 C         -12.7857  -17.9356   23.4265 C.3     1  UNL1        0.0193
     23 N         -12.8278  -15.8971   22.8411 N.3     1  UNL1       -0.3203
     24 H         -12.4690  -15.9666   23.7933 H       1  UNL1        0.1189
     25 H         -13.8248  -15.6837   22.8681 H       1  UNL1        0.1189
     26 C         -12.4435  -16.4657   20.8338 C.3     1  UNL1        0.0179
     27 C          -9.9738  -15.9389   21.4444 C.3     1  UNL1        0.0000
     28 C         -11.0995  -15.9191   20.4533 C.3     1  UNL1        0.0014
     29 C         -10.8811  -15.3527   19.0815 C.3     1  UNL1        0.0000
@<TRIPOS>BOND
     1    27    28    1
     2    28    29    1
     3    28    26    1
     4    26    21    1
     5    21    22    1
     6    21    23    1
     7    21    20    1
     8    20    19    1
     9    19     1    1
    10     1     2   ar
    11     2     3   ar
    12     3     4   ar
    13     4     7    1
    14     7     8   ar
    15     8     9   ar
    16     9    10   ar
    17    10    11   ar
    18    11    13    1
    19    13    14    1
    20    13    15    1
    21    11    12   ar
    22     4     5   ar
    23     5     6   ar
    24     6    16    1
    25    16    17    1
    26    16    18    1
    27     6     1   ar
    28    12     7   ar
    29    23    24    1
    30    23    25    1
@<TRIPOS>MOLECULE
*****
 29 30 0 0 0
SMALL
GASTEIGER

@<TRIPOS>ATOM
      1 C          -9.0899  -19.1465   21.1577 C.ar    1  UNL1        0.1575
      2 C          -8.4415  -19.4269   19.8345 C.ar    1  UNL1        0.0399
      3 C          -6.9464  -19.4146   19.7143 C.ar    1  UNL1        0.0222
      4 C          -6.0996  -19.1218   20.9173 C.ar    1  UNL1        0.0814
      5 N          -6.7480  -18.8413   22.2405 N.ar    1  UNL1       -0.2411
      6 C          -8.2431  -18.8537   22.3607 C.ar    1  UNL1        0.1586
      7 C          -4.6045  -19.1094   20.7970 C.ar    1  UNL1        0.0205
      8 C          -3.7635  -19.8036   21.8269 C.ar    1  UNL1        0.0222
      9 C          -2.2684  -19.7913   21.7067 C.ar    1  UNL1        0.0987
     10 N          -1.6143  -19.0846   20.5566 N.ar    1  UNL1       -0.2426
     11 C          -2.4553  -18.3904   19.5267 C.ar    1  UNL1        0.1250
     12 C          -3.9504  -18.4028   19.6469 C.ar    1  UNL1        0.0218
     13 C          -1.8012  -17.6838   18.3765 C.3     1  UNL1        0.3581
     14 F          -2.6157  -16.8026   17.4765 F       1  UNL1       -0.1915
     15 F          -0.3325  -17.8583   18.1264 F       1  UNL1       -0.1915
     16 C          -8.8915  -18.5732   23.6840 C.3     1  UNL1        0.3611
     17 F          -9.1878  -17.1598   24.0894 F       1  UNL1       -0.1914
     18 F          -9.2436  -19.7062   24.6018 F       1  UNL1       -0.1914
     19 O         -10.5850  -19.1589   21.2779 O.3     1  UNL1       -0.4727
     20 C         -11.3882  -18.0001   20.7660 C.3     1  UNL1        0.2193
     21 C         -11.8623  -16.9390   21.7142 C.3     1  UNL1        0.0798
     22 C         -10.7273  -16.0541   21.2914 C.3     1  UNL1        0.0193
     23 N         -12.3364  -15.8778   22.6624 N.3     1  UNL1       -0.3203
     24 H         -12.1175  -14.9578   22.2802 H       1  UNL1        0.1189
     25 H         -11.8691  -15.9922   23.5619 H       1  UNL1        0.1189
     26 C         -12.9973  -17.8238   22.1370 C.3     1  UNL1        0.0179
     27 C         -14.5349  -18.0889   24.2144 C.3     1  UNL1        0.0000
     28 C         -13.1762  -18.1740   23.5845 C.3     1  UNL1        0.0014
     29 C         -11.9964  -18.6095   24.4022 C.3     1  UNL1        0.0000
@<TRIPOS>BOND
     1    27    28    1
     2    28    29    1
     3    28    26    1
     4    26    21    1
     5    21    22    1
     6    21    23    1
     7    21    20    1
     8    20    19    1
     9    19     1    1
    10     1     2   ar
    11     2     3   ar
    12     3     4   ar
    13     4     7    1
    14     7     8   ar
    15     8     9   ar
    16     9    10   ar
    17    10    11   ar
    18    11    13    1
    19    13    14    1
    20    13    15    1
    21    11    12   ar
    22     4     5   ar
    23     5     6   ar
    24     6    16    1
    25    16    17    1
    26    16    18    1
    27     6     1   ar
    28    12     7   ar
    29    23    24    1
    30    23    25    1
@<TRIPOS>MOLECULE
*****
 29 30 0 0 0
SMALL
GASTEIGER

@<TRIPOS>ATOM
      1 C          -9.0165  -18.0575   23.4072 C.ar    1  UNL1        0.1575
      2 C          -8.8677  -19.3348   22.6351 C.ar    1  UNL1        0.0399
      3 C          -7.5663  -19.6575   21.9627 C.ar    1  UNL1        0.0222
      4 C          -6.4137  -18.7028   22.0623 C.ar    1  UNL1        0.0814
      5 N          -6.5625  -17.4255   22.8344 N.ar    1  UNL1       -0.2411
      6 C          -7.8639  -17.1028   23.5068 C.ar    1  UNL1        0.1586
      7 C          -5.1122  -19.0255   21.3899 C.ar    1  UNL1        0.0205
      8 C          -4.9783  -20.2795   20.5778 C.ar    1  UNL1        0.0222
      9 C          -3.6769  -20.6022   19.9054 C.ar    1  UNL1        0.0987
     10 N          -2.5093  -19.6709   20.0451 N.ar    1  UNL1       -0.2426
     11 C          -2.6433  -18.4169   20.8572 C.ar    1  UNL1        0.1250
     12 C          -3.9447  -18.0942   21.5297 C.ar    1  UNL1        0.0218
     13 C          -1.4757  -17.4856   20.9970 C.3     1  UNL1        0.3581
     14 F          -0.1416  -17.8643   20.4253 F       1  UNL1       -0.1915
     15 F          -1.6422  -16.1756   21.7085 F       1  UNL1       -0.1915
     16 C          -8.0127  -15.8253   24.2790 C.3     1  UNL1        0.3611
     17 F          -8.5136  -15.8574   25.6925 F       1  UNL1       -0.1914
     18 F          -7.6604  -14.5160   23.6376 F       1  UNL1       -0.1914
     19 O         -10.3180  -17.7348   24.0796 O.3     1  UNL1       -0.4727
     20 C         -11.2521  -16.7350   23.4649 C.3     1  UNL1        0.2193
     21 C         -12.3116  -17.1896   22.5053 C.3     1  UNL1        0.0798
     22 C         -12.7636  -18.2231   23.4940 C.3     1  UNL1        0.0193
     23 N         -13.3711  -17.6441   21.5457 N.3     1  UNL1       -0.3203
     24 H         -14.1830  -17.9746   22.0673 H       1  UNL1        0.1189
     25 H         -13.0054  -18.4023   20.9697 H       1  UNL1        0.1189
     26 C         -11.8595  -16.1560   21.5167 C.3     1  UNL1        0.0179
     27 C         -11.6235  -15.6368   18.9820 C.3     1  UNL1        0.0000
     28 C         -11.4329  -16.5711   20.1399 C.3     1  UNL1        0.0014
     29 C         -10.8158  -17.9207   19.9209 C.3     1  UNL1        0.0000
@<TRIPOS>BOND
     1    27    28    1
     2    28    29    1
     3    28    26    1
     4    26    21    1
     5    21    22    1
     6    21    23    1
     7    21    20    1
     8    20    19    1
     9    19     1    1
    10     1     2   ar
    11     2     3   ar
    12     3     4   ar
    13     4     7    1
    14     7     8   ar
    15     8     9   ar
    16     9    10   ar
    17    10    11   ar
    18    11    13    1
    19    13    14    1
    20    13    15    1
    21    11    12   ar
    22     4     5   ar
    23     5     6   ar
    24     6    16    1
    25    16    17    1
    26    16    18    1
    27     6     1   ar
    28    12     7   ar
    29    23    24    1
    30    23    25    1
@<TRIPOS>MOLECULE
*****
 29 30 0 0 0
SMALL
GASTEIGER

@<TRIPOS>ATOM
      1 C          -5.6789  -19.0114   21.9394 C.ar    1  UNL1        0.1575
      2 C          -6.2831  -17.9185   22.7703 C.ar    1  UNL1        0.0399
      3 C          -7.7490  -17.6188   22.6641 C.ar    1  UNL1        0.0222
      4 C          -8.6108  -18.4120   21.7270 C.ar    1  UNL1        0.0814
      5 N          -8.0066  -19.5049   20.8961 N.ar    1  UNL1       -0.2411
      6 C          -6.5406  -19.8046   21.0022 C.ar    1  UNL1        0.1586
      7 C         -10.0767  -18.1123   21.6208 C.ar    1  UNL1        0.0205
      8 C         -10.6387  -17.5595   20.3447 C.ar    1  UNL1        0.0222
      9 C         -12.1046  -17.2598   20.2386 C.ar    1  UNL1        0.0987
     10 N         -13.0085  -17.5130   21.4085 N.ar    1  UNL1       -0.2426
     11 C         -12.4465  -18.0658   22.6846 C.ar    1  UNL1        0.1250
     12 C         -10.9806  -18.3655   22.7908 C.ar    1  UNL1        0.0218
     13 C         -13.3505  -18.3190   23.8546 C.3     1  UNL1        0.3581
     14 F         -12.7661  -18.5786   25.2115 F       1  UNL1       -0.1915
     15 F         -14.8387  -18.3127   23.6677 F       1  UNL1       -0.1915
     16 C          -5.9364  -20.8975   20.1712 C.3     1  UNL1        0.3611
     17 F          -6.8223  -21.8256   19.3941 F       1  UNL1       -0.1914
     18 F          -4.4465  -21.0623   20.1174 F       1  UNL1       -0.1914
     19 O          -4.2130  -19.3111   22.0455 O.3     1  UNL1       -0.4727
     20 C          -3.3365  -18.4670   22.9226 C.3     1  UNL1        0.2193
     21 C          -2.5308  -17.3512   22.3262 C.3     1  UNL1        0.0798
     22 C          -3.3838  -16.3499   23.0472 C.3     1  UNL1        0.0193
     23 N          -1.7251  -16.2353   21.7298 N.3     1  UNL1       -0.3203
     24 H          -1.6896  -15.4540   22.3845 H       1  UNL1        0.1189
     25 H          -2.1597  -15.9298   20.8591 H       1  UNL1        0.1189
     26 C          -1.6778  -18.3524   21.6052 C.3     1  UNL1        0.0179
     27 C          -0.1083  -18.0704   19.5541 C.3     1  UNL1        0.0000
     28 C          -1.4859  -18.2441   20.1215 C.3     1  UNL1        0.0014
     29 C          -2.6717  -18.3094   19.2051 C.3     1  UNL1        0.0000
@<TRIPOS>BOND
     1    27    28    1
     2    28    29    1
     3    28    26    1
     4    26    21    1
     5    21    22    1
     6    21    23    1
     7    21    20    1
     8    20    19    1
     9    19     1    1
    10     1     2   ar
    11     2     3   ar
    12     3     4   ar
    13     4     7    1
    14     7     8   ar
    15     8     9   ar
    16     9    10   ar
    17    10    11   ar
    18    11    13    1
    19    13    14    1
    20    13    15    1
    21    11    12   ar
    22     4     5   ar
    23     5     6   ar
    24     6    16    1
    25    16    17    1
    26    16    18    1
    27     6     1   ar
    28    12     7   ar
    29    23    24    1
    30    23    25    1
@<TRIPOS>MOLECULE
*****
 29 30 0 0 0
SMALL
GASTEIGER

@<TRIPOS>ATOM
      1 C          -8.3757  -19.0000   23.0316 C.ar    1  UNL1        0.1575
      2 C          -7.7513  -20.2721   22.5399 C.ar    1  UNL1        0.0399
      3 C          -6.3674  -20.2537   21.9615 C.ar    1  UNL1        0.0222
      4 C          -5.6079  -18.9631   21.8748 C.ar    1  UNL1        0.0814
      5 N          -6.2323  -17.6910   22.3665 N.ar    1  UNL1       -0.2411
      6 C          -7.6162  -17.7095   22.9449 C.ar    1  UNL1        0.1586
      7 C          -4.2240  -18.9447   21.2964 C.ar    1  UNL1        0.0205
      8 C          -3.0994  -19.6233   22.0206 C.ar    1  UNL1        0.0222
      9 C          -1.7155  -19.6048   21.4422 C.ar    1  UNL1        0.0987
     10 N          -1.4563  -18.9077   20.1396 N.ar    1  UNL1       -0.2426
     11 C          -2.5810  -18.2291   19.4154 C.ar    1  UNL1        0.1250
     12 C          -3.9648  -18.2475   19.9938 C.ar    1  UNL1        0.0218
     13 C          -2.3218  -17.5319   18.1127 C.3     1  UNL1        0.3581
     14 F          -1.1249  -17.9035   17.2883 F       1  UNL1       -0.1915
     15 F          -3.2594  -16.4633   17.6344 F       1  UNL1       -0.1915
     16 C          -8.2406  -16.4372   23.4366 C.3     1  UNL1        0.3611
     17 F          -8.2614  -15.2229   22.5562 F       1  UNL1       -0.1914
     18 F          -8.8441  -16.3794   24.8085 F       1  UNL1       -0.1914
     19 O          -9.7595  -19.0185   23.6100 O.3     1  UNL1       -0.4727
     20 C         -10.9502  -19.1183   22.7031 C.3     1  UNL1        0.2193
     21 C         -12.2340  -18.4364   23.0730 C.3     1  UNL1        0.0798
     22 C         -11.9516  -18.6918   24.5239 C.3     1  UNL1        0.0193
     23 N         -13.5178  -17.7545   23.4429 N.3     1  UNL1       -0.3203
     24 H         -13.4101  -17.2941   24.3467 H       1  UNL1        0.1189
     25 H         -14.2656  -18.4457   23.5005 H       1  UNL1        0.1189
     26 C         -12.5163  -18.1810   21.6222 C.3     1  UNL1        0.0179
     27 C         -11.3064  -15.8913   21.4146 C.3     1  UNL1        0.0000
     28 C         -11.6496  -17.2356   20.8445 C.3     1  UNL1        0.0014
     29 C         -11.1259  -17.6345   19.4966 C.3     1  UNL1        0.0000
@<TRIPOS>BOND
     1    27    28    1
     2    28    29    1
     3    28    26    1
     4    26    21    1
     5    21    22    1
     6    21    23    1
     7    21    20    1
     8    20    19    1
     9    19     1    1
    10     1     2   ar
    11     2     3   ar
    12     3     4   ar
    13     4     7    1
    14     7     8   ar
    15     8     9   ar
    16     9    10   ar
    17    10    11   ar
    18    11    13    1
    19    13    14    1
    20    13    15    1
    21    11    12   ar
    22     4     5   ar
    23     5     6   ar
    24     6    16    1
    25    16    17    1
    26    16    18    1
    27     6     1   ar
    28    12     7   ar
    29    23    24    1
    30    23    25    1
@<TRIPOS>MOLECULE
*****
 29 30 0 0 0
SMALL
GASTEIGER

@<TRIPOS>ATOM
      1 C          -6.2669  -19.0500   21.4360 C.ar    1  UNL1        0.1575
      2 C          -6.6066  -17.9003   22.3374 C.ar    1  UNL1        0.0399
      3 C          -8.0337  -17.4651   22.4926 C.ar    1  UNL1        0.0222
      4 C          -9.1211  -18.1798   21.7464 C.ar    1  UNL1        0.0814
      5 N          -8.7814  -19.3295   20.8450 N.ar    1  UNL1       -0.2411
      6 C          -7.3543  -19.7646   20.6898 C.ar    1  UNL1        0.1586
      7 C         -10.5482  -17.7446   21.9016 C.ar    1  UNL1        0.0205
      8 C         -11.1480  -16.7779   20.9241 C.ar    1  UNL1        0.0222
      9 C         -12.5751  -16.3428   21.0793 C.ar    1  UNL1        0.0987
     10 N         -13.4023  -16.8744   22.2120 N.ar    1  UNL1       -0.2426
     11 C         -12.8025  -17.8411   23.1895 C.ar    1  UNL1        0.1250
     12 C         -11.3754  -18.2762   23.0343 C.ar    1  UNL1        0.0218
     13 C         -13.6297  -18.3728   24.3223 C.3     1  UNL1        0.3581
     14 F         -12.9709  -18.7703   25.6099 F       1  UNL1       -0.1915
     15 F         -15.1156  -18.5068   24.1674 F       1  UNL1       -0.1915
     16 C          -7.0146  -20.9145   19.7883 C.3     1  UNL1        0.3611
     17 F          -5.7994  -21.7496   20.0635 F       1  UNL1       -0.1914
     18 F          -7.8901  -21.2291   18.6117 F       1  UNL1       -0.1914
     19 O          -4.8398  -19.4851   21.2808 O.3     1  UNL1       -0.4727
     20 C          -3.9564  -18.8133   20.2718 C.3     1  UNL1        0.2193
     21 C          -2.4654  -18.8656   20.4275 C.3     1  UNL1        0.0798
     22 C          -2.3088  -18.8422   18.9359 C.3     1  UNL1        0.0193
     23 N          -0.9744  -18.9179   20.5832 N.3     1  UNL1       -0.3203
     24 H          -0.5344  -18.4086   19.8166 H       1  UNL1        0.1189
     25 H          -0.6648  -19.8896   20.5677 H       1  UNL1        0.1189
     26 C          -2.6219  -18.8889   21.9191 C.3     1  UNL1        0.0179
     27 C          -3.5499  -17.6222   23.9890 C.3     1  UNL1        0.0000
     28 C          -2.8335  -17.6084   22.6712 C.3     1  UNL1        0.0014
     29 C          -2.3285  -16.3142   22.1055 C.3     1  UNL1        0.0000
@<TRIPOS>BOND
     1    27    28    1
     2    28    29    1
     3    28    26    1
     4    26    21    1
     5    21    22    1
     6    21    23    1
     7    21    20    1
     8    20    19    1
     9    19     1    1
    10     1     2   ar
    11     2     3   ar
    12     3     4   ar
    13     4     7    1
    14     7     8   ar
    15     8     9   ar
    16     9    10   ar
    17    10    11   ar
    18    11    13    1
    19    13    14    1
    20    13    15    1
    21    11    12   ar
    22     4     5   ar
    23     5     6   ar
    24     6    16    1
    25    16    17    1
    26    16    18    1
    27     6     1   ar
    28    12     7   ar
    29    23    24    1
    30    23    25    1
@<TRIPOS>MOLECULE
*****
 29 30 0 0 0
SMALL
GASTEIGER

@<TRIPOS>ATOM
      1 C          -7.8461  -16.9500   23.5088 C.ar    1  UNL1        0.1575
      2 C          -7.8972  -17.9818   22.4213 C.ar    1  UNL1        0.0399
      3 C          -6.6254  -18.4928   21.8120 C.ar    1  UNL1        0.0222
      4 C          -5.3025  -17.9720   22.2901 C.ar    1  UNL1        0.0814
      5 N          -5.2514  -16.9401   23.3776 N.ar    1  UNL1       -0.2411
      6 C          -6.5233  -16.4291   23.9869 C.ar    1  UNL1        0.1586
      7 C          -4.0306  -18.4830   21.6807 C.ar    1  UNL1        0.0205
      8 C          -3.8961  -19.9361   21.3338 C.ar    1  UNL1        0.0222
      9 C          -2.6243  -20.4471   20.7245 C.ar    1  UNL1        0.0987
     10 N          -1.4870  -19.5050   20.4620 N.ar    1  UNL1       -0.2426
     11 C          -1.6215  -18.0519   20.8090 C.ar    1  UNL1        0.1250
     12 C          -2.8933  -17.5409   21.4183 C.ar    1  UNL1        0.0218
     13 C          -0.4841  -17.1097   20.5466 C.3     1  UNL1        0.3581
     14 F           0.7729  -17.6129   19.9009 F       1  UNL1       -0.1915
     15 F          -0.6037  -15.6645   20.9298 F       1  UNL1       -0.1915
     16 C          -6.4722  -15.3972   25.0744 C.3     1  UNL1        0.3611
     17 F          -7.7364  -14.9588   25.7523 F       1  UNL1       -0.1914
     18 F          -5.1569  -14.8038   25.4840 F       1  UNL1       -0.1914
     19 O          -9.1180  -16.4390   24.1182 O.3     1  UNL1       -0.4727
     20 C         -10.4349  -17.0312   23.7122 C.3     1  UNL1        0.2193
     21 C         -10.9200  -18.2950   24.3583 C.3     1  UNL1        0.0798
     22 C          -9.8717  -18.1536   25.4219 C.3     1  UNL1        0.0193
     23 N         -11.4050  -19.5589   25.0044 N.3     1  UNL1       -0.3203
     24 H         -11.2692  -19.4987   26.0135 H       1  UNL1        0.1189
     25 H         -10.8790  -20.3520   24.6373 H       1  UNL1        0.1189
     26 C         -11.9682  -18.4365   23.2947 C.3     1  UNL1        0.0179
     27 C         -11.8650  -17.8442   20.7672 C.3     1  UNL1        0.0000
     28 C         -11.5708  -18.7914   21.8926 C.3     1  UNL1        0.0014
     29 C         -10.8793  -20.0934   21.6157 C.3     1  UNL1        0.0000
@<TRIPOS>BOND
     1    27    28    1
     2    28    29    1
     3    28    26    1
     4    26    21    1
     5    21    22    1
     6    21    23    1
     7    21    20    1
     8    20    19    1
     9    19     1    1
    10     1     2   ar
    11     2     3   ar
    12     3     4   ar
    13     4     7    1
    14     7     8   ar
    15     8     9   ar
    16     9    10   ar
    17    10    11   ar
    18    11    13    1
    19    13    14    1
    20    13    15    1
    21    11    12   ar
    22     4     5   ar
    23     5     6   ar
    24     6    16    1
    25    16    17    1
    26    16    18    1
    27     6     1   ar
    28    12     7   ar
    29    23    24    1
    30    23    25    1
