@<TRIPOS>MOLECULE
*****
 30 34 0 0 0
SMALL
GASTEIGER

@<TRIPOS>ATOM
      1 N           6.3372   -3.7340   22.2707 N.pl3   1  UNL1       -0.2781
      2 C           6.2020   -4.1525   20.8367 C.3     1  UNL1        0.0954
      3 C           5.5856   -3.0148   20.0780 C.3     1  UNL1        0.0430
      4 C           5.1211   -2.5703   18.7227 C.3     1  UNL1        0.0955
      5 N           4.5883   -1.1739   18.8502 N.am    1  UNL1       -0.2759
      6 C           4.0201   -0.3422   17.7389 C.2     1  UNL1        0.2527
      7 O           3.9488   -0.8976   16.3473 O.2     1  UNL1       -0.2698
      8 C           4.7235   -0.7554   20.2844 C.3     1  UNL1        0.0955
      9 C           5.3398   -1.8931   21.0431 C.3     1  UNL1        0.0430
     10 C           5.8043   -2.3376   22.3983 C.3     1  UNL1        0.0954
     11 C           9.3661   -7.6407   23.8718 C.3     1  UNL1        0.0522
     12 C           8.4199   -6.5191   24.1827 C.ar    1  UNL1        0.0634
     13 C           8.0419   -6.2293   25.6051 C.ar    1  UNL1        0.0296
     14 C           7.0956   -5.1078   25.9160 C.ar    1  UNL1        0.0634
     15 C           6.7176   -4.8179   27.3383 C.3     1  UNL1        0.0522
     16 N           6.5274   -4.2760   24.8045 N.ar    1  UNL1       -0.2180
     17 C           6.9054   -4.5658   23.3822 C.ar    1  UNL1        0.2195
     18 N           7.8517   -5.6873   23.0712 N.ar    1  UNL1       -0.2180
     19 C           3.5231    1.0451   18.0190 C.ar    1  UNL1        0.1003
     20 C           2.0776    1.2714   18.3497 C.ar    1  UNL1        0.1460
     21 F           1.1291    0.1104   18.4003 F       1  UNL1       -0.2040
     22 C           1.5806    2.6587   18.6298 C.ar    1  UNL1        0.0299
     23 C           2.5290    3.8196   18.5792 C.ar    1  UNL1        0.0039
     24 C           3.9745    3.5934   18.2485 C.ar    1  UNL1        0.0212
     25 C           4.4715    2.2061   17.9684 C.ar    1  UNL1        0.1094
     26 N           5.9170    1.9798   17.6377 N.ar    1  UNL1       -0.1476
     27 N           7.0042    1.6490   18.6168 N.ar    1  UNL1       -0.1447
     28 C           8.2881    1.5094   17.8540 C.ar    1  UNL1        0.1446
     29 C           7.9945    1.7538   16.4035 C.ar    1  UNL1        0.1446
     30 N           6.5291    2.0446   16.2698 N.ar    1  UNL1       -0.1447
@<TRIPOS>BOND
     1    11    12    1
     2    12    13   ar
     3    13    14   ar
     4    14    15    1
     5    14    16   ar
     6    16    17   ar
     7    17     1    1
     8     1     2    1
     9     3     2    1
    10     3     4    1
    11     4     5    1
    12     5     6   am
    13     6     7    2
    14     6    19    1
    15    19    20   ar
    16    20    21    1
    17    20    22   ar
    18    22    23   ar
    19    23    24   ar
    20    24    25   ar
    21    25    26    1
    22    26    27   ar
    23    27    28   ar
    24    28    29   ar
    25    29    30   ar
    26     5     8    1
    27     9     8    1
    28     9    10    1
    29    17    18   ar
    30    18    12   ar
    31    10     1    1
    32     9     3    1
    33    25    19   ar
    34    30    26   ar
@<TRIPOS>MOLECULE
*****
 30 34 0 0 0
SMALL
GASTEIGER

@<TRIPOS>ATOM
      1 N          -0.3099    2.0784   20.8790 N.pl3   1  UNL1       -0.2781
      2 C          -0.0975    2.0779   19.3941 C.3     1  UNL1        0.0954
      3 C           1.0396    1.1485   19.0889 C.3     1  UNL1        0.0430
      4 C           1.8736    0.5739   17.9825 C.3     1  UNL1        0.0955
      5 N           2.8795   -0.3553   18.5949 N.am    1  UNL1       -0.2759
      6 C           3.9157   -1.1460   17.8527 C.2     1  UNL1        0.2527
      7 O           4.0093   -1.0444   16.3590 O.2     1  UNL1       -0.2698
      8 C           2.6670   -0.3549   20.0798 C.3     1  UNL1        0.0955
      9 C           1.5299    0.5745   20.3851 C.3     1  UNL1        0.0430
     10 C           0.6959    1.1492   21.4915 C.3     1  UNL1        0.0954
     11 C          -5.1970    3.7845   21.3326 C.3     1  UNL1        0.0522
     12 C          -3.7897    3.7222   21.8480 C.ar    1  UNL1        0.0634
     13 C          -3.4187    4.4506   23.1057 C.ar    1  UNL1        0.0296
     14 C          -2.0115    4.3883   23.6212 C.ar    1  UNL1        0.0634
     15 C          -1.6404    5.1167   24.8788 C.3     1  UNL1        0.0522
     16 N          -0.9752    3.5975   22.8789 N.ar    1  UNL1       -0.2180
     17 C          -1.3462    2.8691   21.6212 C.ar    1  UNL1        0.2195
     18 N          -2.7535    2.9314   21.1058 N.ar    1  UNL1       -0.2180
     19 C           4.8585   -2.0385   18.6041 C.ar    1  UNL1        0.1003
     20 C           4.4075   -3.3965   19.0542 C.ar    1  UNL1        0.1460
     21 F           3.0138   -3.8620   18.7529 F       1  UNL1       -0.2040
     22 C           5.3504   -4.2890   19.8057 C.ar    1  UNL1        0.0299
     23 C           6.7440   -3.8236   20.1070 C.ar    1  UNL1        0.0039
     24 C           7.1951   -2.4655   19.6570 C.ar    1  UNL1        0.0212
     25 C           6.2523   -1.5731   18.9055 C.ar    1  UNL1        0.1094
     26 N           6.7032   -0.2151   18.4555 N.ar    1  UNL1       -0.1476
     27 N           6.6718    1.0408   19.2750 N.ar    1  UNL1       -0.1447
     28 C           7.2140    2.1575   18.4329 C.ar    1  UNL1        0.1446
     29 C           7.5805    1.5917   17.0929 C.ar    1  UNL1        0.1446
     30 N           7.2648    0.1253   17.1069 N.ar    1  UNL1       -0.1447
@<TRIPOS>BOND
     1    11    12    1
     2    12    13   ar
     3    13    14   ar
     4    14    15    1
     5    14    16   ar
     6    16    17   ar
     7    17     1    1
     8     1     2    1
     9     3     2    1
    10     3     4    1
    11     4     5    1
    12     5     6   am
    13     6     7    2
    14     6    19    1
    15    19    20   ar
    16    20    21    1
    17    20    22   ar
    18    22    23   ar
    19    23    24   ar
    20    24    25   ar
    21    25    26    1
    22    26    27   ar
    23    27    28   ar
    24    28    29   ar
    25    29    30   ar
    26     5     8    1
    27     9     8    1
    28     9    10    1
    29    17    18   ar
    30    18    12   ar
    31    10     1    1
    32     9     3    1
    33    25    19   ar
    34    30    26   ar
@<TRIPOS>MOLECULE
*****
 30 34 0 0 0
SMALL
GASTEIGER

@<TRIPOS>ATOM
      1 N           6.4733   -3.5712   22.3568 N.pl3   1  UNL1       -0.2781
      2 C           5.7937   -4.0959   21.1268 C.3     1  UNL1        0.0954
      3 C           5.5604   -2.9413   20.1981 C.3     1  UNL1        0.0430
      4 C           4.9961   -2.5520   18.8639 C.3     1  UNL1        0.0955
      5 N           5.1827   -1.0731   18.6953 N.am    1  UNL1       -0.2759
      6 C           4.7634   -0.2615   17.5057 C.2     1  UNL1        0.2527
      7 O           4.0901   -0.9279   16.3426 O.2     1  UNL1       -0.2698
      8 C           5.8623   -0.5485   19.9254 C.3     1  UNL1        0.0955
      9 C           6.0957   -1.7031   20.8541 C.3     1  UNL1        0.0430
     10 C           6.6599   -2.0925   22.1883 C.3     1  UNL1        0.0954
     11 C           8.9235   -7.6957   24.3531 C.3     1  UNL1        0.0522
     12 C           8.1177   -6.4451   24.5447 C.ar    1  UNL1        0.0634
     13 C           7.7313   -6.0062   25.9260 C.ar    1  UNL1        0.0296
     14 C           6.9255   -4.7556   26.1176 C.ar    1  UNL1        0.0634
     15 C           6.5390   -4.3166   27.4988 C.3     1  UNL1        0.0522
     16 N           6.5062   -3.9440   24.9278 N.ar    1  UNL1       -0.2180
     17 C           6.8926   -4.3829   23.5465 C.ar    1  UNL1        0.2195
     18 N           7.6984   -5.6335   23.3549 N.ar    1  UNL1       -0.2180
     19 C           5.0173    1.2166   17.4790 C.ar    1  UNL1        0.1003
     20 C           6.1994    1.7611   16.7332 C.ar    1  UNL1        0.1460
     21 F           7.1275    0.8276   16.0141 F       1  UNL1       -0.2040
     22 C           6.4533    3.2393   16.7065 C.ar    1  UNL1        0.0299
     23 C           5.5253    4.1728   17.4255 C.ar    1  UNL1        0.0039
     24 C           4.3432    3.6283   18.1714 C.ar    1  UNL1        0.0212
     25 C           4.0892    2.1502   18.1981 C.ar    1  UNL1        0.1094
     26 N           2.9072    1.6057   18.9439 N.ar    1  UNL1       -0.1476
     27 N           1.6097    1.1613   18.3363 N.ar    1  UNL1       -0.1447
     28 C           0.7157    0.6909   19.4451 C.ar    1  UNL1        0.1446
     29 C           1.4606    0.8445   20.7380 C.ar    1  UNL1        0.1446
     30 N           2.8150    1.4099   20.4282 N.ar    1  UNL1       -0.1447
@<TRIPOS>BOND
     1    11    12    1
     2    12    13   ar
     3    13    14   ar
     4    14    15    1
     5    14    16   ar
     6    16    17   ar
     7    17     1    1
     8     1     2    1
     9     3     2    1
    10     3     4    1
    11     4     5    1
    12     5     6   am
    13     6     7    2
    14     6    19    1
    15    19    20   ar
    16    20    21    1
    17    20    22   ar
    18    22    23   ar
    19    23    24   ar
    20    24    25   ar
    21    25    26    1
    22    26    27   ar
    23    27    28   ar
    24    28    29   ar
    25    29    30   ar
    26     5     8    1
    27     9     8    1
    28     9    10    1
    29    17    18   ar
    30    18    12   ar
    31    10     1    1
    32     9     3    1
    33    25    19   ar
    34    30    26   ar
@<TRIPOS>MOLECULE
*****
 30 34 0 0 0
SMALL
GASTEIGER

@<TRIPOS>ATOM
      1 N           6.9344   -4.4619   24.2353 N.pl3   1  UNL1       -0.2781
      2 C           7.6962   -4.7790   22.9826 C.3     1  UNL1        0.0954
      3 C           7.1760   -3.8956   21.8877 C.3     1  UNL1        0.0430
      4 C           7.3254   -3.5456   20.4367 C.3     1  UNL1        0.0955
      5 N           6.3344   -2.4662   20.1158 N.am    1  UNL1       -0.2759
      6 C           6.1394   -1.8178   18.7774 C.2     1  UNL1        0.2527
      7 O           6.9801   -2.2410   17.6094 O.2     1  UNL1       -0.2698
      8 C           5.5725   -2.1492   21.3685 C.3     1  UNL1        0.0955
      9 C           6.0927   -3.0326   22.4635 C.3     1  UNL1        0.0430
     10 C           5.9434   -3.3826   23.9144 C.3     1  UNL1        0.0954
     11 C           8.2426   -8.6098   27.0784 C.3     1  UNL1        0.0522
     12 C           7.7834   -7.1842   26.9953 C.ar    1  UNL1        0.0634
     13 C           7.5192   -6.4071   28.2508 C.ar    1  UNL1        0.0296
     14 C           7.0600   -4.9815   28.1678 C.ar    1  UNL1        0.0634
     15 C           6.7958   -4.2043   29.4232 C.3     1  UNL1        0.0522
     16 N           6.8651   -4.3332   26.8292 N.ar    1  UNL1       -0.2180
     17 C           7.1293   -5.1103   25.5737 C.ar    1  UNL1        0.2195
     18 N           7.5885   -6.5359   25.6568 N.ar    1  UNL1       -0.2180
     19 C           5.1038   -0.7462   18.6069 C.ar    1  UNL1        0.1003
     20 C           3.6482   -1.1076   18.5788 C.ar    1  UNL1        0.1460
     21 F           3.2283   -2.5406   18.7212 F       1  UNL1       -0.2040
     22 C           2.6125   -0.0360   18.4082 C.ar    1  UNL1        0.0299
     23 C           3.0323    1.3969   18.2658 C.ar    1  UNL1        0.0039
     24 C           4.4879    1.7584   18.2939 C.ar    1  UNL1        0.0212
     25 C           5.5236    0.6868   18.4644 C.ar    1  UNL1        0.1094
     26 N           6.9791    1.0482   18.4925 N.ar    1  UNL1       -0.1476
     27 N           7.8394    1.3355   17.2978 N.ar    1  UNL1       -0.1447
     28 C           9.2219    1.6506   17.7871 C.ar    1  UNL1        0.1446
     29 C           9.2160    1.5581   19.2843 C.ar    1  UNL1        0.1446
     30 N           7.8299    1.1858   19.7202 N.ar    1  UNL1       -0.1447
@<TRIPOS>BOND
     1    11    12    1
     2    12    13   ar
     3    13    14   ar
     4    14    15    1
     5    14    16   ar
     6    16    17   ar
     7    17     1    1
     8     1     2    1
     9     3     2    1
    10     3     4    1
    11     4     5    1
    12     5     6   am
    13     6     7    2
    14     6    19    1
    15    19    20   ar
    16    20    21    1
    17    20    22   ar
    18    22    23   ar
    19    23    24   ar
    20    24    25   ar
    21    25    26    1
    22    26    27   ar
    23    27    28   ar
    24    28    29   ar
    25    29    30   ar
    26     5     8    1
    27     9     8    1
    28     9    10    1
    29    17    18   ar
    30    18    12   ar
    31    10     1    1
    32     9     3    1
    33    25    19   ar
    34    30    26   ar
@<TRIPOS>MOLECULE
*****
 30 34 0 0 0
SMALL
GASTEIGER

@<TRIPOS>ATOM
      1 N           0.9671    1.0276   23.4471 N.pl3   1  UNL1       -0.2781
      2 C           0.6262    0.8725   21.9947 C.3     1  UNL1        0.0954
      3 C           1.7567    0.1460   21.3282 C.3     1  UNL1        0.0430
      4 C           2.2447   -0.3988   20.0187 C.3     1  UNL1        0.0955
      5 N           3.5859   -1.0296   20.2499 N.am    1  UNL1       -0.2759
      6 C           4.4368   -1.6979   19.2111 C.2     1  UNL1        0.2527
      7 O           3.9619   -1.7776   17.7904 O.2     1  UNL1       -0.2698
      8 C           3.9268   -0.8745   21.7024 C.3     1  UNL1        0.0955
      9 C           2.7963   -0.1480   22.3688 C.3     1  UNL1        0.0430
     10 C           2.3083    0.3969   23.6784 C.3     1  UNL1        0.0954
     11 C          -0.8418    1.2614   28.3126 C.3     1  UNL1        0.0522
     12 C          -0.7882    1.8129   26.9188 C.ar    1  UNL1        0.0634
     13 C          -1.5856    3.0328   26.5637 C.ar    1  UNL1        0.0296
     14 C          -1.5320    3.5844   25.1699 C.ar    1  UNL1        0.0634
     15 C          -2.3293    4.8043   24.8148 C.3     1  UNL1        0.0522
     16 N          -0.6811    2.9159   24.1310 N.ar    1  UNL1       -0.2180
     17 C           0.1162    1.6960   24.4860 C.ar    1  UNL1        0.2195
     18 N           0.0627    1.1444   25.8799 N.ar    1  UNL1       -0.2180
     19 C           5.7625   -2.2867   19.5928 C.ar    1  UNL1        0.1003
     20 C           5.8177   -3.5510   20.3981 C.ar    1  UNL1        0.1460
     21 F           4.5471   -4.2265   20.8216 F       1  UNL1       -0.2040
     22 C           7.1435   -4.1398   20.7798 C.ar    1  UNL1        0.0299
     23 C           8.4140   -3.4644   20.3563 C.ar    1  UNL1        0.0039
     24 C           8.3589   -2.2000   19.5510 C.ar    1  UNL1        0.0212
     25 C           7.0331   -1.6113   19.1693 C.ar    1  UNL1        0.1094
     26 N           6.9779   -0.3470   18.3640 N.ar    1  UNL1       -0.1476
     27 N           7.0609    1.0488   18.9072 N.ar    1  UNL1       -0.1447
     28 C           6.9643    2.0019   17.7530 C.ar    1  UNL1        0.1446
     29 C           6.8217    1.1953   16.4964 C.ar    1  UNL1        0.1446
     30 N           6.8301   -0.2564   16.8740 N.ar    1  UNL1       -0.1447
@<TRIPOS>BOND
     1    11    12    1
     2    12    13   ar
     3    13    14   ar
     4    14    15    1
     5    14    16   ar
     6    16    17   ar
     7    17     1    1
     8     1     2    1
     9     3     2    1
    10     3     4    1
    11     4     5    1
    12     5     6   am
    13     6     7    2
    14     6    19    1
    15    19    20   ar
    16    20    21    1
    17    20    22   ar
    18    22    23   ar
    19    23    24   ar
    20    24    25   ar
    21    25    26    1
    22    26    27   ar
    23    27    28   ar
    24    28    29   ar
    25    29    30   ar
    26     5     8    1
    27     9     8    1
    28     9    10    1
    29    17    18   ar
    30    18    12   ar
    31    10     1    1
    32     9     3    1
    33    25    19   ar
    34    30    26   ar
@<TRIPOS>MOLECULE
*****
 30 34 0 0 0
SMALL
GASTEIGER

@<TRIPOS>ATOM
      1 N           1.7615    1.9194   31.8065 N.pl3   1  UNL1       -0.2781
      2 C           2.6666    0.8399   32.3217 C.3     1  UNL1        0.0954
      3 C           3.2412    1.3012   33.6282 C.3     1  UNL1        0.0430
      4 C           4.1557    0.9191   34.7541 C.3     1  UNL1        0.0955
      5 N           4.1709    2.0475   35.7424 N.am    1  UNL1       -0.2759
      6 C           4.9537    2.0890   37.0211 C.2     1  UNL1        0.2527
      7 O           5.8215    0.9281   37.4075 O.2     1  UNL1       -0.2698
      8 C           3.2657    3.1270   35.2272 C.3     1  UNL1        0.0955
      9 C           2.6912    2.6657   33.9206 C.3     1  UNL1        0.0430
     10 C           1.7766    3.0478   32.7947 C.3     1  UNL1        0.0954
     11 C           0.2431    4.1857   27.3841 C.3     1  UNL1        0.0522
     12 C           0.2194    3.0110   28.3165 C.ar    1  UNL1        0.0634
     13 C          -0.5871    1.7947   27.9700 C.ar    1  UNL1        0.0296
     14 C          -0.6108    0.6199   28.9024 C.ar    1  UNL1        0.0634
     15 C          -1.4173   -0.5965   28.5560 C.3     1  UNL1        0.0522
     16 N           0.1721    0.6615   30.1812 N.ar    1  UNL1       -0.2180
     17 C           0.9787    1.8779   30.5277 C.ar    1  UNL1        0.2195
     18 N           1.0023    3.0526   29.5953 N.ar    1  UNL1       -0.2180
     19 C           4.8688    3.2915   37.9137 C.ar    1  UNL1        0.1003
     20 C           5.8972    4.3783   37.8078 C.ar    1  UNL1        0.1460
     21 F           7.0106    4.2625   36.8093 F       1  UNL1       -0.2040
     22 C           5.8123    5.5809   38.7005 C.ar    1  UNL1        0.0299
     23 C           4.6991    5.6967   39.6989 C.ar    1  UNL1        0.0039
     24 C           3.6705    4.6099   39.8049 C.ar    1  UNL1        0.0212
     25 C           3.7554    3.4074   38.9123 C.ar    1  UNL1        0.1094
     26 N           2.7270    2.3206   39.0182 N.ar    1  UNL1       -0.1476
     27 N           1.2814    2.4342   38.6341 N.ar    1  UNL1       -0.1447
     28 C           0.6246    1.1133   38.9054 C.ar    1  UNL1        0.1446
     29 C           1.6641    0.1833   39.4571 C.ar    1  UNL1        0.1446
     30 N           2.9634    0.9295   39.5269 N.ar    1  UNL1       -0.1447
@<TRIPOS>BOND
     1    11    12    1
     2    12    13   ar
     3    13    14   ar
     4    14    15    1
     5    14    16   ar
     6    16    17   ar
     7    17     1    1
     8     1     2    1
     9     3     2    1
    10     3     4    1
    11     4     5    1
    12     5     6   am
    13     6     7    2
    14     6    19    1
    15    19    20   ar
    16    20    21    1
    17    20    22   ar
    18    22    23   ar
    19    23    24   ar
    20    24    25   ar
    21    25    26    1
    22    26    27   ar
    23    27    28   ar
    24    28    29   ar
    25    29    30   ar
    26     5     8    1
    27     9     8    1
    28     9    10    1
    29    17    18   ar
    30    18    12   ar
    31    10     1    1
    32     9     3    1
    33    25    19   ar
    34    30    26   ar
@<TRIPOS>MOLECULE
*****
 30 34 0 0 0
SMALL
GASTEIGER

@<TRIPOS>ATOM
      1 N           2.2991   -0.5078   20.9526 N.pl3   1  UNL1       -0.2781
      2 C           2.2762    0.7434   21.7796 C.3     1  UNL1        0.0954
      3 C           1.1927    1.6324   21.2452 C.3     1  UNL1        0.0430
      4 C           0.5089    2.9552   21.4260 C.3     1  UNL1        0.0955
      5 N          -0.5604    3.0710   20.3804 N.am    1  UNL1       -0.2759
      6 C          -1.4895    4.2338   20.1945 C.2     1  UNL1        0.2527
      7 O          -1.3940    5.4230   21.1038 O.2     1  UNL1       -0.2698
      8 C          -0.5375    1.8197   19.5534 C.3     1  UNL1        0.0955
      9 C           0.5460    0.9307   20.0879 C.3     1  UNL1        0.0430
     10 C           1.2298   -0.3921   19.9071 C.3     1  UNL1        0.0954
     11 C           5.5356   -3.2464   23.9568 C.3     1  UNL1        0.0522
     12 C           4.8465   -3.0400   22.6406 C.ar    1  UNL1        0.0634
     13 C           5.0864   -3.9964   21.5102 C.ar    1  UNL1        0.0296
     14 C           4.3973   -3.7900   20.1940 C.ar    1  UNL1        0.0634
     15 C           4.6372   -4.7464   19.0637 C.3     1  UNL1        0.0522
     16 N           3.4682   -2.6271   20.0082 N.ar    1  UNL1       -0.2180
     17 C           3.2282   -1.6707   21.1385 C.ar    1  UNL1        0.2195
     18 N           3.9174   -1.8771   22.4547 N.ar    1  UNL1       -0.2180
     19 C          -2.5141    4.2075   19.0994 C.ar    1  UNL1        0.1003
     20 C          -2.0835    4.3167   17.6667 C.ar    1  UNL1        0.1460
     21 F          -0.6282    4.4522   17.3291 F       1  UNL1       -0.2040
     22 C          -3.1082    4.2904   16.5714 C.ar    1  UNL1        0.0299
     23 C          -4.5633    4.1549   16.9089 C.ar    1  UNL1        0.0039
     24 C          -4.9940    4.0457   18.3416 C.ar    1  UNL1        0.0212
     25 C          -3.9694    4.0720   19.4368 C.ar    1  UNL1        0.1094
     26 N          -4.4000    3.9628   20.8695 N.ar    1  UNL1       -0.1476
     27 N          -4.7860    5.1038   21.7635 N.ar    1  UNL1       -0.1447
     28 C          -5.1448    4.5396   23.1063 C.ar    1  UNL1        0.1446
     29 C          -4.9806    3.0500   23.0421 C.ar    1  UNL1        0.1446
     30 N          -4.5203    2.6936   21.6597 N.ar    1  UNL1       -0.1447
@<TRIPOS>BOND
     1    11    12    1
     2    12    13   ar
     3    13    14   ar
     4    14    15    1
     5    14    16   ar
     6    16    17   ar
     7    17     1    1
     8     1     2    1
     9     3     2    1
    10     3     4    1
    11     4     5    1
    12     5     6   am
    13     6     7    2
    14     6    19    1
    15    19    20   ar
    16    20    21    1
    17    20    22   ar
    18    22    23   ar
    19    23    24   ar
    20    24    25   ar
    21    25    26    1
    22    26    27   ar
    23    27    28   ar
    24    28    29   ar
    25    29    30   ar
    26     5     8    1
    27     9     8    1
    28     9    10    1
    29    17    18   ar
    30    18    12   ar
    31    10     1    1
    32     9     3    1
    33    25    19   ar
    34    30    26   ar
@<TRIPOS>MOLECULE
*****
 30 34 0 0 0
SMALL
GASTEIGER

@<TRIPOS>ATOM
      1 N           1.1025    2.7867   31.6167 N.pl3   1  UNL1       -0.2781
      2 C           0.5125    3.8429   32.5035 C.3     1  UNL1        0.0954
      3 C           1.3899    3.9758   33.7129 C.3     1  UNL1        0.0430
      4 C           1.5674    4.7107   35.0084 C.3     1  UNL1        0.0955
      5 N           2.8094    4.1910   35.6698 N.am    1  UNL1       -0.2759
      6 C           3.3640    4.6472   36.9866 C.2     1  UNL1        0.2527
      7 O           2.6608    5.7189   37.7658 O.2     1  UNL1       -0.2698
      8 C           3.3994    3.1347   34.7829 C.3     1  UNL1        0.0955
      9 C           2.5221    3.0018   33.5735 C.3     1  UNL1        0.0430
     10 C           2.3445    2.2669   32.2780 C.3     1  UNL1        0.0954
     11 C          -1.4768   -0.7342   28.7972 C.3     1  UNL1        0.0522
     12 C          -0.7417    0.5700   28.8900 C.ar    1  UNL1        0.0634
     13 C          -0.5612    1.4179   27.6659 C.ar    1  UNL1        0.0296
     14 C           0.1738    2.7222   27.7588 C.ar    1  UNL1        0.0634
     15 C           0.3544    3.5702   26.5348 C.3     1  UNL1        0.0522
     16 N           0.7284    3.1784   29.0757 N.ar    1  UNL1       -0.2180
     17 C           0.5479    2.3304   30.2998 C.ar    1  UNL1        0.2195
     18 N          -0.1872    1.0262   30.2070 N.ar    1  UNL1       -0.2180
     19 C           4.6218    4.0319   37.5244 C.ar    1  UNL1        0.1003
     20 C           5.9564    4.6078   37.1539 C.ar    1  UNL1        0.1460
     21 F           6.0331    5.7991   36.2457 F       1  UNL1       -0.2040
     22 C           7.2143    3.9925   37.6917 C.ar    1  UNL1        0.0299
     23 C           7.1376    2.8012   38.5999 C.ar    1  UNL1        0.0039
     24 C           5.8030    2.2252   38.9704 C.ar    1  UNL1        0.0212
     25 C           4.5452    2.8405   38.4326 C.ar    1  UNL1        0.1094
     26 N           3.2107    2.2645   38.8031 N.ar    1  UNL1       -0.1476
     27 N           2.2042    2.8913   39.7219 N.ar    1  UNL1       -0.1447
     28 C           1.0198    1.9748   39.8064 C.ar    1  UNL1        0.1446
     29 C           1.2942    0.7816   38.9399 C.ar    1  UNL1        0.1446
     30 N           2.6483    0.9607   38.3199 N.ar    1  UNL1       -0.1447
@<TRIPOS>BOND
     1    11    12    1
     2    12    13   ar
     3    13    14   ar
     4    14    15    1
     5    14    16   ar
     6    16    17   ar
     7    17     1    1
     8     1     2    1
     9     3     2    1
    10     3     4    1
    11     4     5    1
    12     5     6   am
    13     6     7    2
    14     6    19    1
    15    19    20   ar
    16    20    21    1
    17    20    22   ar
    18    22    23   ar
    19    23    24   ar
    20    24    25   ar
    21    25    26    1
    22    26    27   ar
    23    27    28   ar
    24    28    29   ar
    25    29    30   ar
    26     5     8    1
    27     9     8    1
    28     9    10    1
    29    17    18   ar
    30    18    12   ar
    31    10     1    1
    32     9     3    1
    33    25    19   ar
    34    30    26   ar
@<TRIPOS>MOLECULE
*****
 30 34 0 0 0
SMALL
GASTEIGER

@<TRIPOS>ATOM
      1 N           0.1707    2.1901   21.2563 N.pl3   1  UNL1       -0.2781
      2 C          -0.0867    1.4851   19.9575 C.3     1  UNL1        0.0954
      3 C           1.2354    1.0582   19.3920 C.3     1  UNL1        0.0430
      4 C           1.8935    0.3586   18.2398 C.3     1  UNL1        0.0955
      5 N           3.3746    0.3674   18.4769 N.am    1  UNL1       -0.2759
      6 C           4.4156   -0.2248   17.5739 C.2     1  UNL1        0.2527
      7 O           4.0057   -0.9030   16.3002 O.2     1  UNL1       -0.2698
      8 C           3.6319    1.0724   19.7757 C.3     1  UNL1        0.0955
      9 C           2.3098    1.4994   20.3412 C.3     1  UNL1        0.0430
     10 C           1.6518    2.1989   21.4934 C.3     1  UNL1        0.0954
     11 C          -1.3042    3.8109   25.9677 C.3     1  UNL1        0.0522
     12 C          -1.6078    3.5928   24.5150 C.ar    1  UNL1        0.0634
     13 C          -2.9524    3.9669   23.9655 C.ar    1  UNL1        0.0296
     14 C          -3.2560    3.7488   22.5128 C.ar    1  UNL1        0.0634
     15 C          -4.6006    4.1228   21.9631 C.3     1  UNL1        0.0522
     16 N          -2.2149    3.1565   21.6098 N.ar    1  UNL1       -0.2180
     17 C          -0.8703    2.7824   22.1593 C.ar    1  UNL1        0.2195
     18 N          -0.5668    3.0005   23.6120 N.ar    1  UNL1       -0.2180
     19 C           5.8666   -0.1389   17.9444 C.ar    1  UNL1        0.1003
     20 C           6.6843    1.0393   17.5050 C.ar    1  UNL1        0.1460
     21 F           6.0511    2.1316   16.6951 F       1  UNL1       -0.2040
     22 C           8.1354    1.1253   17.8755 C.ar    1  UNL1        0.0299
     23 C           8.7686    0.0330   18.6853 C.ar    1  UNL1        0.0039
     24 C           7.9509   -1.1453   19.1248 C.ar    1  UNL1        0.0212
     25 C           6.4999   -1.2312   18.7543 C.ar    1  UNL1        0.1094
     26 N           5.6821   -2.4094   19.1937 N.ar    1  UNL1       -0.1476
     27 N           5.1373   -2.6397   20.5721 N.ar    1  UNL1       -0.1447
     28 C           4.3841   -3.9368   20.5621 C.ar    1  UNL1        0.1446
     29 C           4.4634   -4.5082   19.1775 C.ar    1  UNL1        0.1446
     30 N           5.2656   -3.5642   18.3318 N.ar    1  UNL1       -0.1447
@<TRIPOS>BOND
     1    11    12    1
     2    12    13   ar
     3    13    14   ar
     4    14    15    1
     5    14    16   ar
     6    16    17   ar
     7    17     1    1
     8     1     2    1
     9     3     2    1
    10     3     4    1
    11     4     5    1
    12     5     6   am
    13     6     7    2
    14     6    19    1
    15    19    20   ar
    16    20    21    1
    17    20    22   ar
    18    22    23   ar
    19    23    24   ar
    20    24    25   ar
    21    25    26    1
    22    26    27   ar
    23    27    28   ar
    24    28    29   ar
    25    29    30   ar
    26     5     8    1
    27     9     8    1
    28     9    10    1
    29    17    18   ar
    30    18    12   ar
    31    10     1    1
    32     9     3    1
    33    25    19   ar
    34    30    26   ar
