@<TRIPOS>MOLECULE
*****
 32 34 0 0 0
SMALL
GASTEIGER

@<TRIPOS>ATOM
      1 C         -10.0460  -15.7004   21.2944 C.3     1  UNL1        0.1152
      2 N          -9.2014  -16.6612   22.0776 N.am    1  UNL1       -0.2740
      3 C          -8.0275  -16.1586   22.8648 C.2     1  UNL1        0.2303
      4 O          -7.6984  -14.6952   22.8687 O.2     1  UNL1       -0.2745
      5 C          -7.1829  -17.1194   23.6479 C.3     1  UNL1        0.1116
      6 C          -5.7616  -17.3728   23.2407 C.ar    1  UNL1       -0.0130
      7 C          -4.6966  -16.3693   23.5706 C.ar    1  UNL1       -0.0025
      8 C          -3.2754  -16.6226   23.1635 C.ar    1  UNL1        0.0155
      9 C          -2.9191  -17.8795   22.4264 C.ar    1  UNL1        0.0644
     10 C          -3.9840  -18.8830   22.0965 C.ar    1  UNL1        0.0155
     11 C          -5.4052  -18.6296   22.5037 C.ar    1  UNL1       -0.0025
     12 N          -1.4977  -18.1329   22.0192 N.pl3   1  UNL1       -0.2187
     13 H          -0.8314  -18.3949   22.6949 H       1  UNL1        0.1734
     14 S          -1.0917  -17.9869   20.5827 S.O2    1  UNL1        0.0558
     15 C          -0.6857  -17.8409   19.1460 C.3     1  UNL1        0.1996
     16 O          -1.0758  -19.4796   20.4355 O.2     1  UNL1       -0.1544
     17 O          -1.1077  -16.4943   20.7298 O.2     1  UNL1       -0.1544
     18 C          -9.5305  -18.1246   22.0737 C.3     1  UNL1        0.1138
     19 C          -9.3271  -18.9358   20.8285 C.ar    1  UNL1       -0.0029
     20 C          -7.9518  -19.4035   20.4544 C.ar    1  UNL1       -0.0026
     21 C          -7.7483  -20.2147   19.2092 C.ar    1  UNL1       -0.0003
     22 C          -8.9201  -20.5582   18.3380 C.ar    1  UNL1       -0.0000
     23 C         -10.2954  -20.0904   18.7121 C.ar    1  UNL1       -0.0003
     24 C         -10.4988  -19.2793   19.9573 C.ar    1  UNL1       -0.0026
     25 C         -10.0632  -18.7769   23.3150 C.3     1  UNL1        0.0968
     26 N         -11.4920  -18.5651   23.7195 N.3     1  UNL1       -0.2689
     27 C         -12.5634  -17.9392   22.8767 C.3     1  UNL1        0.0748
     28 C         -13.8338  -17.9292   23.6742 C.3     1  UNL1        0.0480
     29 C         -13.5476  -18.5490   25.0098 C.3     1  UNL1        0.1278
     30 O         -14.5353  -18.7419   26.1221 O.3     1  UNL1       -0.3830
     31 C         -12.1003  -18.9420   25.0378 C.3     1  UNL1        0.1017
     32 H         -14.0950  -19.1651   26.8757 H       1  UNL1        0.2104
@<TRIPOS>BOND
     1     1     2    1
     2     2     3   am
     3     3     4    2
     4     3     5    1
     5     5     6    1
     6     6     7   ar
     7     7     8   ar
     8     8     9   ar
     9     9    12    1
    10    12    14    1
    11    14    15    1
    12    14    16    2
    13    14    17    2
    14     9    10   ar
    15    10    11   ar
    16     2    18    1
    17    18    25    1
    18    25    26    1
    19    26    27    1
    20    27    28    1
    21    28    29    1
    22    29    30    1
    23    29    31    1
    24    18    19    1
    25    19    20   ar
    26    20    21   ar
    27    21    22   ar
    28    22    23   ar
    29    23    24   ar
    30    11     6   ar
    31    31    26    1
    32    24    19   ar
    33    12    13    1
    34    30    32    1
@<TRIPOS>MOLECULE
*****
 32 34 0 0 0
SMALL
GASTEIGER

@<TRIPOS>ATOM
      1 C          -8.8465  -17.0572   26.8808 C.3     1  UNL1        0.1152
      2 N          -8.2214  -16.4695   25.6505 N.am    1  UNL1       -0.2740
      3 C          -6.9525  -15.6769   25.7595 C.2     1  UNL1        0.2303
      4 O          -6.3088  -15.4722   27.0988 O.2     1  UNL1       -0.2745
      5 C          -6.3273  -15.0892   24.5291 C.3     1  UNL1        0.1116
      6 C          -5.1610  -15.7739   23.8802 C.ar    1  UNL1       -0.0130
      7 C          -4.3296  -15.0422   22.8686 C.ar    1  UNL1       -0.0025
      8 C          -3.1634  -15.7270   22.2198 C.ar    1  UNL1        0.0155
      9 C          -2.8286  -17.1434   22.5825 C.ar    1  UNL1        0.0644
     10 C          -3.6600  -17.8751   23.5941 C.ar    1  UNL1        0.0155
     11 C          -4.8262  -17.1904   24.2429 C.ar    1  UNL1       -0.0025
     12 N          -1.6624  -17.8282   21.9336 N.pl3   1  UNL1       -0.2187
     13 H          -0.9504  -18.2203   22.4891 H       1  UNL1        0.1734
     14 S          -1.5809  -17.9154   20.4384 S.O2    1  UNL1        0.0558
     15 C          -1.4993  -18.0025   18.9431 C.3     1  UNL1        0.1996
     16 O          -2.6308  -18.9866   20.4436 O.2     1  UNL1       -0.1544
     17 O          -0.5310  -16.8441   20.4331 O.2     1  UNL1       -0.1544
     18 C          -8.8651  -16.6742   24.3112 C.3     1  UNL1        0.1138
     19 C          -8.3911  -17.7773   23.4120 C.ar    1  UNL1       -0.0029
     20 C          -8.7464  -19.2015   23.7208 C.ar    1  UNL1       -0.0026
     21 C          -8.2724  -20.3046   22.8216 C.ar    1  UNL1       -0.0003
     22 C          -7.4430  -19.9835   21.6137 C.ar    1  UNL1       -0.0000
     23 C          -7.0877  -18.5592   21.3050 C.ar    1  UNL1       -0.0003
     24 C          -7.5617  -17.4562   22.2041 C.ar    1  UNL1       -0.0026
     25 C          -9.9828  -15.7759   23.8711 C.3     1  UNL1        0.0968
     26 N         -10.9025  -16.2084   22.7679 N.3     1  UNL1       -0.2689
     27 C         -12.0275  -17.1926   22.8928 C.3     1  UNL1        0.0748
     28 C         -12.6790  -17.3251   21.5481 C.3     1  UNL1        0.0480
     29 C         -11.9566  -16.4228   20.5922 C.3     1  UNL1        0.1278
     30 O         -12.2761  -16.2423   19.1377 O.3     1  UNL1       -0.3830
     31 C         -10.8587  -15.7326   21.3460 C.3     1  UNL1        0.1017
     32 H         -11.6590  -15.6033   18.7481 H       1  UNL1        0.2104
@<TRIPOS>BOND
     1     1     2    1
     2     2     3   am
     3     3     4    2
     4     3     5    1
     5     5     6    1
     6     6     7   ar
     7     7     8   ar
     8     8     9   ar
     9     9    12    1
    10    12    14    1
    11    14    15    1
    12    14    16    2
    13    14    17    2
    14     9    10   ar
    15    10    11   ar
    16     2    18    1
    17    18    25    1
    18    25    26    1
    19    26    27    1
    20    27    28    1
    21    28    29    1
    22    29    30    1
    23    29    31    1
    24    18    19    1
    25    19    20   ar
    26    20    21   ar
    27    21    22   ar
    28    22    23   ar
    29    23    24   ar
    30    11     6   ar
    31    31    26    1
    32    24    19   ar
    33    12    13    1
    34    30    32    1
@<TRIPOS>MOLECULE
*****
 32 34 0 0 0
SMALL
GASTEIGER

@<TRIPOS>ATOM
      1 C          -3.5579  -17.7910   25.4905 C.3     1  UNL1        0.1152
      2 N          -4.3093  -17.0065   24.4562 N.am    1  UNL1       -0.2740
      3 C          -5.3029  -15.9656   24.8799 C.2     1  UNL1        0.2303
      4 O          -5.5449  -15.7093   26.3379 O.2     1  UNL1       -0.2745
      5 C          -6.0543  -15.1810   23.8457 C.3     1  UNL1        0.1116
      6 C          -7.3828  -15.6714   23.3511 C.ar    1  UNL1       -0.0130
      7 C          -8.2469  -16.5186   24.2375 C.ar    1  UNL1       -0.0025
      8 C          -9.5753  -17.0089   23.7429 C.ar    1  UNL1        0.0155
      9 C         -10.0397  -16.6522   22.3619 C.ar    1  UNL1        0.0644
     10 C          -9.1757  -15.8051   21.4755 C.ar    1  UNL1        0.0155
     11 C          -7.8472  -15.3147   21.9701 C.ar    1  UNL1       -0.0025
     12 N         -11.3683  -17.1426   21.8673 N.pl3   1  UNL1       -0.2187
     13 H         -11.5374  -17.2148   20.9002 H       1  UNL1        0.1734
     14 S         -12.4391  -17.5232   22.8464 S.O2    1  UNL1        0.0558
     15 C         -13.5100  -17.9037   23.8255 C.3     1  UNL1        0.1996
     16 O         -11.9810  -18.9505   22.7927 O.2     1  UNL1       -0.1544
     17 O         -12.8972  -16.0959   22.9001 O.2     1  UNL1       -0.1544
     18 C          -4.0673  -17.2627   22.9983 C.3     1  UNL1        0.1138
     19 C          -4.7486  -18.4114   22.3154 C.ar    1  UNL1       -0.0029
     20 C          -3.9337  -19.4555   21.6113 C.ar    1  UNL1       -0.0026
     21 C          -4.6150  -20.6042   20.9284 C.ar    1  UNL1       -0.0003
     22 C          -6.1112  -20.7088   20.9497 C.ar    1  UNL1       -0.0000
     23 C          -6.9261  -19.6646   21.6538 C.ar    1  UNL1       -0.0003
     24 C          -6.2448  -18.5159   22.3367 C.ar    1  UNL1       -0.0026
     25 C          -3.1438  -16.3702   22.2231 C.3     1  UNL1        0.0968
     26 N          -2.2745  -16.9458   21.1447 N.3     1  UNL1       -0.2689
     27 C          -0.9771  -17.6700   21.3506 C.3     1  UNL1        0.0748
     28 C          -0.4507  -18.0701   20.0042 C.3     1  UNL1        0.0480
     29 C          -1.4228  -17.5932   18.9661 C.3     1  UNL1        0.1278
     30 O          -1.2909  -17.7785   17.4834 O.3     1  UNL1       -0.3830
     31 C          -2.5499  -16.8984   19.6709 C.3     1  UNL1        0.1017
     32 H          -2.0535  -17.3770   17.0383 H       1  UNL1        0.2104
@<TRIPOS>BOND
     1     1     2    1
     2     2     3   am
     3     3     4    2
     4     3     5    1
     5     5     6    1
     6     6     7   ar
     7     7     8   ar
     8     8     9   ar
     9     9    12    1
    10    12    14    1
    11    14    15    1
    12    14    16    2
    13    14    17    2
    14     9    10   ar
    15    10    11   ar
    16     2    18    1
    17    18    25    1
    18    25    26    1
    19    26    27    1
    20    27    28    1
    21    28    29    1
    22    29    30    1
    23    29    31    1
    24    18    19    1
    25    19    20   ar
    26    20    21   ar
    27    21    22   ar
    28    22    23   ar
    29    23    24   ar
    30    11     6   ar
    31    31    26    1
    32    24    19   ar
    33    12    13    1
    34    30    32    1
@<TRIPOS>MOLECULE
*****
 32 34 0 0 0
SMALL
GASTEIGER

@<TRIPOS>ATOM
      1 C          -9.5681  -17.7903   26.3501 C.3     1  UNL1        0.1152
      2 N          -8.9700  -17.4345   25.0213 N.am    1  UNL1       -0.2740
      3 C          -7.9499  -16.3387   24.9272 C.2     1  UNL1        0.2303
      4 O          -7.5280  -15.5988   26.1619 O.2     1  UNL1       -0.2745
      5 C          -7.3519  -15.9829   23.5985 C.3     1  UNL1        0.1116
      6 C          -5.9342  -16.3625   23.2883 C.ar    1  UNL1       -0.0130
      7 C          -4.9134  -15.2962   23.0218 C.ar    1  UNL1       -0.0025
      8 C          -3.4958  -15.6758   22.7116 C.ar    1  UNL1        0.0155
      9 C          -3.0990  -17.1217   22.6678 C.ar    1  UNL1        0.0644
     10 C          -4.1198  -18.1879   22.9343 C.ar    1  UNL1        0.0155
     11 C          -5.5373  -17.8083   23.2445 C.ar    1  UNL1       -0.0025
     12 N          -1.6813  -17.5012   22.3576 N.pl3   1  UNL1       -0.2187
     13 H          -1.0070  -17.5144   23.0749 H       1  UNL1        0.1734
     14 S          -1.2910  -17.8607   20.9547 S.O2    1  UNL1        0.0558
     15 C          -0.9007  -18.2203   19.5516 C.3     1  UNL1        0.1996
     16 O          -1.0629  -16.4106   20.6465 O.2     1  UNL1       -0.1544
     17 O          -1.5191  -19.3109   21.2628 O.2     1  UNL1       -0.1544
     18 C          -9.3919  -18.1745   23.7866 C.3     1  UNL1        0.1138
     19 C         -10.4343  -17.5890   22.8809 C.ar    1  UNL1       -0.0029
     20 C         -11.8512  -18.0757   22.9550 C.ar    1  UNL1       -0.0026
     21 C         -12.8937  -17.4903   22.0492 C.ar    1  UNL1       -0.0003
     22 C         -12.5193  -16.4181   21.0692 C.ar    1  UNL1       -0.0000
     23 C         -11.1024  -15.9314   20.9951 C.ar    1  UNL1       -0.0003
     24 C         -10.0599  -16.5168   21.9009 C.ar    1  UNL1       -0.0026
     25 C          -8.7713  -19.4999   23.4578 C.3     1  UNL1        0.0968
     26 N          -7.9467  -19.6540   22.2143 N.3     1  UNL1       -0.2689
     27 C          -8.1705  -18.9407   20.9139 C.3     1  UNL1        0.0748
     28 C          -7.1156  -19.3943   19.9488 C.3     1  UNL1        0.0480
     29 C          -6.2398  -20.3881   20.6527 C.3     1  UNL1        0.1278
     30 O          -5.0579  -21.0969   20.0605 O.3     1  UNL1       -0.3830
     31 C          -6.7535  -20.5486   22.0529 C.3     1  UNL1        0.1017
     32 H          -4.6667  -21.6846   20.7257 H       1  UNL1        0.2104
@<TRIPOS>BOND
     1     1     2    1
     2     2     3   am
     3     3     4    2
     4     3     5    1
     5     5     6    1
     6     6     7   ar
     7     7     8   ar
     8     8     9   ar
     9     9    12    1
    10    12    14    1
    11    14    15    1
    12    14    16    2
    13    14    17    2
    14     9    10   ar
    15    10    11   ar
    16     2    18    1
    17    18    25    1
    18    25    26    1
    19    26    27    1
    20    27    28    1
    21    28    29    1
    22    29    30    1
    23    29    31    1
    24    18    19    1
    25    19    20   ar
    26    20    21   ar
    27    21    22   ar
    28    22    23   ar
    29    23    24   ar
    30    11     6   ar
    31    31    26    1
    32    24    19   ar
    33    12    13    1
    34    30    32    1
@<TRIPOS>MOLECULE
*****
 32 34 0 0 0
SMALL
GASTEIGER

@<TRIPOS>ATOM
      1 C           6.8423    3.3736   37.3836 C.3     1  UNL1        0.1152
      2 N           5.8949    2.3233   36.8845 N.am    1  UNL1       -0.2740
      3 C           6.3101    0.8819   36.8755 C.2     1  UNL1        0.2303
      4 O           7.6728    0.4909   37.3656 O.2     1  UNL1       -0.2745
      5 C           5.3627   -0.1684   36.3764 C.3     1  UNL1        0.1116
      6 C           5.4686   -0.6642   34.9646 C.ar    1  UNL1       -0.0130
      7 C           4.2827   -1.3004   34.3021 C.ar    1  UNL1       -0.0025
      8 C           4.3886   -1.7962   32.8904 C.ar    1  UNL1        0.0155
      9 C           5.6805   -1.6557   32.1412 C.ar    1  UNL1        0.0644
     10 C           6.8664   -1.0195   32.8036 C.ar    1  UNL1        0.0155
     11 C           6.7604   -0.5237   34.2153 C.ar    1  UNL1       -0.0025
     12 N           5.7864   -2.1515   30.7294 N.pl3   1  UNL1       -0.2187
     13 H           5.0770   -1.9422   30.0796 H       1  UNL1        0.1734
     14 S           6.9731   -2.9661   30.3076 S.O2    1  UNL1        0.0558
     15 C           8.1599   -3.7809   29.8858 C.3     1  UNL1        0.1996
     16 O           7.4154   -1.8538   29.4037 O.2     1  UNL1       -0.1544
     17 O           6.5308   -4.0784   31.2115 O.2     1  UNL1       -0.1544
     18 C           4.5322    2.7143   36.3944 C.3     1  UNL1        0.1138
     19 C           4.1568    2.4857   34.9602 C.ar    1  UNL1       -0.0029
     20 C           2.7720    2.0270   34.6114 C.ar    1  UNL1       -0.0026
     21 C           2.3965    1.7983   33.1772 C.ar    1  UNL1       -0.0003
     22 C           3.4060    2.0284   32.0919 C.ar    1  UNL1       -0.0000
     23 C           4.7910    2.4871   32.4408 C.ar    1  UNL1       -0.0003
     24 C           5.1663    2.7157   33.8749 C.ar    1  UNL1       -0.0026
     25 C           3.5448    3.3340   37.3385 C.3     1  UNL1        0.0968
     26 N           2.5745    2.4668   38.0844 N.3     1  UNL1       -0.2689
     27 C           1.2683    2.9102   38.6738 C.3     1  UNL1        0.0748
     28 C           0.6265    1.7215   39.3256 C.3     1  UNL1        0.0480
     29 C           1.5359    0.5433   39.1391 C.3     1  UNL1        0.1278
     30 O           1.2855   -0.8507   39.6329 O.3     1  UNL1       -0.3830
     31 C           2.7399    1.0040   38.3720 C.3     1  UNL1        0.1017
     32 H           2.0279   -1.4216   39.3801 H       1  UNL1        0.2104
@<TRIPOS>BOND
     1     1     2    1
     2     2     3   am
     3     3     4    2
     4     3     5    1
     5     5     6    1
     6     6     7   ar
     7     7     8   ar
     8     8     9   ar
     9     9    12    1
    10    12    14    1
    11    14    15    1
    12    14    16    2
    13    14    17    2
    14     9    10   ar
    15    10    11   ar
    16     2    18    1
    17    18    25    1
    18    25    26    1
    19    26    27    1
    20    27    28    1
    21    28    29    1
    22    29    30    1
    23    29    31    1
    24    18    19    1
    25    19    20   ar
    26    20    21   ar
    27    21    22   ar
    28    22    23   ar
    29    23    24   ar
    30    11     6   ar
    31    31    26    1
    32    24    19   ar
    33    12    13    1
    34    30    32    1
@<TRIPOS>MOLECULE
*****
 32 34 0 0 0
SMALL
GASTEIGER

@<TRIPOS>ATOM
      1 C           7.1739    1.1368   19.5184 C.3     1  UNL1        0.1152
      2 N           5.8718    0.3926   19.4953 N.am    1  UNL1       -0.2740
      3 C           4.9886    0.4637   18.2848 C.2     1  UNL1        0.2303
      4 O           5.4077    1.2790   17.0976 O.2     1  UNL1       -0.2745
      5 C           3.6865   -0.2805   18.2617 C.3     1  UNL1        0.1116
      6 C           2.4667    0.3223   18.8932 C.ar    1  UNL1       -0.0130
      7 C           2.1349    1.7658   18.6559 C.ar    1  UNL1       -0.0025
      8 C           0.9152    2.3686   19.2874 C.ar    1  UNL1        0.0155
      9 C           0.0273    1.5280   20.1563 C.ar    1  UNL1        0.0644
     10 C           0.3591    0.0845   20.3936 C.ar    1  UNL1        0.0155
     11 C           1.5788   -0.5183   19.7621 C.ar    1  UNL1       -0.0025
     12 N          -1.1925    2.1309   20.7878 N.pl3   1  UNL1       -0.2187
     13 H          -2.0164    1.5988   20.8736 H       1  UNL1        0.1734
     14 S          -1.1569    3.5443   21.2886 S.O2    1  UNL1        0.0558
     15 C          -1.1214    4.9578   21.7894 C.3     1  UNL1        0.1996
     16 O          -0.3400    3.1059   22.4678 O.2     1  UNL1       -0.1544
     17 O          -1.9738    3.9827   20.1095 O.2     1  UNL1       -0.1544
     18 C           5.4527   -0.4228   20.6826 C.3     1  UNL1        0.1138
     19 C           4.4727    0.1386   21.6697 C.ar    1  UNL1       -0.0029
     20 C           4.2201    1.6163   21.7182 C.ar    1  UNL1       -0.0026
     21 C           3.2401    2.1777   22.7054 C.ar    1  UNL1       -0.0003
     22 C           2.5126    1.2613   23.6439 C.ar    1  UNL1       -0.0000
     23 C           2.7652   -0.2166   23.5953 C.ar    1  UNL1       -0.0003
     24 C           3.7452   -0.7779   22.6082 C.ar    1  UNL1       -0.0026
     25 C           6.0137   -1.7995   20.8827 C.3     1  UNL1        0.0968
     26 N           5.3191   -2.9867   20.2842 N.3     1  UNL1       -0.2689
     27 C           5.3496   -3.3905   18.8400 C.3     1  UNL1        0.0748
     28 C           4.5214   -4.6319   18.6881 C.3     1  UNL1        0.0480
     29 C           3.9790   -4.9953   20.0386 C.3     1  UNL1        0.1278
     30 O           3.0982   -6.1693   20.3482 O.3     1  UNL1       -0.3830
     31 C           4.4720   -3.9785   21.0250 C.3     1  UNL1        0.1017
     32 H           2.8897   -6.1762   21.2955 H       1  UNL1        0.2104
@<TRIPOS>BOND
     1     1     2    1
     2     2     3   am
     3     3     4    2
     4     3     5    1
     5     5     6    1
     6     6     7   ar
     7     7     8   ar
     8     8     9   ar
     9     9    12    1
    10    12    14    1
    11    14    15    1
    12    14    16    2
    13    14    17    2
    14     9    10   ar
    15    10    11   ar
    16     2    18    1
    17    18    25    1
    18    25    26    1
    19    26    27    1
    20    27    28    1
    21    28    29    1
    22    29    30    1
    23    29    31    1
    24    18    19    1
    25    19    20   ar
    26    20    21   ar
    27    21    22   ar
    28    22    23   ar
    29    23    24   ar
    30    11     6   ar
    31    31    26    1
    32    24    19   ar
    33    12    13    1
    34    30    32    1
@<TRIPOS>MOLECULE
*****
 32 34 0 0 0
SMALL
GASTEIGER

@<TRIPOS>ATOM
      1 C           4.2658    0.2311   17.8744 C.3     1  UNL1        0.1152
      2 N           3.9559   -0.8830   18.8297 N.am    1  UNL1       -0.2740
      3 C           4.5559   -2.2414   18.6178 C.2     1  UNL1        0.2303
      4 O           5.4658   -2.4856   17.4505 O.2     1  UNL1       -0.2745
      5 C           4.2461   -3.3555   19.5731 C.3     1  UNL1        0.1116
      6 C           5.1819   -3.6533   20.7070 C.ar    1  UNL1       -0.0130
      7 C           4.6605   -3.7209   22.1118 C.ar    1  UNL1       -0.0025
      8 C           5.5963   -4.0187   23.2456 C.ar    1  UNL1        0.0155
      9 C           7.0536   -4.2489   22.9745 C.ar    1  UNL1        0.0644
     10 C           7.5750   -4.1814   21.5697 C.ar    1  UNL1        0.0155
     11 C           6.6392   -3.8836   20.4360 C.ar    1  UNL1       -0.0025
     12 N           7.9894   -4.5467   24.1084 N.pl3   1  UNL1       -0.2187
     13 H           8.8020   -4.0048   24.2313 H       1  UNL1        0.1734
     14 S           7.6870   -5.6703   25.0551 S.O2    1  UNL1        0.0558
     15 C           7.3847   -6.7939   26.0017 C.3     1  UNL1        0.1996
     16 O           7.5097   -4.6830   26.1702 O.2     1  UNL1       -0.1544
     17 O           7.8644   -6.6576   23.9399 O.2     1  UNL1       -0.1544
     18 C           3.0460   -0.6389   19.9970 C.3     1  UNL1        0.1138
     19 C           3.6219   -0.4325   21.3665 C.ar    1  UNL1       -0.0029
     20 C           2.7649   -0.6411   22.5797 C.ar    1  UNL1       -0.0026
     21 C           3.3408   -0.4347   23.9494 C.ar    1  UNL1       -0.0003
     22 C           4.7737   -0.0197   24.1057 C.ar    1  UNL1       -0.0000
     23 C           5.6308    0.1889   22.8924 C.ar    1  UNL1       -0.0003
     24 C           5.0549   -0.0175   21.5229 C.ar    1  UNL1       -0.0026
     25 C           1.5602   -0.6011   19.7946 C.3     1  UNL1        0.0968
     26 N           0.8595    0.7144   19.6257 N.3     1  UNL1       -0.2689
     27 C           0.0576    1.4273   20.6739 C.3     1  UNL1        0.0748
     28 C          -0.4598    2.7015   20.0749 C.3     1  UNL1        0.0480
     29 C           0.0222    2.7760   18.6564 C.3     1  UNL1        0.1278
     30 O          -0.2613    3.8841   17.6860 O.3     1  UNL1       -0.3830
     31 C           0.8376    1.5480   18.3788 C.3     1  UNL1        0.1017
     32 H           0.1665    3.6883   16.8377 H       1  UNL1        0.2104
@<TRIPOS>BOND
     1     1     2    1
     2     2     3   am
     3     3     4    2
     4     3     5    1
     5     5     6    1
     6     6     7   ar
     7     7     8   ar
     8     8     9   ar
     9     9    12    1
    10    12    14    1
    11    14    15    1
    12    14    16    2
    13    14    17    2
    14     9    10   ar
    15    10    11   ar
    16     2    18    1
    17    18    25    1
    18    25    26    1
    19    26    27    1
    20    27    28    1
    21    28    29    1
    22    29    30    1
    23    29    31    1
    24    18    19    1
    25    19    20   ar
    26    20    21   ar
    27    21    22   ar
    28    22    23   ar
    29    23    24   ar
    30    11     6   ar
    31    31    26    1
    32    24    19   ar
    33    12    13    1
    34    30    32    1
@<TRIPOS>MOLECULE
*****
 32 34 0 0 0
SMALL
GASTEIGER

@<TRIPOS>ATOM
      1 C           8.0984   -2.1284   20.1910 C.3     1  UNL1        0.1152
      2 N           6.6225   -2.3710   20.0781 N.am    1  UNL1       -0.2740
      3 C           5.9635   -2.3719   18.7306 C.2     1  UNL1        0.2303
      4 O           6.7805   -2.1302   17.4960 O.2     1  UNL1       -0.2745
      5 C           4.4876   -2.6144   18.6176 C.3     1  UNL1        0.1116
      6 C           3.5241   -1.4818   18.8148 C.ar    1  UNL1       -0.0130
      7 C           3.7149   -0.1959   18.0664 C.ar    1  UNL1       -0.0025
      8 C           2.7514    0.9367   18.2636 C.ar    1  UNL1        0.0155
      9 C           1.5972    0.7834   19.2092 C.ar    1  UNL1        0.0644
     10 C           1.4064   -0.5024   19.9576 C.ar    1  UNL1        0.0155
     11 C           2.3699   -1.6350   19.7604 C.ar    1  UNL1       -0.0025
     12 N           0.6337    1.9161   19.4064 N.pl3   1  UNL1       -0.2187
     13 H           0.1907    2.3265   18.6289 H       1  UNL1        0.1734
     14 S           0.3451    2.4234   20.7882 S.O2    1  UNL1        0.0558
     15 C           0.0566    2.9306   22.1700 C.3     1  UNL1        0.1996
     16 O           1.7404    2.9663   20.8802 O.2     1  UNL1       -0.1544
     17 O          -1.0501    1.8804   20.6962 O.2     1  UNL1       -0.1544
     18 C           5.8055   -2.6126   21.3127 C.3     1  UNL1        0.1138
     19 C           5.0337   -1.4863   21.9336 C.ar    1  UNL1       -0.0029
     20 C           5.3114   -0.0707   21.5227 C.ar    1  UNL1       -0.0026
     21 C           4.5395    1.0557   22.1436 C.ar    1  UNL1       -0.0003
     22 C           3.4899    0.7664   23.1755 C.ar    1  UNL1       -0.0000
     23 C           3.2122   -0.6493   23.5863 C.ar    1  UNL1       -0.0003
     24 C           3.9841   -1.7756   22.9654 C.ar    1  UNL1       -0.0026
     25 C           5.7604   -3.9807   21.9263 C.3     1  UNL1        0.0968
     26 N           6.7718   -4.3714   22.9628 N.3     1  UNL1       -0.2689
     27 C           8.1256   -4.9597   22.6960 C.3     1  UNL1        0.0748
     28 C           8.7975   -5.1944   24.0165 C.3     1  UNL1        0.0480
     29 C           7.8590   -4.7511   25.0993 C.3     1  UNL1        0.1278
     30 O           8.1255   -4.8066   26.5744 O.3     1  UNL1       -0.3830
     31 C           6.6071   -4.2425   24.4481 C.3     1  UNL1        0.1017
     32 H           7.3576   -4.4599   27.0550 H       1  UNL1        0.2104
@<TRIPOS>BOND
     1     1     2    1
     2     2     3   am
     3     3     4    2
     4     3     5    1
     5     5     6    1
     6     6     7   ar
     7     7     8   ar
     8     8     9   ar
     9     9    12    1
    10    12    14    1
    11    14    15    1
    12    14    16    2
    13    14    17    2
    14     9    10   ar
    15    10    11   ar
    16     2    18    1
    17    18    25    1
    18    25    26    1
    19    26    27    1
    20    27    28    1
    21    28    29    1
    22    29    30    1
    23    29    31    1
    24    18    19    1
    25    19    20   ar
    26    20    21   ar
    27    21    22   ar
    28    22    23   ar
    29    23    24   ar
    30    11     6   ar
    31    31    26    1
    32    24    19   ar
    33    12    13    1
    34    30    32    1
@<TRIPOS>MOLECULE
*****
 32 34 0 0 0
SMALL
GASTEIGER

@<TRIPOS>ATOM
      1 C           5.6164   -2.5388   17.8548 C.3     1  UNL1        0.1152
      2 N           5.1535   -2.0533   19.1964 N.am    1  UNL1       -0.2740
      3 C           3.9907   -2.7162   19.8736 C.2     1  UNL1        0.2303
      4 O           3.2910   -3.8647   19.2093 O.2     1  UNL1       -0.2745
      5 C           3.5277   -2.2306   21.2152 C.3     1  UNL1        0.1116
      6 C           2.5543   -1.0929   21.3061 C.ar    1  UNL1       -0.0130
      7 C           2.6259   -0.1349   22.4580 C.ar    1  UNL1       -0.0025
      8 C           1.6525    1.0028   22.5489 C.ar    1  UNL1        0.0155
      9 C           0.6076    1.1824   21.4878 C.ar    1  UNL1        0.0644
     10 C           0.5361    0.2244   20.3358 C.ar    1  UNL1        0.0155
     11 C           1.5095   -0.9133   20.2450 C.ar    1  UNL1       -0.0025
     12 N          -0.3658    2.3201   21.5786 N.pl3   1  UNL1       -0.2187
     13 H          -0.7201    2.5960   22.4548 H       1  UNL1        0.1734
     14 S          -0.7993    3.0374   20.3347 S.O2    1  UNL1        0.0558
     15 C          -1.2328    3.7548   19.0907 C.3     1  UNL1        0.1996
     16 O          -2.1762    2.4610   20.4822 O.2     1  UNL1       -0.1544
     17 O           0.5776    3.6139   20.1872 O.2     1  UNL1       -0.1544
     18 C           5.8532   -0.9048   19.8607 C.3     1  UNL1        0.1138
     19 C           5.2573    0.4705   19.8042 C.ar    1  UNL1       -0.0029
     20 C           4.3604    0.8530   18.6643 C.ar    1  UNL1       -0.0026
     21 C           3.7644    2.2284   18.6078 C.ar    1  UNL1       -0.0003
     22 C           4.0654    3.2213   19.6910 C.ar    1  UNL1       -0.0000
     23 C           4.9623    2.8388   20.8309 C.ar    1  UNL1       -0.0003
     24 C           5.5583    1.4635   20.8875 C.ar    1  UNL1       -0.0026
     25 C           7.1489   -1.1317   20.5817 C.3     1  UNL1        0.0968
     26 N           7.4474   -2.4729   21.1835 N.3     1  UNL1       -0.2689
     27 C           7.1440   -2.8953   22.5904 C.3     1  UNL1        0.0748
     28 C           7.6108   -4.3106   22.7605 C.3     1  UNL1        0.0480
     29 C           8.2028   -4.7630   21.4586 C.3     1  UNL1        0.1278
     30 O           8.7922   -6.1139   21.1802 O.3     1  UNL1       -0.3830
     31 C           8.1018   -3.6272   20.4840 C.3     1  UNL1        0.1017
     32 H           9.1043   -6.1476   20.2624 H       1  UNL1        0.2104
@<TRIPOS>BOND
     1     1     2    1
     2     2     3   am
     3     3     4    2
     4     3     5    1
     5     5     6    1
     6     6     7   ar
     7     7     8   ar
     8     8     9   ar
     9     9    12    1
    10    12    14    1
    11    14    15    1
    12    14    16    2
    13    14    17    2
    14     9    10   ar
    15    10    11   ar
    16     2    18    1
    17    18    25    1
    18    25    26    1
    19    26    27    1
    20    27    28    1
    21    28    29    1
    22    29    30    1
    23    29    31    1
    24    18    19    1
    25    19    20   ar
    26    20    21   ar
    27    21    22   ar
    28    22    23   ar
    29    23    24   ar
    30    11     6   ar
    31    31    26    1
    32    24    19   ar
    33    12    13    1
    34    30    32    1
