@<TRIPOS>MOLECULE
*****
 28 32 0 0 0
SMALL
GASTEIGER

@<TRIPOS>ATOM
      1 O          -7.4620  -14.6527   24.5341 O.2     1  UNL1       -0.2638
      2 C          -7.3595  -15.9942   23.8706 C.2     1  UNL1        0.3160
      3 N          -6.0358  -16.4778   23.3572 N.am    1  UNL1       -0.1721
      4 C          -5.9333  -17.8192   22.6937 C.ar    1  UNL1        0.0772
      5 C          -4.6095  -18.3029   22.1803 C.ar    1  UNL1        0.0128
      6 C          -4.5071  -19.6442   21.5169 C.ar    1  UNL1       -0.0165
      7 C          -5.7285  -20.5020   21.3669 C.ar    1  UNL1       -0.0037
      8 C          -7.0523  -20.0184   21.8803 C.ar    1  UNL1        0.0048
      9 C          -7.1547  -18.6770   22.5438 C.ar    1  UNL1        0.0623
     10 C          -8.4785  -18.1933   23.0572 C.2     1  UNL1        0.2419
     11 N          -9.8443  -18.8133   23.0518 N.2     1  UNL1       -0.0302
     12 C         -10.7909  -17.8550   23.7118 C.2     1  UNL1        0.3765
     13 N         -10.0101  -16.6429   24.1252 N.2     1  UNL1       -0.0256
     14 C          -8.5809  -16.8519   23.7207 C.2     1  UNL1        0.2907
     15 C         -12.2605  -18.0711   23.9217 C.ar    1  UNL1        0.0989
     16 C         -12.7830  -18.3957   25.2897 C.ar    1  UNL1        0.0085
     17 C         -14.2524  -18.6117   25.4995 C.ar    1  UNL1        0.0003
     18 C         -15.1993  -18.5031   24.3412 C.ar    1  UNL1        0.0009
     19 C         -14.6768  -18.1785   22.9732 C.ar    1  UNL1        0.0116
     20 C         -13.2074  -17.9625   22.7634 C.ar    1  UNL1        0.0651
     21 CL        -12.6848  -17.6379   21.3953 Cl      1  UNL1       -0.0820
     22 C          -3.1833  -20.1279   21.0034 C.3     1  UNL1        0.0527
     23 C          -2.2827  -19.1922   20.2527 C.ar    1  UNL1       -0.0178
     24 C          -2.7258  -18.6164   18.9403 C.ar    1  UNL1       -0.0039
     25 C          -1.8253  -17.6807   18.1896 C.ar    1  UNL1       -0.0003
     26 C          -0.4817  -17.3208   18.7513 C.ar    1  UNL1       -0.0000
     27 C          -0.0388  -17.8965   20.0637 C.ar    1  UNL1       -0.0003
     28 C          -0.9393  -18.8322   20.8144 C.ar    1  UNL1       -0.0039
@<TRIPOS>BOND
     1     1     2    2
     2     2     3    1
     3     3     4    2
     4     4     5   ar
     5     5     6   ar
     6     6    22    1
     7    22    23    1
     8    23    24   ar
     9    24    25   ar
    10    25    26   ar
    11    26    27   ar
    12    27    28   ar
    13     6     7   ar
    14     7     8   ar
    15     8     9   ar
    16     9    10    2
    17    10    11    1
    18    11    12    2
    19    12    15    1
    20    15    16   ar
    21    16    17   ar
    22    17    18   ar
    23    18    19   ar
    24    19    20   ar
    25    20    21    1
    26    12    13    1
    27    13    14    2
    28    14     2    1
    29     9     4   ar
    30    14    10    1
    31    28    23   ar
    32    20    15   ar
@<TRIPOS>MOLECULE
*****
 28 32 0 0 0
SMALL
GASTEIGER

@<TRIPOS>ATOM
      1 O           4.9592   -0.8148   26.2435 O.2     1  UNL1       -0.2638
      2 C           4.7068   -1.3175   24.8530 C.2     1  UNL1        0.3160
      3 N           3.7735   -0.5736   23.9444 N.am    1  UNL1       -0.1721
      4 C           3.5210   -1.0762   22.5538 C.ar    1  UNL1        0.0772
      5 C           2.5877   -0.3323   21.6453 C.ar    1  UNL1        0.0128
      6 C           2.3353   -0.8350   20.2548 C.ar    1  UNL1       -0.0165
      7 C           3.0162   -2.0816   19.7728 C.ar    1  UNL1       -0.0037
      8 C           3.9495   -2.8255   20.6814 C.ar    1  UNL1        0.0048
      9 C           4.2019   -2.3228   22.0719 C.ar    1  UNL1        0.0623
     10 C           5.1353   -3.0668   22.9805 C.2     1  UNL1        0.2419
     11 N           5.9436   -4.3151   22.7849 N.2     1  UNL1       -0.0302
     12 C           6.6956   -4.5839   24.0547 C.2     1  UNL1        0.3765
     13 N           6.3521   -3.5018   25.0349 N.2     1  UNL1       -0.0256
     14 C           5.3877   -2.5641   24.3710 C.2     1  UNL1        0.2907
     15 C           7.6277   -5.7332   24.3009 C.ar    1  UNL1        0.0989
     16 C           8.6028   -6.1488   23.2396 C.ar    1  UNL1        0.0085
     17 C           9.5347   -7.2980   23.4859 C.ar    1  UNL1        0.0003
     18 C           9.4915   -8.0317   24.7935 C.ar    1  UNL1        0.0009
     19 C           8.5164   -7.6161   25.8548 C.ar    1  UNL1        0.0116
     20 C           7.5845   -6.4669   25.6085 C.ar    1  UNL1        0.0651
     21 CL          6.6093   -6.0513   26.6699 Cl      1  UNL1       -0.0820
     22 C           1.4019   -0.0911   19.3462 C.3     1  UNL1        0.0527
     23 C           1.7185    1.3164   18.9353 C.ar    1  UNL1       -0.0178
     24 C           3.1358    1.7119   18.6439 C.ar    1  UNL1       -0.0039
     25 C           3.4523    3.1194   18.2330 C.ar    1  UNL1       -0.0003
     26 C           2.3515    4.1313   18.1134 C.ar    1  UNL1       -0.0000
     27 C           0.9343    3.7358   18.4048 C.ar    1  UNL1       -0.0003
     28 C           0.6178    2.3284   18.8158 C.ar    1  UNL1       -0.0039
@<TRIPOS>BOND
     1     1     2    2
     2     2     3    1
     3     3     4    2
     4     4     5   ar
     5     5     6   ar
     6     6    22    1
     7    22    23    1
     8    23    24   ar
     9    24    25   ar
    10    25    26   ar
    11    26    27   ar
    12    27    28   ar
    13     6     7   ar
    14     7     8   ar
    15     8     9   ar
    16     9    10    2
    17    10    11    1
    18    11    12    2
    19    12    15    1
    20    15    16   ar
    21    16    17   ar
    22    17    18   ar
    23    18    19   ar
    24    19    20   ar
    25    20    21    1
    26    12    13    1
    27    13    14    2
    28    14     2    1
    29     9     4   ar
    30    14    10    1
    31    28    23   ar
    32    20    15   ar
@<TRIPOS>MOLECULE
*****
 28 32 0 0 0
SMALL
GASTEIGER

@<TRIPOS>ATOM
      1 O           0.0504    6.2257   18.2719 O.2     1  UNL1       -0.2638
      2 C           0.0781    4.8081   18.7616 C.2     1  UNL1        0.3160
      3 N           1.2401    3.9211   18.4255 N.am    1  UNL1       -0.1721
      4 C           1.2677    2.5035   18.9151 C.ar    1  UNL1        0.0772
      5 C           2.4297    1.6165   18.5790 C.ar    1  UNL1        0.0128
      6 C           2.4573    0.1989   19.0686 C.ar    1  UNL1       -0.0165
      7 C           1.3230   -0.3316   19.8944 C.ar    1  UNL1       -0.0037
      8 C           0.1610    0.5554   20.2305 C.ar    1  UNL1        0.0048
      9 C           0.1334    1.9730   19.7408 C.ar    1  UNL1        0.0623
     10 C          -1.0286    2.8601   20.0769 C.2     1  UNL1        0.2419
     11 N          -2.2809    2.6177   20.8662 N.2     1  UNL1       -0.0302
     12 C          -3.0825    3.8856   20.8644 C.2     1  UNL1        0.3765
     13 N          -2.3256    4.9114   20.0740 N.2     1  UNL1       -0.0256
     14 C          -1.0562    4.2776   19.5873 C.2     1  UNL1        0.2907
     15 C          -4.4084    4.0914   21.5352 C.ar    1  UNL1        0.0989
     16 C          -5.6150    4.4474   20.7183 C.ar    1  UNL1        0.0085
     17 C          -6.9407    4.6532   21.3891 C.ar    1  UNL1        0.0003
     18 C          -7.0598    4.5030   22.8768 C.ar    1  UNL1        0.0009
     19 C          -5.8532    4.1470   23.6937 C.ar    1  UNL1        0.0116
     20 C          -4.5275    3.9412   23.0229 C.ar    1  UNL1        0.0651
     21 CL         -3.3208    3.5852   23.8398 Cl      1  UNL1       -0.0820
     22 C           3.6193   -0.6882   18.7325 C.3     1  UNL1        0.0527
     23 C           3.8916   -1.9118   19.5563 C.ar    1  UNL1       -0.0178
     24 C           4.4168   -1.7729   20.9546 C.ar    1  UNL1       -0.0039
     25 C           4.6891   -2.9965   21.7784 C.ar    1  UNL1       -0.0003
     26 C           4.4362   -4.3590   21.2040 C.ar    1  UNL1       -0.0000
     27 C           3.9111   -4.4977   19.8058 C.ar    1  UNL1       -0.0003
     28 C           3.6388   -3.2741   18.9820 C.ar    1  UNL1       -0.0039
@<TRIPOS>BOND
     1     1     2    2
     2     2     3    1
     3     3     4    2
     4     4     5   ar
     5     5     6   ar
     6     6    22    1
     7    22    23    1
     8    23    24   ar
     9    24    25   ar
    10    25    26   ar
    11    26    27   ar
    12    27    28   ar
    13     6     7   ar
    14     7     8   ar
    15     8     9   ar
    16     9    10    2
    17    10    11    1
    18    11    12    2
    19    12    15    1
    20    15    16   ar
    21    16    17   ar
    22    17    18   ar
    23    18    19   ar
    24    19    20   ar
    25    20    21    1
    26    12    13    1
    27    13    14    2
    28    14     2    1
    29     9     4   ar
    30    14    10    1
    31    28    23   ar
    32    20    15   ar
@<TRIPOS>MOLECULE
*****
 28 32 0 0 0
SMALL
GASTEIGER

@<TRIPOS>ATOM
      1 O           9.1672   -6.0057   24.1312 O.2     1  UNL1       -0.2638
      2 C           8.0012   -5.0655   24.0506 C.2     1  UNL1        0.3160
      3 N           7.2897   -4.8631   22.7458 N.am    1  UNL1       -0.1721
      4 C           6.1236   -3.9229   22.6652 C.ar    1  UNL1        0.0772
      5 C           5.4121   -3.7204   21.3603 C.ar    1  UNL1        0.0128
      6 C           4.2462   -2.7803   21.2799 C.ar    1  UNL1       -0.0165
      7 C           3.7916   -2.0426   22.5043 C.ar    1  UNL1       -0.0037
      8 C           4.5031   -2.2450   23.8092 C.ar    1  UNL1        0.0048
      9 C           5.6691   -3.1851   23.8896 C.ar    1  UNL1        0.0623
     10 C           6.3807   -3.3876   25.1946 C.2     1  UNL1        0.2419
     11 N           6.1614   -2.8031   26.5585 N.2     1  UNL1       -0.0302
     12 C           7.1920   -3.3821   27.4820 C.2     1  UNL1        0.3765
     13 N           8.0481   -4.3244   26.6887 N.2     1  UNL1       -0.0256
     14 C           7.5467   -4.3278   25.2750 C.2     1  UNL1        0.2907
     15 C           7.3403   -3.0730   28.9423 C.ar    1  UNL1        0.0989
     16 C           7.8017   -1.7140   29.3782 C.ar    1  UNL1        0.0085
     17 C           7.9500   -1.4050   30.8385 C.ar    1  UNL1        0.0003
     18 C           7.6370   -2.4550   31.8629 C.ar    1  UNL1        0.0009
     19 C           7.1756   -3.8141   31.4270 C.ar    1  UNL1        0.0116
     20 C           7.0273   -4.1231   29.9667 C.ar    1  UNL1        0.0651
     21 CL          6.5658   -5.4822   29.5308 Cl      1  UNL1       -0.0820
     22 C           3.5346   -2.5778   19.9749 C.3     1  UNL1        0.0527
     23 C           2.8922   -1.2576   19.6680 C.ar    1  UNL1       -0.0178
     24 C           3.6472   -0.2180   18.8937 C.ar    1  UNL1       -0.0039
     25 C           3.0048    1.1022   18.5868 C.ar    1  UNL1       -0.0003
     26 C           1.6073    1.3830   19.0540 C.ar    1  UNL1       -0.0000
     27 C           0.8523    0.3435   19.8282 C.ar    1  UNL1       -0.0003
     28 C           1.4948   -0.9768   20.1352 C.ar    1  UNL1       -0.0039
@<TRIPOS>BOND
     1     1     2    2
     2     2     3    1
     3     3     4    2
     4     4     5   ar
     5     5     6   ar
     6     6    22    1
     7    22    23    1
     8    23    24   ar
     9    24    25   ar
    10    25    26   ar
    11    26    27   ar
    12    27    28   ar
    13     6     7   ar
    14     7     8   ar
    15     8     9   ar
    16     9    10    2
    17    10    11    1
    18    11    12    2
    19    12    15    1
    20    15    16   ar
    21    16    17   ar
    22    17    18   ar
    23    18    19   ar
    24    19    20   ar
    25    20    21    1
    26    12    13    1
    27    13    14    2
    28    14     2    1
    29     9     4   ar
    30    14    10    1
    31    28    23   ar
    32    20    15   ar
@<TRIPOS>MOLECULE
*****
 28 32 0 0 0
SMALL
GASTEIGER

@<TRIPOS>ATOM
      1 O           9.1875   -8.1302   24.6696 O.2     1  UNL1       -0.2638
      2 C           8.5109   -7.0007   25.3882 C.2     1  UNL1        0.3160
      3 N           8.4330   -7.0043   26.8862 N.am    1  UNL1       -0.1721
      4 C           7.7563   -5.8747   27.6048 C.ar    1  UNL1        0.0772
      5 C           7.6785   -5.8783   29.1027 C.ar    1  UNL1        0.0128
      6 C           7.0018   -4.7488   29.8212 C.ar    1  UNL1       -0.0165
      7 C           6.4031   -3.6156   29.0418 C.ar    1  UNL1       -0.0037
      8 C           6.4810   -3.6120   27.5438 C.ar    1  UNL1        0.0048
      9 C           7.1576   -4.7416   26.8253 C.ar    1  UNL1        0.0623
     10 C           7.2355   -4.7380   25.3273 C.2     1  UNL1        0.2419
     11 N           6.7405   -3.7648   24.2989 N.2     1  UNL1       -0.0302
     12 C           7.1111   -4.2928   22.9447 C.2     1  UNL1        0.3765
     13 N           7.8353   -5.5924   23.1363 N.2     1  UNL1       -0.0256
     14 C           7.9122   -5.8675   24.6088 C.2     1  UNL1        0.2907
     15 C           6.8104   -3.6365   21.6298 C.ar    1  UNL1        0.0989
     16 C           7.9285   -3.0980   20.7873 C.ar    1  UNL1        0.0085
     17 C           7.6277   -2.4417   19.4725 C.ar    1  UNL1        0.0003
     18 C           6.2089   -2.3239   19.0002 C.ar    1  UNL1        0.0009
     19 C           5.0908   -2.8624   19.8427 C.ar    1  UNL1        0.0116
     20 C           5.3916   -3.5187   21.1575 C.ar    1  UNL1        0.0651
     21 CL          4.2735   -4.0573   22.0001 Cl      1  UNL1       -0.0820
     22 C           6.9239   -4.7523   31.3192 C.3     1  UNL1        0.0527
     23 C           6.8669   -3.4552   32.0703 C.ar    1  UNL1       -0.0178
     24 C           8.1257   -2.6801   32.3251 C.ar    1  UNL1       -0.0039
     25 C           8.0687   -1.3830   33.0762 C.ar    1  UNL1       -0.0003
     26 C           6.7530   -0.8609   33.5725 C.ar    1  UNL1       -0.0000
     27 C           5.4943   -1.6359   33.3178 C.ar    1  UNL1       -0.0003
     28 C           5.5513   -2.9331   32.5667 C.ar    1  UNL1       -0.0039
@<TRIPOS>BOND
     1     1     2    2
     2     2     3    1
     3     3     4    2
     4     4     5   ar
     5     5     6   ar
     6     6    22    1
     7    22    23    1
     8    23    24   ar
     9    24    25   ar
    10    25    26   ar
    11    26    27   ar
    12    27    28   ar
    13     6     7   ar
    14     7     8   ar
    15     8     9   ar
    16     9    10    2
    17    10    11    1
    18    11    12    2
    19    12    15    1
    20    15    16   ar
    21    16    17   ar
    22    17    18   ar
    23    18    19   ar
    24    19    20   ar
    25    20    21    1
    26    12    13    1
    27    13    14    2
    28    14     2    1
    29     9     4   ar
    30    14    10    1
    31    28    23   ar
    32    20    15   ar
@<TRIPOS>MOLECULE
*****
 28 32 0 0 0
SMALL
GASTEIGER

@<TRIPOS>ATOM
      1 O           9.3793   -0.2641   21.0978 O.2     1  UNL1       -0.2638
      2 C           8.0083   -0.8534   20.9452 C.2     1  UNL1        0.3160
      3 N           6.9590   -0.1192   20.1642 N.am    1  UNL1       -0.1721
      4 C           5.5880   -0.7085   20.0116 C.ar    1  UNL1        0.0772
      5 C           4.5388    0.0257   19.2306 C.ar    1  UNL1        0.0128
      6 C           3.1679   -0.5635   19.0781 C.ar    1  UNL1       -0.0165
      7 C           2.8462   -1.8870   19.7066 C.ar    1  UNL1       -0.0037
      8 C           3.8954   -2.6212   20.4876 C.ar    1  UNL1        0.0048
      9 C           5.2664   -2.0319   20.6401 C.ar    1  UNL1        0.0623
     10 C           6.3157   -2.7661   21.4212 C.2     1  UNL1        0.2419
     11 N           6.2915   -4.0780   22.1480 N.2     1  UNL1       -0.0302
     12 C           7.6475   -4.2995   22.7497 C.2     1  UNL1        0.3765
     13 N           8.5097   -3.1246   22.3948 N.2     1  UNL1       -0.0256
     14 C           7.6866   -2.1768   21.5737 C.2     1  UNL1        0.2907
     15 C           8.0676   -5.4876   23.5636 C.ar    1  UNL1        0.0989
     16 C           8.9570   -6.5337   22.9598 C.ar    1  UNL1        0.0085
     17 C           9.3770   -7.7216   23.7736 C.ar    1  UNL1        0.0003
     18 C           8.9076   -7.8634   25.1912 C.ar    1  UNL1        0.0009
     19 C           8.0181   -6.8174   25.7950 C.ar    1  UNL1        0.0116
     20 C           7.5981   -5.6294   24.9811 C.ar    1  UNL1        0.0651
     21 CL          6.7087   -4.5832   25.5849 Cl      1  UNL1       -0.0820
     22 C           2.1186    0.1706   18.2970 C.3     1  UNL1        0.0527
     23 C           1.1688    1.0941   19.0007 C.ar    1  UNL1       -0.0178
     24 C           0.5757    2.2608   18.2678 C.ar    1  UNL1       -0.0039
     25 C          -0.3741    3.1843   18.9714 C.ar    1  UNL1       -0.0003
     26 C          -0.7307    2.9410   20.4080 C.ar    1  UNL1       -0.0000
     27 C          -0.1377    1.7744   21.1408 C.ar    1  UNL1       -0.0003
     28 C           0.8121    0.8509   20.4372 C.ar    1  UNL1       -0.0039
@<TRIPOS>BOND
     1     1     2    2
     2     2     3    1
     3     3     4    2
     4     4     5   ar
     5     5     6   ar
     6     6    22    1
     7    22    23    1
     8    23    24   ar
     9    24    25   ar
    10    25    26   ar
    11    26    27   ar
    12    27    28   ar
    13     6     7   ar
    14     7     8   ar
    15     8     9   ar
    16     9    10    2
    17    10    11    1
    18    11    12    2
    19    12    15    1
    20    15    16   ar
    21    16    17   ar
    22    17    18   ar
    23    18    19   ar
    24    19    20   ar
    25    20    21    1
    26    12    13    1
    27    13    14    2
    28    14     2    1
    29     9     4   ar
    30    14    10    1
    31    28    23   ar
    32    20    15   ar
@<TRIPOS>MOLECULE
*****
 28 32 0 0 0
SMALL
GASTEIGER

@<TRIPOS>ATOM
      1 O           0.2218    6.2141   18.2520 O.2     1  UNL1       -0.2638
      2 C           0.2231    4.7929   18.7318 C.2     1  UNL1        0.3160
      3 N           1.3245    3.8626   18.3179 N.am    1  UNL1       -0.1721
      4 C           1.3259    2.4413   18.7977 C.ar    1  UNL1        0.0772
      5 C           2.4273    1.5110   18.3838 C.ar    1  UNL1        0.0128
      6 C           2.4286    0.0899   18.8636 C.ar    1  UNL1       -0.0165
      7 C           1.3284   -0.4010   19.7573 C.ar    1  UNL1       -0.0037
      8 C           0.2270    0.5293   20.1713 C.ar    1  UNL1        0.0048
      9 C           0.2257    1.9505   19.6914 C.ar    1  UNL1        0.0623
     10 C          -0.8757    2.8808   20.1054 C.2     1  UNL1        0.2419
     11 N          -2.0841    2.6829   20.9717 N.2     1  UNL1       -0.0302
     12 C          -2.8323    3.9819   21.0273 C.2     1  UNL1        0.3765
     13 N          -2.0862    4.9825   20.1953 N.2     1  UNL1       -0.0256
     14 C          -0.8770    4.3020   19.6256 C.2     1  UNL1        0.2907
     15 C          -4.1034    4.2356   21.7823 C.ar    1  UNL1        0.0989
     16 C          -4.0502    4.6464   23.2239 C.ar    1  UNL1        0.0085
     17 C          -5.3212    4.9001   23.9789 C.ar    1  UNL1        0.0003
     18 C          -6.6455    4.7429   23.2922 C.ar    1  UNL1        0.0009
     19 C          -6.6988    4.3321   21.8506 C.ar    1  UNL1        0.0116
     20 C          -5.4277    4.0785   21.0956 C.ar    1  UNL1        0.0651
     21 CL         -5.4809    3.6676   19.6539 Cl      1  UNL1       -0.0820
     22 C           3.5300   -0.8405   18.4497 C.3     1  UNL1        0.0527
     23 C           4.1157   -1.7987   19.4441 C.ar    1  UNL1       -0.0178
     24 C           3.6695   -3.2308   19.4583 C.ar    1  UNL1       -0.0039
     25 C           4.2553   -4.1890   20.4527 C.ar    1  UNL1       -0.0003
     26 C           5.2872   -3.7151   21.4329 C.ar    1  UNL1       -0.0000
     27 C           5.7333   -2.2830   21.4186 C.ar    1  UNL1       -0.0003
     28 C           5.1476   -1.3249   20.4242 C.ar    1  UNL1       -0.0039
@<TRIPOS>BOND
     1     1     2    2
     2     2     3    1
     3     3     4    2
     4     4     5   ar
     5     5     6   ar
     6     6    22    1
     7    22    23    1
     8    23    24   ar
     9    24    25   ar
    10    25    26   ar
    11    26    27   ar
    12    27    28   ar
    13     6     7   ar
    14     7     8   ar
    15     8     9   ar
    16     9    10    2
    17    10    11    1
    18    11    12    2
    19    12    15    1
    20    15    16   ar
    21    16    17   ar
    22    17    18   ar
    23    18    19   ar
    24    19    20   ar
    25    20    21    1
    26    12    13    1
    27    13    14    2
    28    14     2    1
    29     9     4   ar
    30    14    10    1
    31    28    23   ar
    32    20    15   ar
@<TRIPOS>MOLECULE
*****
 28 32 0 0 0
SMALL
GASTEIGER

@<TRIPOS>ATOM
      1 O           2.1482    4.9404   18.3980 O.2     1  UNL1       -0.2638
      2 C           2.0475    3.5152   18.8549 C.2     1  UNL1        0.3160
      3 N           3.0015    2.4876   18.3220 N.am    1  UNL1       -0.1721
      4 C           2.9008    1.0624   18.7789 C.ar    1  UNL1        0.0772
      5 C           3.8547    0.0348   18.2460 C.ar    1  UNL1        0.0128
      6 C           3.7540   -1.3903   18.7029 C.ar    1  UNL1       -0.0165
      7 C           2.6993   -1.7879   19.6927 C.ar    1  UNL1       -0.0037
      8 C           1.7453   -0.7603   20.2255 C.ar    1  UNL1        0.0048
      9 C           1.8461    0.6648   19.7686 C.ar    1  UNL1        0.0623
     10 C           0.8921    1.6925   20.3015 C.2     1  UNL1        0.2419
     11 N          -0.2419    1.5980   21.2787 N.2     1  UNL1       -0.0302
     12 C          -0.8421    2.9648   21.4258 C.2     1  UNL1        0.3765
     13 N          -0.0790    3.9040   20.5395 N.2     1  UNL1       -0.0256
     14 C           0.9928    3.1176   19.8446 C.2     1  UNL1        0.2907
     15 C          -2.0019    3.3286   22.3049 C.ar    1  UNL1        0.0989
     16 C          -1.7873    3.5629   23.7708 C.ar    1  UNL1        0.0085
     17 C          -2.9470    3.9266   24.6499 C.ar    1  UNL1        0.0003
     18 C          -4.3213    4.0560   24.0629 C.ar    1  UNL1        0.0009
     19 C          -4.5359    3.8217   22.5970 C.ar    1  UNL1        0.0116
     20 C          -3.3762    3.4580   21.7180 C.ar    1  UNL1        0.0651
     21 CL         -3.5908    3.2237   20.2520 Cl      1  UNL1       -0.0820
     22 C           4.7080   -2.4180   18.1701 C.3     1  UNL1        0.0527
     23 C           5.9908   -2.6979   18.8953 C.ar    1  UNL1       -0.0178
     24 C           7.2811   -2.1290   18.3838 C.ar    1  UNL1       -0.0039
     25 C           8.5639   -2.4089   19.1091 C.ar    1  UNL1       -0.0003
     26 C           8.5565   -3.2577   20.3459 C.ar    1  UNL1       -0.0000
     27 C           7.2662   -3.8266   20.8573 C.ar    1  UNL1       -0.0003
     28 C           5.9834   -3.5467   20.1321 C.ar    1  UNL1       -0.0039
@<TRIPOS>BOND
     1     1     2    2
     2     2     3    1
     3     3     4    2
     4     4     5   ar
     5     5     6   ar
     6     6    22    1
     7    22    23    1
     8    23    24   ar
     9    24    25   ar
    10    25    26   ar
    11    26    27   ar
    12    27    28   ar
    13     6     7   ar
    14     7     8   ar
    15     8     9   ar
    16     9    10    2
    17    10    11    1
    18    11    12    2
    19    12    15    1
    20    15    16   ar
    21    16    17   ar
    22    17    18   ar
    23    18    19   ar
    24    19    20   ar
    25    20    21    1
    26    12    13    1
    27    13    14    2
    28    14     2    1
    29     9     4   ar
    30    14    10    1
    31    28    23   ar
    32    20    15   ar
@<TRIPOS>MOLECULE
*****
 28 32 0 0 0
SMALL
GASTEIGER

@<TRIPOS>ATOM
      1 O           0.4510    4.9571   24.0905 O.2     1  UNL1       -0.2638
      2 C           0.5083    3.7504   23.2014 C.2     1  UNL1        0.3160
      3 N           1.6628    2.7982   23.3028 N.am    1  UNL1       -0.1721
      4 C           1.7201    1.5914   22.4136 C.ar    1  UNL1        0.0772
      5 C           2.8746    0.6392   22.5151 C.ar    1  UNL1        0.0128
      6 C           2.9319   -0.5675   21.6259 C.ar    1  UNL1       -0.0165
      7 C           1.8346   -0.8219   20.6354 C.ar    1  UNL1       -0.0037
      8 C           0.6801    0.1303   20.5339 C.ar    1  UNL1        0.0048
      9 C           0.6228    1.3370   21.4231 C.ar    1  UNL1        0.0623
     10 C          -0.5317    2.2892   21.3216 C.2     1  UNL1        0.2419
     11 N          -1.7505    2.2994   20.4473 N.2     1  UNL1       -0.0302
     12 C          -2.5610    3.5125   20.7960 C.2     1  UNL1        0.3765
     13 N          -1.8431    4.2519   21.8859 N.2     1  UNL1       -0.0256
     14 C          -0.5890    3.4959   22.2108 C.2     1  UNL1        0.2907
     15 C          -3.8611    3.9153   20.1655 C.ar    1  UNL1        0.0989
     16 C          -3.8771    4.4847   18.7779 C.ar    1  UNL1        0.0085
     17 C          -5.1771    4.8875   18.1474 C.ar    1  UNL1        0.0003
     18 C          -6.4612    4.7209   18.9046 C.ar    1  UNL1        0.0009
     19 C          -6.4453    4.1516   20.2922 C.ar    1  UNL1        0.0116
     20 C          -5.1452    3.7488   20.9227 C.ar    1  UNL1        0.0651
     21 CL         -5.1292    3.1794   22.3104 Cl      1  UNL1       -0.0820
     22 C           4.0864   -1.5197   21.7274 C.3     1  UNL1        0.0527
     23 C           4.2833   -2.5741   20.6788 C.ar    1  UNL1       -0.0178
     24 C           3.7741   -3.9661   20.9100 C.ar    1  UNL1       -0.0039
     25 C           3.9710   -5.0205   19.8614 C.ar    1  UNL1       -0.0003
     26 C           4.6769   -4.6829   18.5816 C.ar    1  UNL1       -0.0000
     27 C           5.1860   -3.2911   18.3505 C.ar    1  UNL1       -0.0003
     28 C           4.9892   -2.2367   19.3991 C.ar    1  UNL1       -0.0039
@<TRIPOS>BOND
     1     1     2    2
     2     2     3    1
     3     3     4    2
     4     4     5   ar
     5     5     6   ar
     6     6    22    1
     7    22    23    1
     8    23    24   ar
     9    24    25   ar
    10    25    26   ar
    11    26    27   ar
    12    27    28   ar
    13     6     7   ar
    14     7     8   ar
    15     8     9   ar
    16     9    10    2
    17    10    11    1
    18    11    12    2
    19    12    15    1
    20    15    16   ar
    21    16    17   ar
    22    17    18   ar
    23    18    19   ar
    24    19    20   ar
    25    20    21    1
    26    12    13    1
    27    13    14    2
    28    14     2    1
    29     9     4   ar
    30    14    10    1
    31    28    23   ar
    32    20    15   ar
