@<TRIPOS>MOLECULE
*****
 31 33 0 0 0
SMALL
GASTEIGER

@<TRIPOS>ATOM
      1 C          -6.8716  -17.1991   23.3040 C.ar    1  UNL1        0.1329
      2 N          -6.7672  -16.0775   24.2945 N.ar    1  UNL1       -0.1993
      3 C          -5.4201  -15.6187   24.7688 C.ar    1  UNL1        0.2148
      4 N          -5.3157  -14.4971   25.7593 N.pl3   1  UNL1       -0.3274
      5 N          -4.1775  -16.2815   24.2526 N.ar    1  UNL1       -0.2139
      6 C          -4.2818  -17.4031   23.2620 C.ar    1  UNL1        0.0870
      7 C          -3.0392  -18.0659   22.7458 C.ar    1  UNL1        0.0193
      8 C          -3.1436  -19.1874   21.7553 C.ar    1  UNL1        0.0017
      9 C          -4.4907  -19.6462   21.2810 C.ar    1  UNL1        0.0047
     10 C          -5.7333  -18.9835   21.7972 C.ar    1  UNL1        0.0575
     11 C          -5.6289  -17.8619   22.7877 C.ar    1  UNL1        0.0535
     12 H          -6.1313  -14.0621   26.0982 H       1  UNL1        0.1452
     13 H          -4.4316  -14.1960   26.0707 H       1  UNL1        0.1452
     14 C          -7.0804  -19.4422   21.3229 C.2     1  UNL1        0.2462
     15 O          -7.9018  -20.3635   22.1752 O.2     1  UNL1       -0.2701
     16 N          -7.6059  -18.9798   19.9963 N.am    1  UNL1       -0.2987
     17 H          -7.0668  -18.3751   19.4369 H       1  UNL1        0.1500
     18 C          -8.9530  -19.4386   19.5220 C.3     1  UNL1        0.0944
     19 C          -9.0551  -20.4649   18.4328 C.3     1  UNL1        0.0262
     20 C         -10.1979  -18.8711   20.1369 C.ar    1  UNL1       -0.0045
     21 C         -10.9887  -19.6857   21.1172 C.ar    1  UNL1       -0.0027
     22 C         -12.2336  -19.1182   21.7321 C.ar    1  UNL1       -0.0003
     23 C         -12.6878  -17.7361   21.3666 C.ar    1  UNL1       -0.0000
     24 C         -11.8970  -16.9215   20.3863 C.ar    1  UNL1       -0.0003
     25 C         -10.6520  -17.4890   19.7714 C.ar    1  UNL1       -0.0027
     26 N          -8.2186  -17.6579   22.8297 N.pl3   1  UNL1       -0.3180
     27 H          -8.2902  -18.4296   22.2226 H       1  UNL1        0.1482
     28 C          -9.4567  -16.9408   23.2803 C.3     1  UNL1        0.0882
     29 C         -10.3684  -17.5783   24.2864 C.3     1  UNL1        0.0212
     30 C         -10.2002  -20.1277   24.7582 C.3     1  UNL1        0.0001
     31 C          -9.8737  -18.7128   25.1341 C.3     1  UNL1        0.0017
@<TRIPOS>BOND
     1    30    31    1
     2    31    29    1
     3    29    28    1
     4    28    26    1
     5    26     1    1
     6     1     2   ar
     7     2     3   ar
     8     3     4    1
     9     3     5   ar
    10     5     6   ar
    11     6     7   ar
    12     7     8   ar
    13     8     9   ar
    14     9    10   ar
    15    10    14    1
    16    14    15    2
    17    14    16   am
    18    16    18    1
    19    18    19    1
    20    18    20    1
    21    20    21   ar
    22    21    22   ar
    23    22    23   ar
    24    23    24   ar
    25    24    25   ar
    26    10    11   ar
    27    11     1   ar
    28    11     6   ar
    29    25    20   ar
    30    26    27    1
    31     4    12    1
    32     4    13    1
    33    16    17    1
@<TRIPOS>MOLECULE
*****
 31 33 0 0 0
SMALL
GASTEIGER

@<TRIPOS>ATOM
      1 C          -9.4164  -17.9319   23.6803 C.ar    1  UNL1        0.1329
      2 N         -10.5700  -17.9693   24.6383 N.ar    1  UNL1       -0.1993
      3 C         -11.8540  -18.6350   24.2405 C.ar    1  UNL1        0.2148
      4 N         -13.0076  -18.6723   25.1986 N.pl3   1  UNL1       -0.3274
      5 N         -11.9844  -19.2633   22.8847 N.ar    1  UNL1       -0.2139
      6 C         -10.8307  -19.2260   21.9267 C.ar    1  UNL1        0.0870
      7 C         -10.9611  -19.8543   20.5709 C.ar    1  UNL1        0.0193
      8 C          -9.8075  -19.8169   19.6129 C.ar    1  UNL1        0.0017
      9 C          -8.5236  -19.1512   20.0107 C.ar    1  UNL1        0.0047
     10 C          -8.3932  -18.5229   21.3665 C.ar    1  UNL1        0.0575
     11 C          -9.5468  -18.5603   22.3244 C.ar    1  UNL1        0.0535
     12 H         -12.9220  -18.2599   26.0884 H       1  UNL1        0.1452
     13 H         -13.8503  -19.1093   24.9375 H       1  UNL1        0.1452
     14 C          -7.1092  -17.8572   21.7642 C.2     1  UNL1        0.2462
     15 O          -7.0170  -16.3603   21.7898 O.2     1  UNL1       -0.2701
     16 N          -5.9174  -18.6884   22.1364 N.am    1  UNL1       -0.2987
     17 H          -5.9778  -19.6709   22.1197 H       1  UNL1        0.1500
     18 C          -4.6334  -18.0227   22.5342 C.3     1  UNL1        0.0944
     19 C          -4.4777  -17.4582   23.9152 C.3     1  UNL1        0.0262
     20 C          -3.5051  -17.9216   21.5511 C.ar    1  UNL1       -0.0045
     21 C          -2.3898  -16.9466   21.7870 C.ar    1  UNL1       -0.0027
     22 C          -1.2615  -16.8455   20.8039 C.ar    1  UNL1       -0.0003
     23 C          -1.2484  -17.7193   19.5847 C.ar    1  UNL1       -0.0000
     24 C          -2.3637  -18.6942   19.3487 C.ar    1  UNL1       -0.0003
     25 C          -3.4920  -18.7953   20.3320 C.ar    1  UNL1       -0.0027
     26 N          -8.1324  -17.2662   24.0781 N.pl3   1  UNL1       -0.3180
     27 H          -7.2709  -17.6494   23.7948 H       1  UNL1        0.1482
     28 C          -8.1610  -16.0167   24.9074 C.3     1  UNL1        0.0882
     29 C          -8.0660  -16.1059   26.4017 C.3     1  UNL1        0.0212
     30 C          -5.6647  -15.1144   26.3733 C.3     1  UNL1        0.0001
     31 C          -6.9189  -15.4594   27.1202 C.3     1  UNL1        0.0017
@<TRIPOS>BOND
     1    30    31    1
     2    31    29    1
     3    29    28    1
     4    28    26    1
     5    26     1    1
     6     1     2   ar
     7     2     3   ar
     8     3     4    1
     9     3     5   ar
    10     5     6   ar
    11     6     7   ar
    12     7     8   ar
    13     8     9   ar
    14     9    10   ar
    15    10    14    1
    16    14    15    2
    17    14    16   am
    18    16    18    1
    19    18    19    1
    20    18    20    1
    21    20    21   ar
    22    21    22   ar
    23    22    23   ar
    24    23    24   ar
    25    24    25   ar
    26    10    11   ar
    27    11     1   ar
    28    11     6   ar
    29    25    20   ar
    30    26    27    1
    31     4    12    1
    32     4    13    1
    33    16    17    1
@<TRIPOS>MOLECULE
*****
 31 33 0 0 0
SMALL
GASTEIGER

@<TRIPOS>ATOM
      1 C          -9.8894  -18.6116   21.9419 C.ar    1  UNL1        0.1329
      2 N         -11.3724  -18.8175   22.0310 N.ar    1  UNL1       -0.1993
      3 C         -12.1771  -18.0495   23.0373 C.ar    1  UNL1        0.2148
      4 N         -13.6603  -18.2555   23.1265 N.pl3   1  UNL1       -0.3274
      5 N         -11.4987  -17.0756   23.9545 N.ar    1  UNL1       -0.2139
      6 C         -10.0156  -16.8696   23.8653 C.ar    1  UNL1        0.0870
      7 C          -9.3372  -15.8957   24.7825 C.ar    1  UNL1        0.0193
      8 C          -7.8541  -15.6897   24.6933 C.ar    1  UNL1        0.0017
      9 C          -7.0494  -16.4577   23.6870 C.ar    1  UNL1        0.0047
     10 C          -7.7278  -17.4317   22.7699 C.ar    1  UNL1        0.0575
     11 C          -9.2109  -17.6376   22.8590 C.ar    1  UNL1        0.0535
     12 H         -14.1056  -18.8947   22.5245 H       1  UNL1        0.1452
     13 H         -14.1885  -17.7514   23.7869 H       1  UNL1        0.1452
     14 C          -6.9231  -18.1997   21.7636 C.2     1  UNL1        0.2462
     15 O          -6.9818  -17.8246   20.3124 O.2     1  UNL1       -0.2701
     16 N          -6.0597  -19.3427   22.2084 N.am    1  UNL1       -0.2987
     17 H          -6.0212  -19.5889   23.1608 H       1  UNL1        0.1500
     18 C          -5.2550  -20.1107   21.2021 C.3     1  UNL1        0.0944
     19 C          -5.7934  -21.3879   20.6284 C.3     1  UNL1        0.0262
     20 C          -3.9121  -19.6016   20.7695 C.ar    1  UNL1       -0.0045
     21 C          -3.7319  -19.0385   19.3909 C.ar    1  UNL1       -0.0027
     22 C          -2.3889  -18.5294   18.9583 C.ar    1  UNL1       -0.0003
     23 C          -1.2260  -18.5833   19.9043 C.ar    1  UNL1       -0.0000
     24 C          -1.4062  -19.1464   21.2829 C.ar    1  UNL1       -0.0003
     25 C          -2.7492  -19.6556   21.7155 C.ar    1  UNL1       -0.0027
     26 N          -9.0847  -19.3796   20.9356 N.pl3   1  UNL1       -0.3180
     27 H          -8.1634  -19.6542   21.1481 H       1  UNL1        0.1482
     28 C          -9.6835  -19.7291   19.6055 C.3     1  UNL1        0.0882
     29 C          -8.7949  -20.1232   18.4631 C.3     1  UNL1        0.0212
     30 C          -9.3784  -21.4525   16.3084 C.3     1  UNL1        0.0001
     31 C          -9.0102  -21.4320   17.7624 C.3     1  UNL1        0.0017
@<TRIPOS>BOND
     1    30    31    1
     2    31    29    1
     3    29    28    1
     4    28    26    1
     5    26     1    1
     6     1     2   ar
     7     2     3   ar
     8     3     4    1
     9     3     5   ar
    10     5     6   ar
    11     6     7   ar
    12     7     8   ar
    13     8     9   ar
    14     9    10   ar
    15    10    14    1
    16    14    15    2
    17    14    16   am
    18    16    18    1
    19    18    19    1
    20    18    20    1
    21    20    21   ar
    22    21    22   ar
    23    22    23   ar
    24    23    24   ar
    25    24    25   ar
    26    10    11   ar
    27    11     1   ar
    28    11     6   ar
    29    25    20   ar
    30    26    27    1
    31     4    12    1
    32     4    13    1
    33    16    17    1
@<TRIPOS>MOLECULE
*****
 31 33 0 0 0
SMALL
GASTEIGER

@<TRIPOS>ATOM
      1 C          -8.7907  -17.4849   22.3544 C.ar    1  UNL1        0.1329
      2 N          -9.8294  -16.5476   22.8954 N.ar    1  UNL1       -0.1993
      3 C         -11.1759  -16.4612   22.2401 C.ar    1  UNL1        0.2148
      4 N         -12.2145  -15.5239   22.7812 N.pl3   1  UNL1       -0.3274
      5 N         -11.4838  -17.3120   21.0438 N.ar    1  UNL1       -0.2139
      6 C         -10.4451  -18.2494   20.5027 C.ar    1  UNL1        0.0870
      7 C         -10.7531  -19.1002   19.3064 C.ar    1  UNL1        0.0193
      8 C          -9.7144  -20.0375   18.7653 C.ar    1  UNL1        0.0017
      9 C          -8.3679  -20.1239   19.4206 C.ar    1  UNL1        0.0047
     10 C          -8.0600  -19.2731   20.6170 C.ar    1  UNL1        0.0575
     11 C          -9.0986  -18.3358   21.1580 C.ar    1  UNL1        0.0535
     12 H         -12.0124  -14.9654   23.5664 H       1  UNL1        0.1452
     13 H         -13.0983  -15.4671   22.3511 H       1  UNL1        0.1452
     14 C          -6.7135  -19.3595   21.2723 C.2     1  UNL1        0.2462
     15 O          -6.5051  -20.2780   22.4396 O.2     1  UNL1       -0.2701
     16 N          -5.5754  -18.5275   20.7602 N.am    1  UNL1       -0.2987
     17 H          -5.7121  -17.9246   19.9939 H       1  UNL1        0.1500
     18 C          -4.2289  -18.6139   21.4154 C.3     1  UNL1        0.0944
     19 C          -4.1233  -18.9742   22.8678 C.3     1  UNL1        0.0262
     20 C          -2.9880  -18.3400   20.6185 C.ar    1  UNL1       -0.0045
     21 C          -3.0844  -18.0898   19.1427 C.ar    1  UNL1       -0.0027
     22 C          -1.8435  -17.8159   18.3458 C.ar    1  UNL1       -0.0003
     23 C          -0.5061  -17.7923   19.0247 C.ar    1  UNL1       -0.0000
     24 C          -0.4096  -18.0426   20.5005 C.ar    1  UNL1       -0.0003
     25 C          -1.6506  -18.3165   21.2974 C.ar    1  UNL1       -0.0027
     26 N          -7.4442  -17.5713   23.0096 N.pl3   1  UNL1       -0.3180
     27 H          -7.0206  -18.4488   23.1501 H       1  UNL1        0.1482
     28 C          -6.7432  -16.3208   23.4509 C.3     1  UNL1        0.0882
     29 C          -7.1614  -15.6335   24.7169 C.3     1  UNL1        0.0212
     30 C          -6.6596  -15.4435   27.2590 C.3     1  UNL1        0.0001
     31 C          -6.1794  -15.4644   25.8381 C.3     1  UNL1        0.0017
@<TRIPOS>BOND
     1    30    31    1
     2    31    29    1
     3    29    28    1
     4    28    26    1
     5    26     1    1
     6     1     2   ar
     7     2     3   ar
     8     3     4    1
     9     3     5   ar
    10     5     6   ar
    11     6     7   ar
    12     7     8   ar
    13     8     9   ar
    14     9    10   ar
    15    10    14    1
    16    14    15    2
    17    14    16   am
    18    16    18    1
    19    18    19    1
    20    18    20    1
    21    20    21   ar
    22    21    22   ar
    23    22    23   ar
    24    23    24   ar
    25    24    25   ar
    26    10    11   ar
    27    11     1   ar
    28    11     6   ar
    29    25    20   ar
    30    26    27    1
    31     4    12    1
    32     4    13    1
    33    16    17    1
@<TRIPOS>MOLECULE
*****
 31 33 0 0 0
SMALL
GASTEIGER

@<TRIPOS>ATOM
      1 C          -6.6874  -17.1070   23.3217 C.ar    1  UNL1        0.1329
      2 N          -5.3013  -17.2806   22.7754 N.ar    1  UNL1       -0.1993
      3 C          -4.1261  -16.7189   23.5194 C.ar    1  UNL1        0.2148
      4 N          -2.7399  -16.8925   22.9731 N.pl3   1  UNL1       -0.3274
      5 N          -4.3371  -15.9835   24.8096 N.ar    1  UNL1       -0.2139
      6 C          -5.7233  -15.8098   25.3559 C.ar    1  UNL1        0.0870
      7 C          -5.9343  -15.0744   26.6460 C.ar    1  UNL1        0.0193
      8 C          -7.3205  -14.9007   27.1923 C.ar    1  UNL1        0.0017
      9 C          -8.4956  -15.4625   26.4483 C.ar    1  UNL1        0.0047
     10 C          -8.2846  -16.1979   25.1581 C.ar    1  UNL1        0.0575
     11 C          -6.8985  -16.3715   24.6119 C.ar    1  UNL1        0.0535
     12 H          -2.6015  -17.3752   22.1263 H       1  UNL1        0.1452
     13 H          -1.9686  -16.5239   23.4614 H       1  UNL1        0.1452
     14 C          -9.4598  -16.7596   24.4142 C.2     1  UNL1        0.2462
     15 O          -9.9191  -18.1614   24.6860 O.2     1  UNL1       -0.2701
     16 N         -10.1756  -15.9196   23.3984 N.am    1  UNL1       -0.2987
     17 H          -9.8741  -14.9995   23.2199 H       1  UNL1        0.1500
     18 C         -11.3507  -16.4813   22.6544 C.3     1  UNL1        0.0944
     19 C         -12.7174  -15.8984   22.8608 C.3     1  UNL1        0.0262
     20 C         -11.1593  -17.6260   21.7041 C.ar    1  UNL1       -0.0045
     21 C         -11.2672  -19.0378   22.1991 C.ar    1  UNL1       -0.0027
     22 C         -11.0758  -20.1825   21.2489 C.ar    1  UNL1       -0.0003
     23 C         -10.7764  -19.9153   19.8035 C.ar    1  UNL1       -0.0000
     24 C         -10.6684  -18.5034   19.3085 C.ar    1  UNL1       -0.0003
     25 C         -10.8599  -17.3588   20.2588 C.ar    1  UNL1       -0.0027
     26 N          -7.8626  -17.6687   22.5777 N.pl3   1  UNL1       -0.3180
     27 H          -8.7764  -17.5060   22.9059 H       1  UNL1        0.1482
     28 C          -7.6454  -18.4783   21.3338 C.3     1  UNL1        0.0882
     29 C          -7.3813  -19.9514   21.4343 C.3     1  UNL1        0.0212
     30 C          -5.0942  -19.7559   20.2172 C.3     1  UNL1        0.0001
     31 C          -6.0089  -20.4882   21.1537 C.3     1  UNL1        0.0017
@<TRIPOS>BOND
     1    30    31    1
     2    31    29    1
     3    29    28    1
     4    28    26    1
     5    26     1    1
     6     1     2   ar
     7     2     3   ar
     8     3     4    1
     9     3     5   ar
    10     5     6   ar
    11     6     7   ar
    12     7     8   ar
    13     8     9   ar
    14     9    10   ar
    15    10    14    1
    16    14    15    2
    17    14    16   am
    18    16    18    1
    19    18    19    1
    20    18    20    1
    21    20    21   ar
    22    21    22   ar
    23    22    23   ar
    24    23    24   ar
    25    24    25   ar
    26    10    11   ar
    27    11     1   ar
    28    11     6   ar
    29    25    20   ar
    30    26    27    1
    31     4    12    1
    32     4    13    1
    33    16    17    1
@<TRIPOS>MOLECULE
*****
 31 33 0 0 0
SMALL
GASTEIGER

@<TRIPOS>ATOM
      1 C         -15.5706   -8.1514   18.7267 C.ar    1  UNL1        0.1329
      2 N         -15.5808   -9.6513   18.7429 N.ar    1  UNL1       -0.1993
      3 C         -16.8439  -10.3891   19.0749 C.ar    1  UNL1        0.2148
      4 N         -16.8540  -11.8891   19.0911 N.pl3   1  UNL1       -0.3274
      5 N         -18.0967   -9.6272   19.3907 N.ar    1  UNL1       -0.2139
      6 C         -18.0865   -8.1273   19.3745 C.ar    1  UNL1        0.0870
      7 C         -19.3394   -7.3653   19.6902 C.ar    1  UNL1        0.0193
      8 C         -19.3292   -5.8654   19.6740 C.ar    1  UNL1        0.0017
      9 C         -18.0661   -5.1276   19.3421 C.ar    1  UNL1        0.0047
     10 C         -16.8133   -5.8895   19.0263 C.ar    1  UNL1        0.0575
     11 C         -16.8235   -7.3894   19.0425 C.ar    1  UNL1        0.0535
     12 H         -16.0317  -12.3892   18.8838 H       1  UNL1        0.1452
     13 H         -17.6830  -12.3734   19.3090 H       1  UNL1        0.1452
     14 C         -15.5502   -5.1516   18.6943 C.2     1  UNL1        0.2462
     15 O         -15.1291   -4.9915   17.2636 O.2     1  UNL1       -0.2701
     16 N         -14.7082   -4.5739   19.7930 N.am    1  UNL1       -0.2987
     17 H         -14.9846   -4.6790   20.7321 H       1  UNL1        0.1500
     18 C         -13.4452   -3.8360   19.4611 C.3     1  UNL1        0.0944
     19 C         -12.1302   -4.5577   19.4714 C.3     1  UNL1        0.0262
     20 C         -13.4971   -2.3765   19.1187 C.ar    1  UNL1       -0.0045
     21 C         -12.2620   -1.6748   18.6369 C.ar    1  UNL1       -0.0027
     22 C         -12.3139   -0.2153   18.2946 C.ar    1  UNL1       -0.0003
     23 C         -13.6009    0.5425   18.4341 C.ar    1  UNL1       -0.0000
     24 C         -14.8360   -0.1593   18.9159 C.ar    1  UNL1       -0.0003
     25 C         -14.7841   -1.6188   19.2583 C.ar    1  UNL1       -0.0027
     26 N         -14.3075   -7.4135   18.3947 N.pl3   1  UNL1       -0.3180
     27 H         -14.1217   -6.5424   18.8140 H       1  UNL1        0.1482
     28 C         -13.3277   -8.0029   17.4239 C.3     1  UNL1        0.0882
     29 C         -12.0126   -7.3238   17.1801 C.3     1  UNL1        0.0212
     30 C          -9.7095   -7.1780   18.3738 C.3     1  UNL1        0.0001
     31 C         -10.7377   -7.9755   17.6275 C.3     1  UNL1        0.0017
@<TRIPOS>BOND
     1    30    31    1
     2    31    29    1
     3    29    28    1
     4    28    26    1
     5    26     1    1
     6     1     2   ar
     7     2     3   ar
     8     3     4    1
     9     3     5   ar
    10     5     6   ar
    11     6     7   ar
    12     7     8   ar
    13     8     9   ar
    14     9    10   ar
    15    10    14    1
    16    14    15    2
    17    14    16   am
    18    16    18    1
    19    18    19    1
    20    18    20    1
    21    20    21   ar
    22    21    22   ar
    23    22    23   ar
    24    23    24   ar
    25    24    25   ar
    26    10    11   ar
    27    11     1   ar
    28    11     6   ar
    29    25    20   ar
    30    26    27    1
    31     4    12    1
    32     4    13    1
    33    16    17    1
@<TRIPOS>MOLECULE
*****
 31 33 0 0 0
SMALL
GASTEIGER

@<TRIPOS>ATOM
      1 C          -5.8504  -18.8086   21.8816 C.ar    1  UNL1        0.1329
      2 N          -4.5323  -19.4100   21.4933 N.ar    1  UNL1       -0.1993
      3 C          -3.2573  -18.8377   22.0380 C.ar    1  UNL1        0.2148
      4 N          -1.9391  -19.4392   21.6497 N.pl3   1  UNL1       -0.3274
      5 N          -3.3003  -17.6640   22.9710 N.ar    1  UNL1       -0.2139
      6 C          -4.6185  -17.0625   23.3593 C.ar    1  UNL1        0.0870
      7 C          -4.6616  -15.8888   24.2923 C.ar    1  UNL1        0.0193
      8 C          -5.9797  -15.2874   24.6805 C.ar    1  UNL1        0.0017
      9 C          -7.2548  -15.8597   24.1358 C.ar    1  UNL1        0.0047
     10 C          -7.2117  -17.0334   23.2028 C.ar    1  UNL1        0.0575
     11 C          -5.8936  -17.6348   22.8146 C.ar    1  UNL1        0.0535
     12 H          -1.9108  -20.2095   21.0374 H       1  UNL1        0.1452
     13 H          -1.1022  -19.0635   22.0072 H       1  UNL1        0.1452
     14 C          -8.4868  -17.6057   22.6581 C.2     1  UNL1        0.2462
     15 O          -9.0613  -17.0737   21.3787 O.2     1  UNL1       -0.2701
     16 N          -9.1873  -18.7100   23.3928 N.am    1  UNL1       -0.2987
     17 H          -8.8102  -19.0592   24.2325 H       1  UNL1        0.1500
     18 C         -10.4623  -19.2823   22.8481 C.3     1  UNL1        0.0944
     19 C         -10.4164  -20.3221   21.7679 C.3     1  UNL1        0.0262
     20 C         -11.7832  -18.8148   23.3835 C.ar    1  UNL1       -0.0045
     21 C         -12.1596  -19.1021   24.8068 C.ar    1  UNL1       -0.0027
     22 C         -13.4805  -18.6346   25.3422 C.ar    1  UNL1       -0.0003
     23 C         -14.4250  -17.8798   24.4543 C.ar    1  UNL1       -0.0000
     24 C         -14.0486  -17.5926   23.0310 C.ar    1  UNL1       -0.0003
     25 C         -12.7276  -18.0601   22.4956 C.ar    1  UNL1       -0.0027
     26 N          -7.1255  -19.3809   21.3368 N.pl3   1  UNL1       -0.3180
     27 H          -7.9462  -19.3597   21.8802 H       1  UNL1        0.1482
     28 C          -7.1501  -19.9855   19.9644 C.3     1  UNL1        0.0882
     29 C          -8.1679  -19.5288   18.9617 C.3     1  UNL1        0.0212
     30 C          -8.8463  -21.5069   17.4199 C.3     1  UNL1        0.0001
     31 C          -9.2071  -20.4863   18.4583 C.3     1  UNL1        0.0017
@<TRIPOS>BOND
     1    30    31    1
     2    31    29    1
     3    29    28    1
     4    28    26    1
     5    26     1    1
     6     1     2   ar
     7     2     3   ar
     8     3     4    1
     9     3     5   ar
    10     5     6   ar
    11     6     7   ar
    12     7     8   ar
    13     8     9   ar
    14     9    10   ar
    15    10    14    1
    16    14    15    2
    17    14    16   am
    18    16    18    1
    19    18    19    1
    20    18    20    1
    21    20    21   ar
    22    21    22   ar
    23    22    23   ar
    24    23    24   ar
    25    24    25   ar
    26    10    11   ar
    27    11     1   ar
    28    11     6   ar
    29    25    20   ar
    30    26    27    1
    31     4    12    1
    32     4    13    1
    33    16    17    1
@<TRIPOS>MOLECULE
*****
 31 33 0 0 0
SMALL
GASTEIGER

@<TRIPOS>ATOM
      1 C          -6.1905  -18.2930   21.8347 C.ar    1  UNL1        0.1329
      2 N          -5.0446  -19.1664   21.4177 N.ar    1  UNL1       -0.1993
      3 C          -3.7182  -19.0434   22.1073 C.ar    1  UNL1        0.2148
      4 N          -2.5722  -19.9169   21.6902 N.pl3   1  UNL1       -0.3274
      5 N          -3.5377  -18.0469   23.2138 N.ar    1  UNL1       -0.2139
      6 C          -4.6837  -17.1734   23.6308 C.ar    1  UNL1        0.0870
      7 C          -4.5032  -16.1770   24.7374 C.ar    1  UNL1        0.0193
      8 C          -5.6491  -15.3035   25.1543 C.ar    1  UNL1        0.0017
      9 C          -6.9755  -15.4265   24.4648 C.ar    1  UNL1        0.0047
     10 C          -7.1560  -16.4230   23.3583 C.ar    1  UNL1        0.0575
     11 C          -6.0101  -17.2964   22.9413 C.ar    1  UNL1        0.0535
     12 H          -2.6907  -20.5709   20.9640 H       1  UNL1        0.1452
     13 H          -1.7016  -19.8361   22.1428 H       1  UNL1        0.1452
     14 C          -8.4824  -16.5460   22.6687 C.2     1  UNL1        0.2462
     15 O          -9.4242  -17.6509   23.0459 O.2     1  UNL1       -0.2701
     16 N          -8.8671  -15.5642   21.6019 N.am    1  UNL1       -0.2987
     17 H          -8.2490  -14.8390   21.3544 H       1  UNL1        0.1500
     18 C         -10.1935  -15.6872   20.9124 C.3     1  UNL1        0.0944
     19 C         -10.4243  -14.9954   19.6016 C.3     1  UNL1        0.0262
     20 C         -11.2890  -16.5020   21.5336 C.ar    1  UNL1       -0.0045
     21 C         -12.0814  -15.9443   22.6787 C.ar    1  UNL1       -0.0027
     22 C         -13.1769  -16.7590   23.2999 C.ar    1  UNL1       -0.0003
     23 C         -13.4801  -18.1315   22.7760 C.ar    1  UNL1       -0.0000
     24 C         -12.6878  -18.6892   21.6310 C.ar    1  UNL1       -0.0003
     25 C         -11.5922  -17.8744   21.0097 C.ar    1  UNL1       -0.0027
     26 N          -7.5169  -18.4160   21.1451 N.pl3   1  UNL1       -0.3180
     27 H          -8.1428  -17.6560   21.1426 H       1  UNL1        0.1482
     28 C          -7.8899  -19.6969   20.4595 C.3     1  UNL1        0.0882
     29 C          -8.2083  -19.6978   18.9937 C.3     1  UNL1        0.0212
     30 C          -9.0606  -21.4219   17.2468 C.3     1  UNL1        0.0001
     31 C          -9.3007  -20.5789   18.4641 C.3     1  UNL1        0.0017
@<TRIPOS>BOND
     1    30    31    1
     2    31    29    1
     3    29    28    1
     4    28    26    1
     5    26     1    1
     6     1     2   ar
     7     2     3   ar
     8     3     4    1
     9     3     5   ar
    10     5     6   ar
    11     6     7   ar
    12     7     8   ar
    13     8     9   ar
    14     9    10   ar
    15    10    14    1
    16    14    15    2
    17    14    16   am
    18    16    18    1
    19    18    19    1
    20    18    20    1
    21    20    21   ar
    22    21    22   ar
    23    22    23   ar
    24    23    24   ar
    25    24    25   ar
    26    10    11   ar
    27    11     1   ar
    28    11     6   ar
    29    25    20   ar
    30    26    27    1
    31     4    12    1
    32     4    13    1
    33    16    17    1
@<TRIPOS>MOLECULE
*****
 31 33 0 0 0
SMALL
GASTEIGER

@<TRIPOS>ATOM
      1 C          -9.1026  -17.7456   21.4681 C.ar    1  UNL1        0.1329
      2 N         -10.3330  -16.9017   21.6226 N.ar    1  UNL1       -0.1993
      3 C         -11.5028  -17.1064   20.7063 C.ar    1  UNL1        0.2148
      4 N         -12.7333  -16.2625   20.8608 N.pl3   1  UNL1       -0.3274
      5 N         -11.4422  -18.1550   19.6355 N.ar    1  UNL1       -0.2139
      6 C         -10.2117  -18.9990   19.4809 C.ar    1  UNL1        0.0870
      7 C         -10.1511  -20.0476   18.4101 C.ar    1  UNL1        0.0193
      8 C          -8.9207  -20.8915   18.2556 C.ar    1  UNL1        0.0017
      9 C          -7.7509  -20.6867   19.1719 C.ar    1  UNL1        0.0047
     10 C          -7.8115  -19.6381   20.2427 C.ar    1  UNL1        0.0575
     11 C          -9.0419  -18.7943   20.3972 C.ar    1  UNL1        0.0535
     12 H         -12.7730  -15.5742   21.5637 H       1  UNL1        0.1452
     13 H         -13.5011  -16.3968   20.2594 H       1  UNL1        0.1452
     14 C          -6.6417  -19.4334   21.1591 C.2     1  UNL1        0.2462
     15 O          -6.6384  -20.0591   22.5223 O.2     1  UNL1       -0.2701
     16 N          -5.4753  -18.6030   20.7122 N.am    1  UNL1       -0.2987
     17 H          -5.4775  -18.1923   19.8174 H       1  UNL1        0.1500
     18 C          -4.3055  -18.3983   21.6285 C.3     1  UNL1        0.0944
     19 C          -4.4667  -18.5973   23.1065 C.3     1  UNL1        0.0262
     20 C          -2.9745  -17.9945   21.0669 C.ar    1  UNL1       -0.0045
     21 C          -2.2686  -16.7857   21.6058 C.ar    1  UNL1       -0.0027
     22 C          -0.9377  -16.3819   21.0441 C.ar    1  UNL1       -0.0003
     23 C          -0.3125  -17.1871   19.9436 C.ar    1  UNL1       -0.0000
     24 C          -1.0184  -18.3959   19.4048 C.ar    1  UNL1       -0.0003
     25 C          -2.3495  -18.7996   19.9664 C.ar    1  UNL1       -0.0027
     26 N          -7.9328  -17.5409   22.3844 N.pl3   1  UNL1       -0.3180
     27 H          -7.0269  -17.7887   22.0891 H       1  UNL1        0.1482
     28 C          -8.1432  -16.9586   23.7507 C.3     1  UNL1        0.0882
     29 C          -9.4335  -17.1976   24.4773 C.3     1  UNL1        0.0212
     30 C         -11.1938  -19.1085   24.4708 C.3     1  UNL1        0.0001
     31 C          -9.8370  -18.5934   24.8500 C.3     1  UNL1        0.0017
@<TRIPOS>BOND
     1    30    31    1
     2    31    29    1
     3    29    28    1
     4    28    26    1
     5    26     1    1
     6     1     2   ar
     7     2     3   ar
     8     3     4    1
     9     3     5   ar
    10     5     6   ar
    11     6     7   ar
    12     7     8   ar
    13     8     9   ar
    14     9    10   ar
    15    10    14    1
    16    14    15    2
    17    14    16   am
    18    16    18    1
    19    18    19    1
    20    18    20    1
    21    20    21   ar
    22    21    22   ar
    23    22    23   ar
    24    23    24   ar
    25    24    25   ar
    26    10    11   ar
    27    11     1   ar
    28    11     6   ar
    29    25    20   ar
    30    26    27    1
    31     4    12    1
    32     4    13    1
    33    16    17    1
