@<TRIPOS>MOLECULE
*****
 33 37 0 0 0
SMALL
GASTEIGER

@<TRIPOS>ATOM
      1 N          -7.7152  -19.6536   21.4383 N.3     1  UNL1       -0.2679
      2 C          -8.5027  -19.2577   22.6519 C.3     1  UNL1        0.0978
      3 C          -9.4178  -20.2485   23.3083 C.3     1  UNL1        0.0224
      4 C         -10.2054  -19.8526   24.5220 C.3     1  UNL1        0.0065
      5 C         -10.0779  -18.4658   25.0793 C.3     1  UNL1        0.0277
      6 C          -9.1628  -17.4750   24.4229 C.ar    1  UNL1       -0.0073
      7 C          -9.0353  -16.0882   24.9802 C.ar    1  UNL1       -0.0015
      8 C          -8.1203  -15.0973   24.3238 C.ar    1  UNL1        0.0203
      9 C          -7.3327  -15.4932   23.1102 C.ar    1  UNL1        0.0985
     10 N          -7.4602  -16.8800   22.5529 N.ar    1  UNL1       -0.2471
     11 C          -8.3753  -17.8708   23.2093 C.ar    1  UNL1        0.0695
     12 C          -6.3671  -20.2926   21.5946 C.3     1  UNL1        0.0886
     13 C          -0.5144  -16.9771   20.1791 C.ar    1  UNL1        0.0204
     14 C          -0.8616  -17.8737   19.0278 C.ar    1  UNL1        0.0984
     15 N          -2.1016  -18.7161   19.0807 N.ar    1  UNL1       -0.2484
     16 C          -2.9944  -18.6619   20.2848 C.ar    1  UNL1        0.0577
     17 C          -2.6472  -17.7653   21.4361 C.ar    1  UNL1        0.0073
     18 C          -1.4072  -16.9229   21.3832 C.ar    1  UNL1       -0.0002
     19 C          -3.5400  -17.7111   22.6403 C.3     1  UNL1        0.0968
     20 N          -4.7800  -18.5535   22.6931 N.3     1  UNL1       -0.2934
     21 C          -5.1271  -19.4502   21.5417 C.3     1  UNL1        0.0764
     22 C          -4.2343  -19.5044   20.3376 C.3     1  UNL1        0.0626
     23 H          -5.5653  -17.9142   22.8157 H       1  UNL1        0.1236
     24 C          -8.2757  -19.4104   20.0683 C.3     1  UNL1        0.0738
     25 C          -9.7272  -19.6713   19.7947 C.3     1  UNL1        0.0347
     26 C         -10.6671  -18.5232   19.5747 C.3     1  UNL1        0.0736
     27 N         -11.2975  -17.8344   20.7487 N.3     1  UNL1       -0.2703
     28 C         -10.9383  -16.4130   21.0659 C.3     1  UNL1        0.0894
     29 C         -11.5687  -15.7243   22.2399 C.3     1  UNL1        0.0862
     30 N         -12.5581  -16.4570   23.0967 N.3     1  UNL1       -0.2951
     31 C         -12.9173  -17.8783   22.7795 C.3     1  UNL1        0.0862
     32 C         -12.2869  -18.5671   21.6055 C.3     1  UNL1        0.0894
     33 H         -13.4255  -15.9209   23.0689 H       1  UNL1        0.1233
@<TRIPOS>BOND
     1    13    14   ar
     2    14    15   ar
     3    15    16   ar
     4    16    17   ar
     5    17    18   ar
     6    17    19    1
     7    19    20    1
     8    20    21    1
     9    21    12    1
    10    12     1    1
    11     1    24    1
    12    24    25    1
    13    25    26    1
    14    26    27    1
    15    27    28    1
    16    28    29    1
    17    29    30    1
    18    30    31    1
    19    31    32    1
    20     2     1    1
    21     2     3    1
    22     3     4    1
    23     4     5    1
    24     5     6    1
    25     6     7   ar
    26     7     8   ar
    27     8     9   ar
    28     9    10   ar
    29    10    11   ar
    30    21    22    1
    31    18    13   ar
    32    32    27    1
    33    11     2    1
    34    22    16    1
    35    11     6   ar
    36    20    23    1
    37    30    33    1
@<TRIPOS>MOLECULE
*****
 33 37 0 0 0
SMALL
GASTEIGER

@<TRIPOS>ATOM
      1 N          -7.7539  -19.2711   21.6615 N.3     1  UNL1       -0.2679
      2 C          -8.5128  -18.9021   22.9016 C.3     1  UNL1        0.0978
      3 C          -9.3920  -19.9157   23.5724 C.3     1  UNL1        0.0224
      4 C         -10.1509  -19.5466   24.8125 C.3     1  UNL1        0.0065
      5 C         -10.0307  -18.1641   25.3819 C.3     1  UNL1        0.0277
      6 C          -9.1515  -17.1506   24.7111 C.ar    1  UNL1       -0.0073
      7 C          -9.0313  -15.7681   25.2805 C.ar    1  UNL1       -0.0015
      8 C          -8.1521  -14.7546   24.6097 C.ar    1  UNL1        0.0203
      9 C          -7.3932  -15.1236   23.3696 C.ar    1  UNL1        0.0985
     10 N          -7.5135  -16.5061   22.8003 N.ar    1  UNL1       -0.2471
     11 C          -8.3926  -17.5196   23.4710 C.ar    1  UNL1        0.0695
     12 C          -6.4309  -19.9693   21.7718 C.3     1  UNL1        0.0886
     13 C          -0.2811  -17.7168   19.6844 C.ar    1  UNL1        0.0204
     14 C          -0.1551  -18.2743   21.0712 C.ar    1  UNL1        0.0984
     15 N          -1.3598  -18.8363   21.7661 N.ar    1  UNL1       -0.2484
     16 C          -2.6906  -18.8408   21.0741 C.ar    1  UNL1        0.0577
     17 C          -2.8167  -18.2834   19.6873 C.ar    1  UNL1        0.0073
     18 C          -1.6119  -17.7214   18.9924 C.ar    1  UNL1       -0.0002
     19 C          -4.1475  -18.2879   18.9952 C.3     1  UNL1        0.0968
     20 N          -5.3523  -18.8499   19.6900 N.3     1  UNL1       -0.2934
     21 C          -5.2261  -19.4073   21.0769 C.3     1  UNL1        0.0764
     22 C          -3.8953  -19.4028   21.7689 C.3     1  UNL1        0.0626
     23 H          -5.7072  -19.6032   19.1010 H       1  UNL1        0.1236
     24 C          -8.3180  -18.9420   20.3112 C.3     1  UNL1        0.0738
     25 C          -9.5502  -19.6435   19.8218 C.3     1  UNL1        0.0347
     26 C         -10.8313  -18.8813   19.6558 C.3     1  UNL1        0.0736
     27 N         -11.2203  -17.8398   20.6629 N.3     1  UNL1       -0.2703
     28 C         -12.3475  -18.1031   21.6169 C.3     1  UNL1        0.0894
     29 C         -12.7363  -17.0616   22.6239 C.3     1  UNL1        0.0862
     30 N         -11.9980  -15.7570   22.6770 N.3     1  UNL1       -0.2951
     31 C         -10.8708  -15.4938   21.7230 C.3     1  UNL1        0.0862
     32 C         -10.4819  -16.5352   20.7160 C.3     1  UNL1        0.0894
     33 H         -11.6127  -15.6748   23.6179 H       1  UNL1        0.1233
@<TRIPOS>BOND
     1    13    14   ar
     2    14    15   ar
     3    15    16   ar
     4    16    17   ar
     5    17    18   ar
     6    17    19    1
     7    19    20    1
     8    20    21    1
     9    21    12    1
    10    12     1    1
    11     1    24    1
    12    24    25    1
    13    25    26    1
    14    26    27    1
    15    27    28    1
    16    28    29    1
    17    29    30    1
    18    30    31    1
    19    31    32    1
    20     2     1    1
    21     2     3    1
    22     3     4    1
    23     4     5    1
    24     5     6    1
    25     6     7   ar
    26     7     8   ar
    27     8     9   ar
    28     9    10   ar
    29    10    11   ar
    30    21    22    1
    31    18    13   ar
    32    32    27    1
    33    11     2    1
    34    22    16    1
    35    11     6   ar
    36    20    23    1
    37    30    33    1
