@<TRIPOS>MOLECULE
*****
 38 42 0 0 0
SMALL
GASTEIGER

@<TRIPOS>ATOM
      1 O           7.3216   -1.4758   24.9672 O.2     1  UNL1       -0.2702
      2 C           6.7129   -2.6020   25.7490 C.2     1  UNL1        0.2454
      3 N           6.1905   -3.8138   25.0358 N.am    1  UNL1       -0.3011
      4 H           5.7910   -4.5529   25.5489 H       1  UNL1        0.1497
      5 C           6.6268   -2.5164   27.2441 C.2     1  UNL1        0.0493
      6 C           5.5066   -1.7548   27.8884 C.2     1  UNL1       -0.0363
      7 C           4.4726   -1.0788   27.0377 C.3     1  UNL1        0.0437
      8 C           3.3525   -0.3172   27.6821 C.3     1  UNL1        0.0981
      9 N           3.2664   -0.2316   29.1772 N.am    1  UNL1       -0.2753
     10 C           2.1462    0.5300   29.8216 C.2     1  UNL1        0.2520
     11 O           2.0601    0.6156   31.3167 O.2     1  UNL1       -0.2698
     12 C           4.3005   -0.9076   30.0279 C.3     1  UNL1        0.0981
     13 C           5.4206   -1.6692   29.3835 C.3     1  UNL1        0.0437
     14 C           1.1121    1.2061   28.9709 C.ar    1  UNL1        0.0872
     15 C           1.4128    2.5315   28.3362 C.ar    1  UNL1        0.0076
     16 C           0.3788    3.2075   27.4855 C.ar    1  UNL1        0.0003
     17 C          -0.9560    2.5581   27.2695 C.ar    1  UNL1        0.0031
     18 C          -1.2567    1.2327   27.9042 C.ar    1  UNL1        0.0368
     19 C          -0.2226    0.5566   28.7549 C.ar    1  UNL1        0.1380
     20 O          -0.5233   -0.7687   29.3896 O.3     1  UNL1       -0.5054
     21 H          -1.3571   -1.1744   29.2547 H       1  UNL1        0.2922
     22 C           6.2767   -3.8993   23.5407 C.3     1  UNL1        0.0892
     23 C           7.5297   -4.0951   22.7395 C.3     1  UNL1        0.0383
     24 C           7.1524   -4.1209   21.2880 C.3     1  UNL1        0.0742
     25 N           5.6663   -3.9411   21.1920 N.3     1  UNL1       -0.2675
     26 C           5.1251   -3.8042   22.5842 C.3     1  UNL1        0.0922
     27 C           4.8625   -3.9047   19.9261 C.3     1  UNL1        0.0992
     28 C           4.1966   -2.6309   19.4969 C.ar    1  UNL1       -0.0061
     29 C           4.7878   -1.8124   18.3876 C.ar    1  UNL1       -0.0029
     30 C           4.1219   -0.5387   17.9584 C.ar    1  UNL1       -0.0002
     31 C           2.8648   -0.0835   18.6385 C.ar    1  UNL1        0.0022
     32 C           2.1989    1.1903   18.2092 C.ar    1  UNL1        0.0296
     33 C           0.9419    1.6455   18.8894 C.ar    1  UNL1        0.1401
     34 F           0.2760    2.9192   18.4602 F       1  UNL1       -0.2042
     35 C           0.3507    0.8270   19.9987 C.ar    1  UNL1        0.0296
     36 C           1.0166   -0.4467   20.4279 C.ar    1  UNL1        0.0023
     37 C           2.2737   -0.9020   19.7478 C.ar    1  UNL1       -0.0001
     38 C           2.9396   -2.1757   20.1770 C.ar    1  UNL1       -0.0029
@<TRIPOS>BOND
     1     1     2    2
     2     2     5    1
     3     5     6    2
     4     6     7    1
     5     7     8    1
     6     8     9    1
     7     9    10   am
     8    10    11    2
     9    10    14    1
    10    14    15   ar
    11    15    16   ar
    12    16    17   ar
    13    17    18   ar
    14    18    19   ar
    15    19    20    1
    16     9    12    1
    17    12    13    1
    18     2     3   am
    19    22     3    1
    20    22    23    1
    21    23    24    1
    22    24    25    1
    23    25    27    1
    24    27    28    1
    25    28    29   ar
    26    29    30   ar
    27    30    31   ar
    28    31    32   ar
    29    32    33   ar
    30    33    34    1
    31    33    35   ar
    32    35    36   ar
    33    36    37   ar
    34    37    38   ar
    35    25    26    1
    36    13     6    1
    37    26    22    1
    38    19    14   ar
    39    38    28   ar
    40    37    31   ar
    41    20    21    1
    42     3     4    1
@<TRIPOS>MOLECULE
*****
 38 42 0 0 0
SMALL
GASTEIGER

@<TRIPOS>ATOM
      1 O          -0.0880    0.4277   28.3282 O.2     1  UNL1       -0.2702
      2 C           0.5209    1.7394   28.7265 C.2     1  UNL1        0.2454
      3 N           1.0721    2.6596   27.6780 N.am    1  UNL1       -0.3011
      4 H           1.4718    3.5205   27.9395 H       1  UNL1        0.1497
      5 C           0.5786    2.1308   30.1734 C.2     1  UNL1        0.0493
      6 C           1.6148    1.5257   31.0733 C.2     1  UNL1       -0.0363
      7 C           2.5934    0.5291   30.5265 C.3     1  UNL1        0.0437
      8 C           3.6297   -0.0760   31.4265 C.3     1  UNL1        0.0981
      9 N           3.6873    0.3154   32.8734 N.am    1  UNL1       -0.2753
     10 C           4.7236   -0.2898   33.7734 C.2     1  UNL1        0.2520
     11 O           4.7812    0.1017   35.2203 O.2     1  UNL1       -0.2698
     12 C           2.7086    1.3120   33.4203 C.3     1  UNL1        0.0981
     13 C           1.6724    1.9171   32.5202 C.3     1  UNL1        0.0437
     14 C           5.7022   -1.2864   33.2265 C.ar    1  UNL1        0.0872
     15 C           7.1085   -0.8652   32.9184 C.ar    1  UNL1        0.0076
     16 C           8.0871   -1.8617   32.3715 C.ar    1  UNL1        0.0003
     17 C           7.6595   -3.2795   32.1328 C.ar    1  UNL1        0.0031
     18 C           6.2531   -3.7007   32.4409 C.ar    1  UNL1        0.0368
     19 C           5.2745   -2.7041   32.9877 C.ar    1  UNL1        0.1380
     20 O           3.8683   -3.1253   33.2958 O.3     1  UNL1       -0.5054
     21 H           3.6011   -4.0109   33.1466 H       1  UNL1        0.2922
     22 C           1.0144    2.2682   26.2311 C.3     1  UNL1        0.0892
     23 C          -0.1017    1.5202   25.5639 C.3     1  UNL1        0.0383
     24 C           0.2568    1.3457   24.1179 C.3     1  UNL1        0.0742
     25 N           1.5943    1.9858   23.8914 N.3     1  UNL1       -0.2675
     26 C           2.0625    2.5559   25.1974 C.3     1  UNL1        0.0922
     27 C           2.3338    2.0453   22.5877 C.3     1  UNL1        0.0992
     28 C           2.5764    0.7889   21.8049 C.ar    1  UNL1       -0.0061
     29 C           2.0613    0.6685   20.4013 C.ar    1  UNL1       -0.0029
     30 C           2.3039   -0.5878   19.6187 C.ar    1  UNL1       -0.0002
     31 C           3.0616   -1.7238   20.2396 C.ar    1  UNL1        0.0022
     32 C           3.3042   -2.9802   19.4568 C.ar    1  UNL1        0.0296
     33 C           4.0618   -4.1162   20.0778 C.ar    1  UNL1        0.1401
     34 F           4.3044   -5.3726   19.2951 F       1  UNL1       -0.2042
     35 C           4.5769   -3.9957   21.4814 C.ar    1  UNL1        0.0296
     36 C           4.3343   -2.7394   22.2641 C.ar    1  UNL1        0.0023
     37 C           3.5767   -1.6034   21.6432 C.ar    1  UNL1       -0.0001
     38 C           3.3341   -0.3470   22.4259 C.ar    1  UNL1       -0.0029
@<TRIPOS>BOND
     1     1     2    2
     2     2     5    1
     3     5     6    2
     4     6     7    1
     5     7     8    1
     6     8     9    1
     7     9    10   am
     8    10    11    2
     9    10    14    1
    10    14    15   ar
    11    15    16   ar
    12    16    17   ar
    13    17    18   ar
    14    18    19   ar
    15    19    20    1
    16     9    12    1
    17    12    13    1
    18     2     3   am
    19    22     3    1
    20    22    23    1
    21    23    24    1
    22    24    25    1
    23    25    27    1
    24    27    28    1
    25    28    29   ar
    26    29    30   ar
    27    30    31   ar
    28    31    32   ar
    29    32    33   ar
    30    33    34    1
    31    33    35   ar
    32    35    36   ar
    33    36    37   ar
    34    37    38   ar
    35    25    26    1
    36    13     6    1
    37    26    22    1
    38    19    14   ar
    39    38    28   ar
    40    37    31   ar
    41    20    21    1
    42     3     4    1
@<TRIPOS>MOLECULE
*****
 38 42 0 0 0
SMALL
GASTEIGER

@<TRIPOS>ATOM
      1 O           7.9779   -2.0386   27.1349 O.2     1  UNL1       -0.2702
      2 C           6.9182   -2.8423   27.8288 C.2     1  UNL1        0.2454
      3 N           6.2208   -3.9522   27.0997 N.am    1  UNL1       -0.3011
      4 H           5.5253   -4.4796   27.5551 H       1  UNL1        0.1497
      5 C           6.5561   -2.5357   29.2518 C.2     1  UNL1        0.0493
      6 C           5.3666   -1.6734   29.5539 C.2     1  UNL1       -0.0363
      7 C           4.5392   -1.1174   28.4331 C.3     1  UNL1        0.0437
      8 C           3.3497   -0.2550   28.7354 C.3     1  UNL1        0.0981
      9 N           2.9876    0.0514   30.1584 N.am    1  UNL1       -0.2753
     10 C           1.7980    0.9139   30.4606 C.2     1  UNL1        0.2520
     11 O           1.4360    1.2204   31.8836 O.2     1  UNL1       -0.2698
     12 C           3.8150   -0.5045   31.2792 C.3     1  UNL1        0.0981
     13 C           5.0045   -1.3669   30.9770 C.3     1  UNL1        0.0437
     14 C           0.9706    1.4698   29.3398 C.ar    1  UNL1        0.0872
     15 C           1.3200    2.7983   28.7371 C.ar    1  UNL1        0.0076
     16 C           0.4925    3.3542   27.6162 C.ar    1  UNL1        0.0003
     17 C          -0.6843    2.5817   27.0981 C.ar    1  UNL1        0.0031
     18 C          -1.0336    1.2533   27.7009 C.ar    1  UNL1        0.0368
     19 C          -0.2062    0.6974   28.8217 C.ar    1  UNL1        0.1380
     20 O          -0.5555   -0.6310   29.4244 O.3     1  UNL1       -0.5054
     21 H          -1.2906   -1.1135   29.1007 H       1  UNL1        0.2922
     22 C           6.5830   -4.2587   25.6767 C.3     1  UNL1        0.0892
     23 C           7.4223   -5.4106   25.2090 C.3     1  UNL1        0.0383
     24 C           7.5275   -5.3308   23.7148 C.3     1  UNL1        0.0742
     25 N           6.7532   -4.1296   23.2591 N.3     1  UNL1       -0.2675
     26 C           6.1695   -3.4670   24.4716 C.3     1  UNL1        0.0922
     27 C           6.5911   -3.6715   21.8400 C.3     1  UNL1        0.0992
     28 C           5.3343   -2.9703   21.4172 C.ar    1  UNL1       -0.0061
     29 C           4.6342   -3.3813   20.1559 C.ar    1  UNL1       -0.0029
     30 C           3.3775   -2.6800   19.7331 C.ar    1  UNL1       -0.0002
     31 C           2.8208   -1.5678   20.5716 C.ar    1  UNL1        0.0022
     32 C           1.5640   -0.8665   20.1488 C.ar    1  UNL1        0.0296
     33 C           1.0073    0.2457   20.9873 C.ar    1  UNL1        0.1401
     34 F          -0.2494    0.9469   20.5645 F       1  UNL1       -0.2042
     35 C           1.7075    0.6567   22.2486 C.ar    1  UNL1        0.0296
     36 C           2.9643   -0.0446   22.6714 C.ar    1  UNL1        0.0023
     37 C           3.5209   -1.1568   21.8329 C.ar    1  UNL1       -0.0001
     38 C           4.7777   -1.8581   22.2557 C.ar    1  UNL1       -0.0029
@<TRIPOS>BOND
     1     1     2    2
     2     2     5    1
     3     5     6    2
     4     6     7    1
     5     7     8    1
     6     8     9    1
     7     9    10   am
     8    10    11    2
     9    10    14    1
    10    14    15   ar
    11    15    16   ar
    12    16    17   ar
    13    17    18   ar
    14    18    19   ar
    15    19    20    1
    16     9    12    1
    17    12    13    1
    18     2     3   am
    19    22     3    1
    20    22    23    1
    21    23    24    1
    22    24    25    1
    23    25    27    1
    24    27    28    1
    25    28    29   ar
    26    29    30   ar
    27    30    31   ar
    28    31    32   ar
    29    32    33   ar
    30    33    34    1
    31    33    35   ar
    32    35    36   ar
    33    36    37   ar
    34    37    38   ar
    35    25    26    1
    36    13     6    1
    37    26    22    1
    38    19    14   ar
    39    38    28   ar
    40    37    31   ar
    41    20    21    1
    42     3     4    1
@<TRIPOS>MOLECULE
*****
 38 42 0 0 0
SMALL
GASTEIGER

@<TRIPOS>ATOM
      1 O           6.6202   -5.1011   23.5289 O.2     1  UNL1       -0.2702
      2 C           8.0553   -5.5130   23.3844 C.2     1  UNL1        0.2454
      3 N           8.9336   -4.8313   22.3774 N.am    1  UNL1       -0.3011
      4 H           9.8754   -5.1017   22.2826 H       1  UNL1        0.1497
      5 C           8.6121   -6.6067   24.2469 C.2     1  UNL1        0.0493
      6 C           8.6352   -6.4475   25.7382 C.2     1  UNL1       -0.0363
      7 C           8.1016   -5.1946   26.3671 C.3     1  UNL1        0.0437
      8 C           8.1248   -5.0354   27.8584 C.3     1  UNL1        0.0981
      9 N           8.6815   -6.1292   28.7209 N.am    1  UNL1       -0.2753
     10 C           8.7047   -5.9699   30.2123 C.2     1  UNL1        0.2520
     11 O           9.2614   -7.0637   31.0748 O.2     1  UNL1       -0.2698
     12 C           9.2151   -7.3820   28.0920 C.3     1  UNL1        0.0981
     13 C           9.1920   -7.5412   26.6007 C.3     1  UNL1        0.0437
     14 C           8.1710   -4.7171   30.8412 C.ar    1  UNL1        0.0872
     15 C           8.7990   -3.3923   30.5237 C.ar    1  UNL1        0.0076
     16 C           8.2654   -2.1394   31.1526 C.ar    1  UNL1        0.0003
     17 C           7.1038   -2.2113   32.0990 C.ar    1  UNL1        0.0031
     18 C           6.4759   -3.5361   32.4165 C.ar    1  UNL1        0.0368
     19 C           7.0095   -4.7889   31.7876 C.ar    1  UNL1        0.1380
     20 O           6.3817   -6.1136   32.1051 O.3     1  UNL1       -0.5054
     21 H           5.6561   -6.1585   32.6963 H       1  UNL1        0.2922
     22 C           8.3767   -3.7377   21.5149 C.3     1  UNL1        0.0892
     23 C           8.5439   -2.2643   21.7418 C.3     1  UNL1        0.0383
     24 C           7.8255   -1.5415   20.6412 C.3     1  UNL1        0.0742
     25 N           7.2142   -2.5680   19.7342 N.3     1  UNL1       -0.2675
     26 C           7.5549   -3.9253   20.2742 C.3     1  UNL1        0.0922
     27 C           6.4045   -2.2866   18.5033 C.3     1  UNL1        0.0992
     28 C           5.2645   -1.3134   18.5617 C.ar    1  UNL1       -0.0061
     29 C           5.3326   -0.0311   17.7865 C.ar    1  UNL1       -0.0029
     30 C           4.1927    0.9421   17.8450 C.ar    1  UNL1       -0.0002
     31 C           2.9846    0.6329   18.6786 C.ar    1  UNL1        0.0022
     32 C           1.8447    1.6062   18.7370 C.ar    1  UNL1        0.0296
     33 C           0.6366    1.2970   19.5707 C.ar    1  UNL1        0.1401
     34 F          -0.5034    2.2701   19.6292 F       1  UNL1       -0.2042
     35 C           0.5685    0.0146   20.3460 C.ar    1  UNL1        0.0296
     36 C           1.7085   -0.9585   20.2875 C.ar    1  UNL1        0.0023
     37 C           2.9165   -0.6494   19.4538 C.ar    1  UNL1       -0.0001
     38 C           4.0565   -1.6225   19.3954 C.ar    1  UNL1       -0.0029
@<TRIPOS>BOND
     1     1     2    2
     2     2     5    1
     3     5     6    2
     4     6     7    1
     5     7     8    1
     6     8     9    1
     7     9    10   am
     8    10    11    2
     9    10    14    1
    10    14    15   ar
    11    15    16   ar
    12    16    17   ar
    13    17    18   ar
    14    18    19   ar
    15    19    20    1
    16     9    12    1
    17    12    13    1
    18     2     3   am
    19    22     3    1
    20    22    23    1
    21    23    24    1
    22    24    25    1
    23    25    27    1
    24    27    28    1
    25    28    29   ar
    26    29    30   ar
    27    30    31   ar
    28    31    32   ar
    29    32    33   ar
    30    33    34    1
    31    33    35   ar
    32    35    36   ar
    33    36    37   ar
    34    37    38   ar
    35    25    26    1
    36    13     6    1
    37    26    22    1
    38    19    14   ar
    39    38    28   ar
    40    37    31   ar
    41    20    21    1
    42     3     4    1
@<TRIPOS>MOLECULE
*****
 38 42 0 0 0
SMALL
GASTEIGER

@<TRIPOS>ATOM
      1 O          -0.3794    4.3240   26.5108 O.2     1  UNL1       -0.2702
      2 C          -1.4256    3.2490   26.5185 C.2     1  UNL1        0.2454
      3 N          -1.0273    1.8136   26.3427 N.am    1  UNL1       -0.3011
      4 H          -1.7139    1.1080   26.3478 H       1  UNL1        0.1497
      5 C          -2.8700    3.6096   26.7021 C.2     1  UNL1        0.0493
      6 C          -3.7230    3.9205   25.5082 C.2     1  UNL1       -0.0363
      7 C          -3.1316    3.8710   24.1306 C.3     1  UNL1        0.0437
      8 C          -3.9847    4.1820   22.9366 C.3     1  UNL1        0.0981
      9 N          -5.4291    4.5425   23.1203 N.am    1  UNL1       -0.2753
     10 C          -6.2822    4.8535   21.9262 C.2     1  UNL1        0.2520
     11 O          -7.7266    5.2141   22.1099 O.2     1  UNL1       -0.2698
     12 C          -6.0204    4.5921   24.4979 C.3     1  UNL1        0.0981
     13 C          -5.1674    4.2811   25.6918 C.3     1  UNL1        0.0437
     14 C          -5.6909    4.8040   20.5486 C.ar    1  UNL1        0.0872
     15 C          -5.8347    3.5653   19.7149 C.ar    1  UNL1        0.0076
     16 C          -5.2434    3.5157   18.3372 C.ar    1  UNL1        0.0003
     17 C          -4.5083    4.7048   17.7934 C.ar    1  UNL1        0.0031
     18 C          -4.3645    5.9434   18.6272 C.ar    1  UNL1        0.0368
     19 C          -4.9558    5.9930   20.0048 C.ar    1  UNL1        0.1380
     20 O          -4.8121    7.2316   20.8385 O.3     1  UNL1       -0.5054
     21 H          -4.3529    7.9743   20.4987 H       1  UNL1        0.2922
     22 C           0.4172    1.4531   26.1591 C.3     1  UNL1        0.0892
     23 C           1.3596    1.0106   27.2390 C.3     1  UNL1        0.0383
     24 C           2.6976    0.7558   26.6107 C.3     1  UNL1        0.0742
     25 N           2.5821    1.0408   25.1426 N.3     1  UNL1       -0.2675
     26 C           1.1728    1.4717   24.8635 C.3     1  UNL1        0.0922
     27 C           3.6828    0.9167   24.1311 C.3     1  UNL1        0.0992
     28 C           3.8913   -0.3791   23.4047 C.ar    1  UNL1       -0.0061
     29 C           4.5244   -1.5412   24.1107 C.ar    1  UNL1       -0.0029
     30 C           4.7329   -2.8369   23.3844 C.ar    1  UNL1       -0.0002
     31 C           4.3082   -2.9705   21.9519 C.ar    1  UNL1        0.0022
     32 C           4.5167   -4.2663   21.2256 C.ar    1  UNL1        0.0296
     33 C           4.0920   -4.3998   19.7931 C.ar    1  UNL1        0.1401
     34 F           4.3004   -5.6955   19.0668 F       1  UNL1       -0.2042
     35 C           3.4588   -3.2376   19.0871 C.ar    1  UNL1        0.0296
     36 C           3.2504   -1.9419   19.8135 C.ar    1  UNL1        0.0023
     37 C           3.6750   -1.8083   21.2459 C.ar    1  UNL1       -0.0001
     38 C           3.4666   -0.5126   21.9723 C.ar    1  UNL1       -0.0029
@<TRIPOS>BOND
     1     1     2    2
     2     2     5    1
     3     5     6    2
     4     6     7    1
     5     7     8    1
     6     8     9    1
     7     9    10   am
     8    10    11    2
     9    10    14    1
    10    14    15   ar
    11    15    16   ar
    12    16    17   ar
    13    17    18   ar
    14    18    19   ar
    15    19    20    1
    16     9    12    1
    17    12    13    1
    18     2     3   am
    19    22     3    1
    20    22    23    1
    21    23    24    1
    22    24    25    1
    23    25    27    1
    24    27    28    1
    25    28    29   ar
    26    29    30   ar
    27    30    31   ar
    28    31    32   ar
    29    32    33   ar
    30    33    34    1
    31    33    35   ar
    32    35    36   ar
    33    36    37   ar
    34    37    38   ar
    35    25    26    1
    36    13     6    1
    37    26    22    1
    38    19    14   ar
    39    38    28   ar
    40    37    31   ar
    41    20    21    1
    42     3     4    1
@<TRIPOS>MOLECULE
*****
 38 42 0 0 0
SMALL
GASTEIGER

@<TRIPOS>ATOM
      1 O           3.1600    1.9953   27.0629 O.2     1  UNL1       -0.2702
      2 C           1.9578    1.1503   26.7612 C.2     1  UNL1        0.2454
      3 N           1.6856   -0.0829   27.5705 N.am    1  UNL1       -0.3011
      4 H           0.8966   -0.6374   27.3725 H       1  UNL1        0.1497
      5 C           1.0279    1.5388   25.6502 C.2     1  UNL1        0.0493
      6 C           1.2987    1.0765   24.2492 C.2     1  UNL1       -0.0363
      7 C           2.4995    0.2256   23.9592 C.3     1  UNL1        0.0437
      8 C           2.7704   -0.2367   22.5581 C.3     1  UNL1        0.0981
      9 N           1.8404    0.1518   21.4472 N.am    1  UNL1       -0.2753
     10 C           2.1113   -0.3105   20.0461 C.2     1  UNL1        0.2520
     11 O           1.1814    0.0780   18.9351 O.2     1  UNL1       -0.2698
     12 C           0.6396    1.0027   21.7372 C.3     1  UNL1        0.0981
     13 C           0.3688    1.4650   23.1382 C.3     1  UNL1        0.0437
     14 C           3.3121   -1.1613   19.7560 C.ar    1  UNL1        0.0872
     15 C           3.1842   -2.6557   19.7312 C.ar    1  UNL1        0.0076
     16 C           4.3850   -3.5065   19.4411 C.ar    1  UNL1        0.0003
     17 C           5.7137   -2.8630   19.1759 C.ar    1  UNL1        0.0031
     18 C           5.8417   -1.3686   19.2008 C.ar    1  UNL1        0.0368
     19 C           4.6409   -0.5178   19.4908 C.ar    1  UNL1        0.1380
     20 O           4.7688    0.9764   19.5157 O.3     1  UNL1       -0.5054
     21 H           5.5988    1.3784   19.3500 H       1  UNL1        0.2922
     22 C           2.6155   -0.4713   28.6816 C.3     1  UNL1        0.0892
     23 C           2.2854   -0.4812   30.1448 C.3     1  UNL1        0.0383
     24 C           3.5047   -0.9340   30.8920 C.3     1  UNL1        0.0742
     25 N           4.5884   -1.2039   29.8905 N.3     1  UNL1       -0.2675
     26 C           4.0388   -0.9179   28.5245 C.3     1  UNL1        0.0922
     27 C           5.9777   -1.6767   30.2007 C.3     1  UNL1        0.0992
     28 C           6.4424   -3.0147   29.7068 C.ar    1  UNL1       -0.0061
     29 C           6.8271   -4.0835   30.6864 C.ar    1  UNL1       -0.0029
     30 C           7.2918   -5.4214   30.1925 C.ar    1  UNL1       -0.0002
     31 C           7.3716   -5.6906   28.7191 C.ar    1  UNL1        0.0022
     32 C           7.8363   -7.0286   28.2252 C.ar    1  UNL1        0.0296
     33 C           7.9162   -7.2978   26.7517 C.ar    1  UNL1        0.1401
     34 F           8.3808   -8.6358   26.2578 F       1  UNL1       -0.2042
     35 C           7.5314   -6.2290   25.7721 C.ar    1  UNL1        0.0296
     36 C           7.0667   -4.8910   26.2660 C.ar    1  UNL1        0.0023
     37 C           6.9869   -4.6219   27.7395 C.ar    1  UNL1       -0.0001
     38 C           6.5222   -3.2839   28.2334 C.ar    1  UNL1       -0.0029
@<TRIPOS>BOND
     1     1     2    2
     2     2     5    1
     3     5     6    2
     4     6     7    1
     5     7     8    1
     6     8     9    1
     7     9    10   am
     8    10    11    2
     9    10    14    1
    10    14    15   ar
    11    15    16   ar
    12    16    17   ar
    13    17    18   ar
    14    18    19   ar
    15    19    20    1
    16     9    12    1
    17    12    13    1
    18     2     3   am
    19    22     3    1
    20    22    23    1
    21    23    24    1
    22    24    25    1
    23    25    27    1
    24    27    28    1
    25    28    29   ar
    26    29    30   ar
    27    30    31   ar
    28    31    32   ar
    29    32    33   ar
    30    33    34    1
    31    33    35   ar
    32    35    36   ar
    33    36    37   ar
    34    37    38   ar
    35    25    26    1
    36    13     6    1
    37    26    22    1
    38    19    14   ar
    39    38    28   ar
    40    37    31   ar
    41    20    21    1
    42     3     4    1
@<TRIPOS>MOLECULE
*****
 38 42 0 0 0
SMALL
GASTEIGER

@<TRIPOS>ATOM
      1 O           7.6194   -1.8504   30.8462 O.2     1  UNL1       -0.2702
      2 C           6.6849   -2.5115   31.8156 C.2     1  UNL1        0.2454
      3 N           6.5475   -4.0052   31.8250 N.am    1  UNL1       -0.3011
      4 H           5.9343   -4.4391   32.4613 H       1  UNL1        0.1497
      5 C           5.8880   -1.6789   32.7757 C.2     1  UNL1        0.0493
      6 C           4.7435   -0.8477   32.2766 C.2     1  UNL1       -0.0363
      7 C           4.3959   -0.8491   30.8174 C.3     1  UNL1        0.0437
      8 C           3.2513   -0.0179   30.3184 C.3     1  UNL1        0.0981
      9 N           2.4544    0.8147   31.2785 N.am    1  UNL1       -0.2753
     10 C           1.3098    1.6460   30.7794 C.2     1  UNL1        0.2520
     11 O           0.5129    2.4786   31.7395 O.2     1  UNL1       -0.2698
     12 C           2.8021    0.8161   32.7376 C.3     1  UNL1        0.0981
     13 C           3.9466   -0.0151   33.2367 C.3     1  UNL1        0.0437
     14 C           0.9622    1.6446   29.3202 C.ar    1  UNL1        0.0872
     15 C           1.7741    2.4565   28.3550 C.ar    1  UNL1        0.0076
     16 C           1.4264    2.4552   26.8959 C.ar    1  UNL1        0.0003
     17 C           0.2668    1.6419   26.4020 C.ar    1  UNL1        0.0031
     18 C          -0.5451    0.8300   27.3672 C.ar    1  UNL1        0.0368
     19 C          -0.1974    0.8313   28.8263 C.ar    1  UNL1        0.1380
     20 O          -1.0092    0.0195   29.7915 O.3     1  UNL1       -0.5054
     21 H          -1.7336   -0.4886   29.4829 H       1  UNL1        0.2922
     22 C           7.3445   -4.8377   30.8650 C.3     1  UNL1        0.0892
     23 C           8.8389   -4.8461   30.7352 C.3     1  UNL1        0.0383
     24 C           9.2050   -5.8216   29.6562 C.3     1  UNL1        0.0742
     25 N           7.9369   -6.4162   29.1191 N.3     1  UNL1       -0.2675
     26 C           6.7871   -5.8081   29.8661 C.3     1  UNL1        0.0922
     27 C           7.8363   -7.4392   28.0267 C.3     1  UNL1        0.0992
     28 C           8.0557   -7.0356   26.5987 C.ar    1  UNL1       -0.0061
     29 C           8.9246   -7.8729   25.7077 C.ar    1  UNL1       -0.0029
     30 C           9.1439   -7.4694   24.2798 C.ar    1  UNL1       -0.0002
     31 C           8.4943   -6.2285   23.7428 C.ar    1  UNL1        0.0022
     32 C           8.7136   -5.8250   22.3148 C.ar    1  UNL1        0.0296
     33 C           8.0640   -4.5842   21.7779 C.ar    1  UNL1        0.1401
     34 F           8.2833   -4.1806   20.3500 F       1  UNL1       -0.2042
     35 C           7.1950   -3.7469   22.6689 C.ar    1  UNL1        0.0296
     36 C           6.9757   -4.1504   24.0968 C.ar    1  UNL1        0.0023
     37 C           7.6253   -5.3913   24.6338 C.ar    1  UNL1       -0.0001
     38 C           7.4060   -5.7948   26.0617 C.ar    1  UNL1       -0.0029
@<TRIPOS>BOND
     1     1     2    2
     2     2     5    1
     3     5     6    2
     4     6     7    1
     5     7     8    1
     6     8     9    1
     7     9    10   am
     8    10    11    2
     9    10    14    1
    10    14    15   ar
    11    15    16   ar
    12    16    17   ar
    13    17    18   ar
    14    18    19   ar
    15    19    20    1
    16     9    12    1
    17    12    13    1
    18     2     3   am
    19    22     3    1
    20    22    23    1
    21    23    24    1
    22    24    25    1
    23    25    27    1
    24    27    28    1
    25    28    29   ar
    26    29    30   ar
    27    30    31   ar
    28    31    32   ar
    29    32    33   ar
    30    33    34    1
    31    33    35   ar
    32    35    36   ar
    33    36    37   ar
    34    37    38   ar
    35    25    26    1
    36    13     6    1
    37    26    22    1
    38    19    14   ar
    39    38    28   ar
    40    37    31   ar
    41    20    21    1
    42     3     4    1
@<TRIPOS>MOLECULE
*****
 38 42 0 0 0
SMALL
GASTEIGER

@<TRIPOS>ATOM
      1 O           4.5255    0.8594   28.0321 O.2     1  UNL1       -0.2702
      2 C           4.1177   -0.5680   27.8166 C.2     1  UNL1        0.2454
      3 N           2.6651   -0.9419   27.8218 N.am    1  UNL1       -0.3011
      4 H           2.3974   -1.8787   27.6804 H       1  UNL1        0.1497
      5 C           5.1626   -1.6213   27.5958 C.2     1  UNL1        0.0493
      6 C           5.4289   -2.1353   26.2121 C.2     1  UNL1       -0.0363
      7 C           4.6502   -1.5960   25.0490 C.3     1  UNL1        0.0437
      8 C           4.9165   -2.1101   23.6652 C.3     1  UNL1        0.0981
      9 N           5.9614   -3.1634   23.4446 N.am    1  UNL1       -0.2753
     10 C           6.2277   -3.6775   22.0607 C.2     1  UNL1        0.2520
     11 O           7.2727   -4.7308   21.8401 O.2     1  UNL1       -0.2698
     12 C           6.7401   -3.7026   24.6077 C.3     1  UNL1        0.0981
     13 C           6.4738   -3.1886   25.9915 C.3     1  UNL1        0.0437
     14 C           5.4490   -3.1382   20.8976 C.ar    1  UNL1        0.0872
     15 C           5.8493   -1.8383   20.2651 C.ar    1  UNL1        0.0076
     16 C           5.0706   -1.2991   19.1020 C.ar    1  UNL1        0.0003
     17 C           3.8917   -2.0598   18.5713 C.ar    1  UNL1        0.0031
     18 C           3.4915   -3.3597   19.2038 C.ar    1  UNL1        0.0368
     19 C           4.2702   -3.8989   20.3670 C.ar    1  UNL1        0.1380
     20 O           3.8700   -5.1988   20.9994 O.3     1  UNL1       -0.5054
     21 H           3.1336   -5.6740   20.6680 H       1  UNL1        0.2922
     22 C           1.6202    0.1114   28.0426 C.3     1  UNL1        0.0892
     23 C           0.5486    0.0841   29.0919 C.3     1  UNL1        0.0383
     24 C          -0.2703    1.3329   28.9506 C.3     1  UNL1        0.0742
     25 N           0.2951    2.1319   27.8139 N.3     1  UNL1       -0.2675
     26 C           1.4635    1.3770   27.2528 C.3     1  UNL1        0.0922
     27 C          -0.2179    3.4537   27.3244 C.3     1  UNL1        0.0992
     28 C          -1.2421    3.5018   26.2295 C.ar    1  UNL1       -0.0061
     29 C          -0.8440    3.1960   24.8161 C.ar    1  UNL1       -0.0029
     30 C          -1.8682    3.2442   23.7213 C.ar    1  UNL1       -0.0002
     31 C          -3.2906    3.5982   24.0400 C.ar    1  UNL1        0.0022
     32 C          -4.3148    3.6464   22.9451 C.ar    1  UNL1        0.0296
     33 C          -5.7372    4.0004   23.2637 C.ar    1  UNL1        0.1401
     34 F          -6.7614    4.0486   22.1690 F       1  UNL1       -0.2042
     35 C          -6.1353    4.3063   24.6773 C.ar    1  UNL1        0.0296
     36 C          -5.1111    4.2581   25.7721 C.ar    1  UNL1        0.0023
     37 C          -3.6887    3.9041   25.4534 C.ar    1  UNL1       -0.0001
     38 C          -2.6645    3.8559   26.5482 C.ar    1  UNL1       -0.0029
@<TRIPOS>BOND
     1     1     2    2
     2     2     5    1
     3     5     6    2
     4     6     7    1
     5     7     8    1
     6     8     9    1
     7     9    10   am
     8    10    11    2
     9    10    14    1
    10    14    15   ar
    11    15    16   ar
    12    16    17   ar
    13    17    18   ar
    14    18    19   ar
    15    19    20    1
    16     9    12    1
    17    12    13    1
    18     2     3   am
    19    22     3    1
    20    22    23    1
    21    23    24    1
    22    24    25    1
    23    25    27    1
    24    27    28    1
    25    28    29   ar
    26    29    30   ar
    27    30    31   ar
    28    31    32   ar
    29    32    33   ar
    30    33    34    1
    31    33    35   ar
    32    35    36   ar
    33    36    37   ar
    34    37    38   ar
    35    25    26    1
    36    13     6    1
    37    26    22    1
    38    19    14   ar
    39    38    28   ar
    40    37    31   ar
    41    20    21    1
    42     3     4    1
@<TRIPOS>MOLECULE
*****
 38 42 0 0 0
SMALL
GASTEIGER

@<TRIPOS>ATOM
      1 O           2.7948   -1.4851   27.7466 O.2     1  UNL1       -0.2702
      2 C           3.5527   -0.4500   26.9693 C.2     1  UNL1        0.2454
      3 N           5.0366   -0.3179   27.1447 N.am    1  UNL1       -0.3011
      4 H           5.5340    0.3615   26.6346 H       1  UNL1        0.1497
      5 C           2.8267    0.4529   26.0165 C.2     1  UNL1        0.0493
      6 C           2.8486    0.1636   24.5449 C.2     1  UNL1       -0.0363
      7 C           3.5964   -1.0286   24.0259 C.3     1  UNL1        0.0437
      8 C           3.6182   -1.3178   22.5542 C.3     1  UNL1        0.0981
      9 N           2.8921   -0.4148   21.6016 N.am    1  UNL1       -0.2753
     10 C           2.9139   -0.7041   20.1298 C.2     1  UNL1        0.2520
     11 O           2.1879    0.1988   19.1772 O.2     1  UNL1       -0.2698
     12 C           2.1443    0.7774   22.1206 C.3     1  UNL1        0.0981
     13 C           2.1225    1.0666   23.5923 C.3     1  UNL1        0.0437
     14 C           3.6617   -1.8963   19.6108 C.ar    1  UNL1        0.0872
     15 C           2.9782   -3.2283   19.5180 C.ar    1  UNL1        0.0076
     16 C           3.7260   -4.4205   18.9990 C.ar    1  UNL1        0.0003
     17 C           5.1574   -4.2808   18.5728 C.ar    1  UNL1        0.0031
     18 C           5.8409   -2.9488   18.6656 C.ar    1  UNL1        0.0368
     19 C           5.0931   -1.7566   19.1846 C.ar    1  UNL1        0.1380
     20 O           5.7766   -0.4247   19.2775 O.3     1  UNL1       -0.5054
     21 H           6.6707   -0.3374   19.0113 H       1  UNL1        0.2922
     22 C           5.7625   -1.2208   28.0975 C.3     1  UNL1        0.0892
     23 C           6.1520   -2.6460   27.8382 C.3     1  UNL1        0.0383
     24 C           6.8566   -3.1631   29.0573 C.3     1  UNL1        0.0742
     25 N           6.9025   -2.0575   30.0700 N.3     1  UNL1       -0.2675
     26 C           6.2264   -0.8572   29.4768 C.3     1  UNL1        0.0922
     27 C           7.5168   -2.1382   31.4361 C.3     1  UNL1        0.0992
     28 C           6.7483   -1.6625   32.6333 C.ar    1  UNL1       -0.0061
     29 C           5.3328   -2.1123   32.8430 C.ar    1  UNL1       -0.0029
     30 C           4.5644   -1.6366   34.0402 C.ar    1  UNL1       -0.0002
     31 C           5.2114   -0.7113   35.0276 C.ar    1  UNL1        0.0022
     32 C           4.4429   -0.2356   36.2248 C.ar    1  UNL1        0.0296
     33 C           5.0900    0.6897   37.2123 C.ar    1  UNL1        0.1401
     34 F           4.3216    1.1653   38.4094 F       1  UNL1       -0.2042
     35 C           6.5056    1.1394   37.0025 C.ar    1  UNL1        0.0296
     36 C           7.2740    0.6638   35.8053 C.ar    1  UNL1        0.0023
     37 C           6.6270   -0.2616   34.8179 C.ar    1  UNL1       -0.0001
     38 C           7.3954   -0.7372   33.6207 C.ar    1  UNL1       -0.0029
@<TRIPOS>BOND
     1     1     2    2
     2     2     5    1
     3     5     6    2
     4     6     7    1
     5     7     8    1
     6     8     9    1
     7     9    10   am
     8    10    11    2
     9    10    14    1
    10    14    15   ar
    11    15    16   ar
    12    16    17   ar
    13    17    18   ar
    14    18    19   ar
    15    19    20    1
    16     9    12    1
    17    12    13    1
    18     2     3   am
    19    22     3    1
    20    22    23    1
    21    23    24    1
    22    24    25    1
    23    25    27    1
    24    27    28    1
    25    28    29   ar
    26    29    30   ar
    27    30    31   ar
    28    31    32   ar
    29    32    33   ar
    30    33    34    1
    31    33    35   ar
    32    35    36   ar
    33    36    37   ar
    34    37    38   ar
    35    25    26    1
    36    13     6    1
    37    26    22    1
    38    19    14   ar
    39    38    28   ar
    40    37    31   ar
    41    20    21    1
    42     3     4    1
