@<TRIPOS>MOLECULE
*****
 34 37 0 0 0
SMALL
GASTEIGER

@<TRIPOS>ATOM
      1 N           1.2257    1.1798   25.0948 N.ar    1  UNL1       -0.2287
      2 C           0.1787    1.2669   24.0242 C.ar    1  UNL1        0.0990
      3 C           0.8470    1.0307   22.7022 C.ar    1  UNL1        0.0338
      4 C           2.3069    0.7976   22.9558 C.ar    1  UNL1        0.0981
      5 N           2.5410    0.8897   24.4346 N.ar    1  UNL1       -0.1680
      6 C           2.9752    0.5615   21.6338 C.3     1  UNL1        0.1414
      7 N           1.9282    0.6486   20.5631 N.am    1  UNL1       -0.2660
      8 C           2.1564    0.4760   19.0907 C.2     1  UNL1        0.2525
      9 O           1.0062    0.5916   18.1347 O.2     1  UNL1       -0.2698
     10 C           0.6129    0.9386   21.2234 C.3     1  UNL1        0.1236
     11 C          -1.6456    0.3057   29.3365 C.3     1  UNL1        0.0311
     12 C          -0.4382    0.9153   28.6881 C.ar    1  UNL1       -0.0204
     13 C           0.5411    1.6976   29.5122 C.ar    1  UNL1       -0.0042
     14 C           1.7485    2.3072   28.8639 C.ar    1  UNL1        0.0012
     15 C           1.9767    2.1346   27.3914 C.ar    1  UNL1        0.0191
     16 C           0.9974    1.3523   26.5673 C.ar    1  UNL1        0.0825
     17 C          -0.2100    0.7427   27.2156 C.ar    1  UNL1        0.0149
     18 C           3.5349    0.1879   18.5741 C.ar    1  UNL1        0.0888
     19 C           4.3361    1.2780   17.9262 C.ar    1  UNL1        0.0259
     20 C           5.7146    0.9898   17.4096 C.ar    1  UNL1        0.1061
     21 C           6.2918   -0.3883   17.5408 C.ar    1  UNL1        0.0215
     22 C           5.4906   -1.4785   18.1887 C.ar    1  UNL1        0.0384
     23 C           4.1122   -1.1904   18.7053 C.ar    1  UNL1        0.1432
     24 S           6.5157    2.0800   16.7617 S.O2    1  UNL1        0.0105
     25 C           7.3168    3.1701   16.1139 C.3     1  UNL1        0.1816
     26 O           7.4704    1.0571   16.2211 O.2     1  UNL1       -0.1686
     27 O           5.5610    3.1030   17.3024 O.2     1  UNL1       -0.1686
     28 O           3.3110   -2.2805   19.3532 O.3     1  UNL1       -0.4702
     29 C           4.0083   -3.4060   20.0582 C.3     1  UNL1        0.2599
     30 C           4.3474   -3.2834   21.5142 C.3     1  UNL1        0.0566
     31 C           4.3665   -4.6541   19.3073 C.3     1  UNL1        0.4340
     32 F           4.7246   -5.9021   18.5563 F       1  UNL1       -0.1664
     33 F           5.8022   -4.4819   19.7061 F       1  UNL1       -0.1664
     34 F           2.9307   -4.8262   18.9085 F       1  UNL1       -0.1664
@<TRIPOS>BOND
     1    11    12    1
     2    12    13   ar
     3    13    14   ar
     4    14    15   ar
     5    15    16   ar
     6    16     1    1
     7     1     2   ar
     8     2     3   ar
     9     3     4   ar
    10     4     5   ar
    11     4     6    1
    12     6     7    1
    13     7     8   am
    14     8     9    2
    15     8    18    1
    16    18    19   ar
    17    19    20   ar
    18    20    24    1
    19    24    25    1
    20    24    26    2
    21    24    27    2
    22    20    21   ar
    23    21    22   ar
    24    22    23   ar
    25    23    28    1
    26    28    29    1
    27    29    30    1
    28    29    31    1
    29    31    32    1
    30    31    33    1
    31    31    34    1
    32     7    10    1
    33    16    17   ar
    34    17    12   ar
    35     5     1   ar
    36    23    18   ar
    37    10     3    1
@<TRIPOS>MOLECULE
*****
 34 37 0 0 0
SMALL
GASTEIGER

@<TRIPOS>ATOM
      1 N           2.5179   -0.1173   19.2884 N.ar    1  UNL1       -0.2287
      2 C           2.5917    1.3135   18.8440 C.ar    1  UNL1        0.0990
      3 C           1.4036    2.0355   19.4070 C.ar    1  UNL1        0.0338
      4 C           0.5955    1.0511   20.1994 C.ar    1  UNL1        0.0981
      5 N           1.2842   -0.2795   20.1261 N.ar    1  UNL1       -0.1680
      6 C          -0.5925    1.7731   20.7625 C.3     1  UNL1        0.1414
      7 N          -0.5188    3.2040   20.3181 N.am    1  UNL1       -0.2660
      8 C          -1.5054    4.2831   20.6527 C.2     1  UNL1        0.2525
      9 O          -1.2990    5.6753   20.1337 O.2     1  UNL1       -0.2698
     10 C           0.7149    3.3661   19.4804 C.3     1  UNL1        0.1236
     11 C           3.9234   -5.1187   19.3900 C.3     1  UNL1        0.0311
     12 C           4.2073   -3.6971   19.0046 C.ar    1  UNL1       -0.0204
     13 C           5.4779   -3.3547   18.2847 C.ar    1  UNL1       -0.0042
     14 C           5.7619   -1.9332   17.8993 C.ar    1  UNL1        0.0012
     15 C           4.7751   -0.8540   18.2339 C.ar    1  UNL1        0.0191
     16 C           3.5045   -1.1964   18.9538 C.ar    1  UNL1        0.0825
     17 C           3.2206   -2.6180   19.3392 C.ar    1  UNL1        0.0149
     18 C          -2.6985    3.9701   21.5062 C.ar    1  UNL1        0.0888
     19 C          -2.6276    4.1587   22.9925 C.ar    1  UNL1        0.0259
     20 C          -3.8208    3.8457   23.8461 C.ar    1  UNL1        0.1061
     21 C          -5.0848    3.3441   23.2133 C.ar    1  UNL1        0.0215
     22 C          -5.1558    3.1555   21.7269 C.ar    1  UNL1        0.0384
     23 C          -3.9627    3.4684   20.8733 C.ar    1  UNL1        0.1432
     24 S          -3.7497    4.0344   25.3325 S.O2    1  UNL1        0.0105
     25 C          -3.6787    4.2231   26.8189 C.3     1  UNL1        0.1816
     26 O          -5.1221    3.4455   25.4728 O.2     1  UNL1       -0.1686
     27 O          -2.3773    4.6234   25.1923 O.2     1  UNL1       -0.1686
     28 O          -4.0336    3.2798   19.3870 O.3     1  UNL1       -0.4702
     29 C          -4.7761    4.2703   18.5398 C.3     1  UNL1        0.2599
     30 C          -4.0234    5.1748   17.6097 C.3     1  UNL1        0.0566
     31 C          -6.2713    4.3562   18.6228 C.3     1  UNL1        0.4340
     32 F          -7.7665    4.4423   18.7058 F       1  UNL1       -0.1664
     33 F          -6.3607    2.8601   18.5624 F       1  UNL1       -0.1664
     34 F          -6.1819    5.8524   18.6833 F       1  UNL1       -0.1664
@<TRIPOS>BOND
     1    11    12    1
     2    12    13   ar
     3    13    14   ar
     4    14    15   ar
     5    15    16   ar
     6    16     1    1
     7     1     2   ar
     8     2     3   ar
     9     3     4   ar
    10     4     5   ar
    11     4     6    1
    12     6     7    1
    13     7     8   am
    14     8     9    2
    15     8    18    1
    16    18    19   ar
    17    19    20   ar
    18    20    24    1
    19    24    25    1
    20    24    26    2
    21    24    27    2
    22    20    21   ar
    23    21    22   ar
    24    22    23   ar
    25    23    28    1
    26    28    29    1
    27    29    30    1
    28    29    31    1
    29    31    32    1
    30    31    33    1
    31    31    34    1
    32     7    10    1
    33    16    17   ar
    34    17    12   ar
    35     5     1   ar
    36    23    18   ar
    37    10     3    1
@<TRIPOS>MOLECULE
*****
 34 37 0 0 0
SMALL
GASTEIGER

@<TRIPOS>ATOM
      1 N           5.7191   -1.9936   27.6652 N.ar    1  UNL1       -0.2287
      2 C           6.7465   -1.5261   26.6773 C.ar    1  UNL1        0.0990
      3 C           6.0309   -1.1086   25.4269 C.ar    1  UNL1        0.0338
      4 C           4.5612   -1.3180   25.6420 C.ar    1  UNL1        0.0981
      5 N           4.3685   -1.8649   27.0253 N.ar    1  UNL1       -0.1680
      6 C           3.8456   -0.9005   24.3916 C.3     1  UNL1        0.1414
      7 N           4.8730   -0.4330   23.4036 N.am    1  UNL1       -0.2660
      8 C           4.5981    0.0740   22.0190 C.2     1  UNL1        0.2525
      9 O           5.7334    0.5089   21.1403 O.2     1  UNL1       -0.2698
     10 C           6.2236   -0.5617   24.0435 C.3     1  UNL1        0.1236
     11 C           7.3250   -5.7873   30.8320 C.3     1  UNL1        0.0311
     12 C           6.7969   -4.3975   30.6333 C.ar    1  UNL1       -0.0204
     13 C           6.5438   -3.5147   31.8193 C.ar    1  UNL1       -0.0042
     14 C           6.0157   -2.1248   31.6206 C.ar    1  UNL1        0.0012
     15 C           5.7409   -1.6179   30.2358 C.ar    1  UNL1        0.0191
     16 C           5.9940   -2.5006   29.0499 C.ar    1  UNL1        0.0825
     17 C           6.5221   -3.8905   29.2485 C.ar    1  UNL1        0.0149
     18 C           3.1879    0.1462   21.5129 C.ar    1  UNL1        0.0888
     19 C           2.3548    1.3635   21.7851 C.ar    1  UNL1        0.0259
     20 C           0.9445    1.4357   21.2790 C.ar    1  UNL1        0.1061
     21 C           0.3674    0.2907   20.5008 C.ar    1  UNL1        0.0215
     22 C           1.2005   -0.9267   20.2285 C.ar    1  UNL1        0.0384
     23 C           2.6107   -0.9989   20.7346 C.ar    1  UNL1        0.1432
     24 S           0.1115    2.6531   21.5513 S.O2    1  UNL1        0.0105
     25 C          -0.7216    3.8704   21.8235 C.3     1  UNL1        0.1816
     26 O          -1.0380    2.0310   20.8153 O.2     1  UNL1       -0.1686
     27 O           1.2610    3.2752   22.2873 O.2     1  UNL1       -0.1686
     28 O           3.4438   -2.2162   20.4624 O.3     1  UNL1       -0.4702
     29 C           3.9580   -2.4789   19.0779 C.3     1  UNL1        0.2599
     30 C           4.1055   -1.3466   18.1052 C.3     1  UNL1        0.0566
     31 C           4.3245   -3.8739   18.6662 C.3     1  UNL1        0.4340
     32 F           4.6910   -5.2689   18.2545 F       1  UNL1       -0.1664
     33 F           5.7201   -3.4169   18.3605 F       1  UNL1       -0.1664
     34 F           2.9289   -4.3309   18.9719 F       1  UNL1       -0.1664
@<TRIPOS>BOND
     1    11    12    1
     2    12    13   ar
     3    13    14   ar
     4    14    15   ar
     5    15    16   ar
     6    16     1    1
     7     1     2   ar
     8     2     3   ar
     9     3     4   ar
    10     4     5   ar
    11     4     6    1
    12     6     7    1
    13     7     8   am
    14     8     9    2
    15     8    18    1
    16    18    19   ar
    17    19    20   ar
    18    20    24    1
    19    24    25    1
    20    24    26    2
    21    24    27    2
    22    20    21   ar
    23    21    22   ar
    24    22    23   ar
    25    23    28    1
    26    28    29    1
    27    29    30    1
    28    29    31    1
    29    31    32    1
    30    31    33    1
    31    31    34    1
    32     7    10    1
    33    16    17   ar
    34    17    12   ar
    35     5     1   ar
    36    23    18   ar
    37    10     3    1
@<TRIPOS>MOLECULE
*****
 34 37 0 0 0
SMALL
GASTEIGER

@<TRIPOS>ATOM
      1 N           5.2788   -2.1724   23.2865 N.ar    1  UNL1       -0.2287
      2 C           6.6509   -1.6071   23.5048 C.ar    1  UNL1        0.0990
      3 C           6.9141   -1.5864   24.9814 C.ar    1  UNL1        0.0338
      4 C           5.7046   -2.1390   25.6756 C.ar    1  UNL1        0.0981
      5 N           4.6940   -2.5011   24.6280 N.ar    1  UNL1       -0.1680
      6 C           5.9678   -2.1184   27.1522 C.3     1  UNL1        0.1414
      7 N           7.3400   -1.5530   27.3706 N.am    1  UNL1       -0.2660
      8 C           8.0097   -1.3518   28.6976 C.2     1  UNL1        0.2525
      9 O           9.3920   -0.7727   28.7600 O.2     1  UNL1       -0.2698
     10 C           7.9248   -1.2243   26.0290 C.3     1  UNL1        0.1236
     11 C           4.5756   -4.9987   18.9833 C.3     1  UNL1        0.0311
     12 C           4.2575   -3.7867   19.8078 C.ar    1  UNL1       -0.0204
     13 C           3.2695   -2.7760   19.3054 C.ar    1  UNL1       -0.0042
     14 C           2.9514   -1.5641   20.1300 C.ar    1  UNL1        0.0012
     15 C           3.6212   -1.3629   21.4570 C.ar    1  UNL1        0.0191
     16 C           4.6091   -2.3736   21.9594 C.ar    1  UNL1        0.0825
     17 C           4.9273   -3.5855   21.1349 C.ar    1  UNL1        0.0149
     18 C           7.2971   -1.7297   29.9623 C.ar    1  UNL1        0.0888
     19 C           6.2100   -0.8487   30.5025 C.ar    1  UNL1        0.0259
     20 C           5.4974   -1.2266   31.7673 C.ar    1  UNL1        0.1061
     21 C           5.8719   -2.4854   32.4917 C.ar    1  UNL1        0.0215
     22 C           6.9591   -3.3665   31.9515 C.ar    1  UNL1        0.0384
     23 C           7.6716   -2.9887   30.6868 C.ar    1  UNL1        0.1432
     24 S           4.4103   -0.3454   32.3075 S.O2    1  UNL1        0.0105
     25 C           3.3231    0.5356   32.8476 C.3     1  UNL1        0.1816
     26 O           3.4134   -1.4463   32.0968 O.2     1  UNL1       -0.1686
     27 O           5.4071    0.7555   32.5182 O.2     1  UNL1       -0.1686
     28 O           8.7588   -3.8697   30.1465 O.3     1  UNL1       -0.4702
     29 C           8.4240   -5.2285   29.6064 C.3     1  UNL1        0.2599
     30 C           9.3308   -6.3905   29.8847 C.3     1  UNL1        0.0566
     31 C           7.1825   -5.4253   28.7880 C.3     1  UNL1        0.4340
     32 F           5.9409   -5.6220   27.9696 F       1  UNL1       -0.1664
     33 F           6.4825   -5.9939   29.9867 F       1  UNL1       -0.1664
     34 F           7.8825   -4.8566   27.5894 F       1  UNL1       -0.1664
@<TRIPOS>BOND
     1    11    12    1
     2    12    13   ar
     3    13    14   ar
     4    14    15   ar
     5    15    16   ar
     6    16     1    1
     7     1     2   ar
     8     2     3   ar
     9     3     4   ar
    10     4     5   ar
    11     4     6    1
    12     6     7    1
    13     7     8   am
    14     8     9    2
    15     8    18    1
    16    18    19   ar
    17    19    20   ar
    18    20    24    1
    19    24    25    1
    20    24    26    2
    21    24    27    2
    22    20    21   ar
    23    21    22   ar
    24    22    23   ar
    25    23    28    1
    26    28    29    1
    27    29    30    1
    28    29    31    1
    29    31    32    1
    30    31    33    1
    31    31    34    1
    32     7    10    1
    33    16    17   ar
    34    17    12   ar
    35     5     1   ar
    36    23    18   ar
    37    10     3    1
@<TRIPOS>MOLECULE
*****
 34 37 0 0 0
SMALL
GASTEIGER

@<TRIPOS>ATOM
      1 N           6.5997   -3.0054   25.2816 N.ar    1  UNL1       -0.2287
      2 C           6.2509   -4.1394   24.3637 C.ar    1  UNL1        0.0990
      3 C           5.5107   -3.5733   23.1882 C.ar    1  UNL1        0.0338
      4 C           5.4021   -2.0896   23.3796 C.ar    1  UNL1        0.0981
      5 N           6.0751   -1.7386   24.6734 N.ar    1  UNL1       -0.1680
      6 C           4.6619   -1.5235   22.2041 C.3     1  UNL1        0.1414
      7 N           4.3131   -2.6575   21.2862 N.am    1  UNL1       -0.2660
      8 C           3.5702   -2.5445   19.9881 C.2     1  UNL1        0.2525
      9 O           3.2928   -3.7730   19.1732 O.2     1  UNL1       -0.2698
     10 C           4.8377   -3.9244   21.8945 C.3     1  UNL1        0.1236
     11 C           6.9912   -4.9383   30.0889 C.3     1  UNL1        0.0311
     12 C           7.5384   -4.0848   28.9834 C.ar    1  UNL1       -0.0204
     13 C           8.8286   -3.3443   29.1761 C.ar    1  UNL1       -0.0042
     14 C           9.3758   -2.4909   28.0706 C.ar    1  UNL1        0.0012
     15 C           8.6328   -2.3779   26.7724 C.ar    1  UNL1        0.0191
     16 C           7.3426   -3.1184   26.5797 C.ar    1  UNL1        0.0825
     17 C           6.7954   -3.9719   27.6852 C.ar    1  UNL1        0.0149
     18 C           3.1046   -1.2030   19.5047 C.ar    1  UNL1        0.0888
     19 C           2.0457   -0.4588   20.2629 C.ar    1  UNL1        0.0259
     20 C           1.5800    0.8828   19.7795 C.ar    1  UNL1        0.1061
     21 C           2.1733    1.4800   18.5380 C.ar    1  UNL1        0.0215
     22 C           3.2322    0.7357   17.7798 C.ar    1  UNL1        0.0384
     23 C           3.6978   -0.6057   18.2632 C.ar    1  UNL1        0.1432
     24 S           0.5211    1.6269   20.5377 S.O2    1  UNL1        0.0105
     25 C          -0.5379    2.3710   21.2960 C.3     1  UNL1        0.1816
     26 O          -0.2951    0.3717   20.6295 O.2     1  UNL1       -0.1686
     27 O           1.3373    2.8821   20.4459 O.2     1  UNL1       -0.1686
     28 O           4.7567   -1.3500   17.5050 O.3     1  UNL1       -0.4702
     29 C           6.2050   -1.0323   17.7321 C.3     1  UNL1        0.2599
     30 C           6.7975    0.2196   17.1561 C.3     1  UNL1        0.0566
     31 C           7.0609   -1.9665   18.5351 C.3     1  UNL1        0.4340
     32 F           7.9167   -2.9005   19.3381 F       1  UNL1       -0.1664
     33 F           6.2056   -3.1208   18.1038 F       1  UNL1       -0.1664
     34 F           7.9162   -0.8120   18.9664 F       1  UNL1       -0.1664
@<TRIPOS>BOND
     1    11    12    1
     2    12    13   ar
     3    13    14   ar
     4    14    15   ar
     5    15    16   ar
     6    16     1    1
     7     1     2   ar
     8     2     3   ar
     9     3     4   ar
    10     4     5   ar
    11     4     6    1
    12     6     7    1
    13     7     8   am
    14     8     9    2
    15     8    18    1
    16    18    19   ar
    17    19    20   ar
    18    20    24    1
    19    24    25    1
    20    24    26    2
    21    24    27    2
    22    20    21   ar
    23    21    22   ar
    24    22    23   ar
    25    23    28    1
    26    28    29    1
    27    29    30    1
    28    29    31    1
    29    31    32    1
    30    31    33    1
    31    31    34    1
    32     7    10    1
    33    16    17   ar
    34    17    12   ar
    35     5     1   ar
    36    23    18   ar
    37    10     3    1
@<TRIPOS>MOLECULE
*****
 34 37 0 0 0
SMALL
GASTEIGER

@<TRIPOS>ATOM
      1 N          -0.8916    2.6415   24.4228 N.ar    1  UNL1       -0.2287
      2 C          -0.1040    3.2200   23.2849 C.ar    1  UNL1        0.0990
      3 C           1.0478    2.3010   23.0040 C.ar    1  UNL1        0.0338
      4 C           0.9720    1.1545   23.9683 C.ar    1  UNL1        0.0981
      5 N          -0.2267    1.3650   24.8452 N.ar    1  UNL1       -0.1680
      6 C           2.1237    0.2355   23.6874 C.3     1  UNL1        0.1414
      7 N           2.9114    0.8140   22.5494 N.am    1  UNL1       -0.2660
      8 C           4.1470    0.2203   21.9407 C.2     1  UNL1        0.2525
      9 O           4.8306    0.9163   20.8011 O.2     1  UNL1       -0.2698
     10 C           2.2464    2.0906   22.1270 C.3     1  UNL1        0.1236
     11 C          -5.8275    4.2012   23.9709 C.3     1  UNL1        0.0311
     12 C          -4.5952    4.0151   24.8056 C.ar    1  UNL1       -0.0204
     13 C          -4.5986    4.4227   26.2492 C.ar    1  UNL1       -0.0042
     14 C          -3.3664    4.2366   27.0840 C.ar    1  UNL1        0.0012
     15 C          -2.1307    3.6429   26.4751 C.ar    1  UNL1        0.0191
     16 C          -2.1273    3.2352   25.0316 C.ar    1  UNL1        0.0825
     17 C          -3.3596    3.4213   24.1968 C.ar    1  UNL1        0.0149
     18 C           4.6992   -1.0694   22.4714 C.ar    1  UNL1        0.0888
     19 C           5.6375   -1.0584   23.6417 C.ar    1  UNL1        0.0259
     20 C           6.1897   -2.3481   24.1725 C.ar    1  UNL1        0.1061
     21 C           5.8037   -3.6488   23.5330 C.ar    1  UNL1        0.0215
     22 C           4.8654   -3.6599   22.3627 C.ar    1  UNL1        0.0384
     23 C           4.3132   -2.3702   21.8319 C.ar    1  UNL1        0.1432
     24 S           7.1279   -2.3370   25.3428 S.O2    1  UNL1        0.0105
     25 C           8.0661   -2.3259   26.5131 C.3     1  UNL1        0.1816
     26 O           6.4904   -3.5901   25.8658 O.2     1  UNL1       -0.1686
     27 O           7.7655   -1.0839   24.8199 O.2     1  UNL1       -0.1686
     28 O           3.3750   -2.3813   20.6616 O.3     1  UNL1       -0.4702
     29 C           3.9036   -2.6230   19.2788 C.3     1  UNL1        0.2599
     30 C           4.0160   -1.4842   18.3091 C.3     1  UNL1        0.0566
     31 C           4.3198   -4.0037   18.8657 C.3     1  UNL1        0.4340
     32 F           4.7359   -5.3843   18.4527 F       1  UNL1       -0.1664
     33 F           5.7518   -3.5593   18.8235 F       1  UNL1       -0.1664
     34 F           2.8877   -4.4480   18.9080 F       1  UNL1       -0.1664
@<TRIPOS>BOND
     1    11    12    1
     2    12    13   ar
     3    13    14   ar
     4    14    15   ar
     5    15    16   ar
     6    16     1    1
     7     1     2   ar
     8     2     3   ar
     9     3     4   ar
    10     4     5   ar
    11     4     6    1
    12     6     7    1
    13     7     8   am
    14     8     9    2
    15     8    18    1
    16    18    19   ar
    17    19    20   ar
    18    20    24    1
    19    24    25    1
    20    24    26    2
    21    24    27    2
    22    20    21   ar
    23    21    22   ar
    24    22    23   ar
    25    23    28    1
    26    28    29    1
    27    29    30    1
    28    29    31    1
    29    31    32    1
    30    31    33    1
    31    31    34    1
    32     7    10    1
    33    16    17   ar
    34    17    12   ar
    35     5     1   ar
    36    23    18   ar
    37    10     3    1
@<TRIPOS>MOLECULE
*****
 34 37 0 0 0
SMALL
GASTEIGER

@<TRIPOS>ATOM
      1 N           3.9840   -0.1064   28.8154 N.ar    1  UNL1       -0.2287
      2 C           5.2257   -0.1363   27.9745 C.ar    1  UNL1        0.0990
      3 C           4.8122   -0.0639   26.5345 C.ar    1  UNL1        0.0338
      4 C           3.3148    0.0107   26.4854 C.ar    1  UNL1        0.0981
      5 N           2.8030   -0.0155   27.8951 N.ar    1  UNL1       -0.1680
      6 C           2.9012    0.0831   25.0454 C.3     1  UNL1        0.1414
      7 N           4.1430    0.0532   24.2044 N.am    1  UNL1       -0.2660
      8 C           4.1947    0.1051   22.7063 C.2     1  UNL1        0.2525
      9 O           5.5173    0.0664   21.9996 O.2     1  UNL1       -0.2698
     10 C           5.3240   -0.0377   25.1248 C.3     1  UNL1        0.1236
     11 C           2.2874    1.8290   33.3293 C.3     1  UNL1        0.0311
     12 C           3.0840    0.8094   32.5706 C.ar    1  UNL1       -0.0204
     13 C           3.8289   -0.2621   33.3101 C.ar    1  UNL1       -0.0042
     14 C           4.6256   -1.2818   32.5514 C.ar    1  UNL1        0.0012
     15 C           4.6772   -1.2298   31.0531 C.ar    1  UNL1        0.0191
     16 C           3.9323   -0.1583   30.3137 C.ar    1  UNL1        0.0825
     17 C           3.1357    0.8613   31.0724 C.ar    1  UNL1        0.0149
     18 C           2.9238    0.1957   21.9146 C.ar    1  UNL1        0.0888
     19 C           2.0298    1.3907   22.0656 C.ar    1  UNL1        0.0259
     20 C           0.7588    1.4813   21.2739 C.ar    1  UNL1        0.1061
     21 C           0.3820    0.3770   20.3314 C.ar    1  UNL1        0.0215
     22 C           1.2760   -0.8180   20.1804 C.ar    1  UNL1        0.0384
     23 C           2.5469   -0.9086   20.9721 C.ar    1  UNL1        0.1432
     24 S          -0.1351    2.6763   21.4250 S.O2    1  UNL1        0.0105
     25 C          -1.0291    3.8712   21.5759 C.3     1  UNL1        0.1816
     26 O          -1.2033    1.9766   20.6379 O.2     1  UNL1       -0.1686
     27 O           0.9330    3.3760   22.2120 O.2     1  UNL1       -0.1686
     28 O           3.4409   -2.1036   20.8211 O.3     1  UNL1       -0.4702
     29 C           4.1195   -2.3718   19.5105 C.3     1  UNL1        0.2599
     30 C           4.6027   -1.2285   18.6683 C.3     1  UNL1        0.0566
     31 C           4.3148   -3.7834   19.0422 C.3     1  UNL1        0.4340
     32 F           4.5100   -5.1949   18.5738 F       1  UNL1       -0.1664
     33 F           5.7938   -3.5493   18.9535 F       1  UNL1       -0.1664
     34 F           2.8357   -4.0174   19.1308 F       1  UNL1       -0.1664
@<TRIPOS>BOND
     1    11    12    1
     2    12    13   ar
     3    13    14   ar
     4    14    15   ar
     5    15    16   ar
     6    16     1    1
     7     1     2   ar
     8     2     3   ar
     9     3     4   ar
    10     4     5   ar
    11     4     6    1
    12     6     7    1
    13     7     8   am
    14     8     9    2
    15     8    18    1
    16    18    19   ar
    17    19    20   ar
    18    20    24    1
    19    24    25    1
    20    24    26    2
    21    24    27    2
    22    20    21   ar
    23    21    22   ar
    24    22    23   ar
    25    23    28    1
    26    28    29    1
    27    29    30    1
    28    29    31    1
    29    31    32    1
    30    31    33    1
    31    31    34    1
    32     7    10    1
    33    16    17   ar
    34    17    12   ar
    35     5     1   ar
    36    23    18   ar
    37    10     3    1
@<TRIPOS>MOLECULE
*****
 34 37 0 0 0
SMALL
GASTEIGER

@<TRIPOS>ATOM
      1 N           2.5993    0.2945   19.1200 N.ar    1  UNL1       -0.2287
      2 C           2.9954    1.7372   19.0126 C.ar    1  UNL1        0.0990
      3 C           1.7838    2.5732   19.3010 C.ar    1  UNL1        0.0338
      4 C           0.6389    1.6471   19.5866 C.ar    1  UNL1        0.0981
      5 N           1.1429    0.2387   19.4748 N.ar    1  UNL1       -0.1680
      6 C          -0.5727    2.4830   19.8750 C.3     1  UNL1        0.1414
      7 N          -0.1767    3.9259   19.7676 N.am    1  UNL1       -0.2660
      8 C          -1.0786    5.1057   19.9779 C.2     1  UNL1        0.2525
      9 O          -0.5382    6.4978   19.8358 O.2     1  UNL1       -0.2698
     10 C           1.2797    3.9815   19.4128 C.3     1  UNL1        0.1236
     11 C           3.5367   -4.7944   19.5944 C.3     1  UNL1        0.0311
     12 C           3.9700   -3.4299   19.1468 C.ar    1  UNL1       -0.0204
     13 C           5.3053   -3.2453   18.4889 C.ar    1  UNL1       -0.0042
     14 C           5.7386   -1.8808   18.0413 C.ar    1  UNL1        0.0012
     15 C           4.8366   -0.7009   18.2517 C.ar    1  UNL1        0.0191
     16 C           3.5013   -0.8855   18.9097 C.ar    1  UNL1        0.0825
     17 C           3.0679   -2.2500   19.3572 C.ar    1  UNL1        0.0149
     18 C          -2.5211    4.8936   20.3305 C.ar    1  UNL1        0.0888
     19 C          -2.8957    4.4184   21.7030 C.ar    1  UNL1        0.0259
     20 C          -4.3382    4.2063   22.0556 C.ar    1  UNL1        0.1061
     21 C          -5.4061    4.4695   21.0357 C.ar    1  UNL1        0.0215
     22 C          -5.0315    4.9448   19.6631 C.ar    1  UNL1        0.0384
     23 C          -3.5891    5.1568   19.3105 C.ar    1  UNL1        0.1432
     24 S          -4.7126    3.7311   23.4282 S.O2    1  UNL1        0.0105
     25 C          -5.0872    3.2558   24.8007 C.3     1  UNL1        0.1816
     26 O          -6.1646    3.8957   23.0890 O.2     1  UNL1       -0.1686
     27 O          -3.2608    3.5664   23.7673 O.2     1  UNL1       -0.1686
     28 O          -3.2145    5.6321   17.9380 O.3     1  UNL1       -0.4702
     29 C          -2.6748    4.6616   16.9296 C.3     1  UNL1        0.2599
     30 C          -3.5532    3.5695   16.3950 C.3     1  UNL1        0.0566
     31 C          -1.2569    4.7832   16.4558 C.3     1  UNL1        0.4340
     32 F           0.1611    4.9047   15.9820 F       1  UNL1       -0.1664
     33 F          -1.4791    6.2377   16.1640 F       1  UNL1       -0.1664
     34 F          -1.0346    3.3287   16.7477 F       1  UNL1       -0.1664
@<TRIPOS>BOND
     1    11    12    1
     2    12    13   ar
     3    13    14   ar
     4    14    15   ar
     5    15    16   ar
     6    16     1    1
     7     1     2   ar
     8     2     3   ar
     9     3     4   ar
    10     4     5   ar
    11     4     6    1
    12     6     7    1
    13     7     8   am
    14     8     9    2
    15     8    18    1
    16    18    19   ar
    17    19    20   ar
    18    20    24    1
    19    24    25    1
    20    24    26    2
    21    24    27    2
    22    20    21   ar
    23    21    22   ar
    24    22    23   ar
    25    23    28    1
    26    28    29    1
    27    29    30    1
    28    29    31    1
    29    31    32    1
    30    31    33    1
    31    31    34    1
    32     7    10    1
    33    16    17   ar
    34    17    12   ar
    35     5     1   ar
    36    23    18   ar
    37    10     3    1
@<TRIPOS>MOLECULE
*****
 34 37 0 0 0
SMALL
GASTEIGER

@<TRIPOS>ATOM
      1 N           1.3246    1.6682   29.7637 N.ar    1  UNL1       -0.2287
      2 C           2.1754    0.4473   29.9519 C.ar    1  UNL1        0.0990
      3 C           2.7325    0.4807   31.3442 C.ar    1  UNL1        0.0338
      4 C           2.2260    1.7223   32.0165 C.ar    1  UNL1        0.0981
      5 N           1.3558    2.4562   31.0396 N.ar    1  UNL1       -0.1680
      6 C           2.7830    1.7557   33.4088 C.3     1  UNL1        0.1414
      7 N           3.6339    0.5347   33.5970 N.am    1  UNL1       -0.2660
      8 C           4.3842    0.1665   34.8425 C.2     1  UNL1        0.2525
      9 O           5.1981   -1.0929   34.8831 O.2     1  UNL1       -0.2698
     10 C           3.6027   -0.2532   32.3210 C.3     1  UNL1        0.1236
     11 C          -1.0814    5.2331   26.8478 C.3     1  UNL1        0.0311
     12 C          -0.6287    3.8189   27.0602 C.ar    1  UNL1       -0.0204
     13 C          -0.9265    2.7730   26.0270 C.ar    1  UNL1       -0.0042
     14 C          -0.4739    1.3588   26.2394 C.ar    1  UNL1        0.0012
     15 C           0.2765    0.9906   27.4850 C.ar    1  UNL1        0.0191
     16 C           0.5742    2.0365   28.5181 C.ar    1  UNL1        0.0825
     17 C           0.1216    3.4507   28.3057 C.ar    1  UNL1        0.0149
     18 C           4.3207    1.0575   36.0475 C.ar    1  UNL1        0.0888
     19 C           3.0722    1.1088   36.8773 C.ar    1  UNL1        0.0259
     20 C           3.0087    1.9999   38.0824 C.ar    1  UNL1        0.1061
     21 C           4.1936    2.8396   38.4575 C.ar    1  UNL1        0.0215
     22 C           5.4421    2.7884   37.6277 C.ar    1  UNL1        0.0384
     23 C           5.5056    1.8973   36.4227 C.ar    1  UNL1        0.1432
     24 S           1.7602    2.0511   38.9122 S.O2    1  UNL1        0.0105
     25 C           0.5116    2.1024   39.7419 C.3     1  UNL1        0.1816
     26 O           1.2181    3.1360   38.0294 O.2     1  UNL1       -0.1686
     27 O           2.3022    0.9663   39.7950 O.2     1  UNL1       -0.1686
     28 O           6.7541    1.8460   35.5928 O.3     1  UNL1       -0.4702
     29 C           7.8414    0.8704   35.9332 C.3     1  UNL1        0.2599
     30 C           8.5113    0.0843   34.8454 C.3     1  UNL1        0.0566
     31 C           8.2589    0.6808   37.3614 C.3     1  UNL1        0.4340
     32 F           8.6763    0.4912   38.7896 F       1  UNL1       -0.1664
     33 F           8.8121    2.0749   37.3848 F       1  UNL1       -0.1664
     34 F           7.7056   -0.7133   37.3381 F       1  UNL1       -0.1664
@<TRIPOS>BOND
     1    11    12    1
     2    12    13   ar
     3    13    14   ar
     4    14    15   ar
     5    15    16   ar
     6    16     1    1
     7     1     2   ar
     8     2     3   ar
     9     3     4   ar
    10     4     5   ar
    11     4     6    1
    12     6     7    1
    13     7     8   am
    14     8     9    2
    15     8    18    1
    16    18    19   ar
    17    19    20   ar
    18    20    24    1
    19    24    25    1
    20    24    26    2
    21    24    27    2
    22    20    21   ar
    23    21    22   ar
    24    22    23   ar
    25    23    28    1
    26    28    29    1
    27    29    30    1
    28    29    31    1
    29    31    32    1
    30    31    33    1
    31    31    34    1
    32     7    10    1
    33    16    17   ar
    34    17    12   ar
    35     5     1   ar
    36    23    18   ar
    37    10     3    1
