@<TRIPOS>MOLECULE
*****
 28 30 0 0 0
SMALL
GASTEIGER

@<TRIPOS>ATOM
      1 C          -5.8066  -14.6357   25.4589 C.3     1  UNL1        0.0307
      2 C          -6.9339  -15.5623   25.8062 C.ar    1  UNL1       -0.0260
      3 C          -7.3939  -15.6836   27.2287 C.ar    1  UNL1       -0.0046
      4 C          -8.5212  -16.6102   27.5760 C.ar    1  UNL1       -0.0006
      5 C          -9.1885  -17.4155   26.5008 C.ar    1  UNL1       -0.0030
      6 C          -8.7285  -17.2941   25.0782 C.ar    1  UNL1       -0.0085
      7 C          -7.6012  -16.3675   24.7309 C.ar    1  UNL1       -0.0268
      8 C          -7.1413  -16.2462   23.3083 C.3     1  UNL1        0.0473
      9 C          -7.8086  -17.0514   22.2330 C.3     1  UNL1        0.0983
     10 N          -8.9359  -17.9780   22.5803 N.am    1  UNL1       -0.2760
     11 C          -9.6033  -18.7833   21.5050 C.2     1  UNL1        0.2420
     12 O         -10.7306  -19.7099   21.8523 O.2     1  UNL1       -0.2734
     13 C          -9.3959  -18.0994   24.0029 C.3     1  UNL1        0.0975
     14 C         -10.5232  -19.0260   24.3502 C.3     1  UNL1        0.0224
     15 C         -10.2346  -20.4462   24.7368 C.3     1  UNL1        0.0021
     16 C         -11.9391  -18.5322   24.3108 C.3     1  UNL1        0.0021
     17 C          -9.1433  -18.6619   20.0825 C.3     1  UNL1        0.1552
     18 N          -7.7440  -19.0539   19.7107 N.3     1  UNL1       -0.2879
     19 H          -7.1711  -18.2142   19.7937 H       1  UNL1        0.1238
     20 C          -7.0400  -20.1358   20.4750 C.3     1  UNL1        0.0961
     21 C          -5.7691  -19.8291   21.2104 C.3     1  UNL1        0.1027
     22 O          -6.5974  -20.3721   22.3370 O.3     1  UNL1       -0.3854
     23 C          -5.3823  -19.3927   19.8285 C.3     1  UNL1        0.0283
     24 C          -4.0122  -18.8381   19.5731 C.3     1  UNL1        0.0024
     25 C          -3.0289  -18.7200   20.6998 C.3     1  UNL1        0.0002
     26 C          -3.4158  -19.1565   22.0817 C.3     1  UNL1        0.0024
     27 C          -4.7859  -19.7111   22.3371 C.3     1  UNL1        0.0283
     28 H          -7.4737  -20.6206   22.0035 H       1  UNL1        0.2103
@<TRIPOS>BOND
     1     1     2    1
     2     2     3   ar
     3     3     4   ar
     4     4     5   ar
     5     5     6   ar
     6     6     7   ar
     7     7     8    1
     8     8     9    1
     9     9    10    1
    10    10    11   am
    11    11    12    2
    12    11    17    1
    13    17    18    1
    14    18    20    1
    15    20    21    1
    16    21    22    1
    17    21    23    1
    18    23    24    1
    19    24    25    1
    20    25    26    1
    21    26    27    1
    22    10    13    1
    23    13    14    1
    24    14    15    1
    25    14    16    1
    26     7     2   ar
    27    27    21    1
    28    13     6    1
    29    18    19    1
    30    22    28    1
@<TRIPOS>MOLECULE
*****
 28 30 0 0 0
SMALL
GASTEIGER

@<TRIPOS>ATOM
      1 C         -11.3021  -18.5022   21.2384 C.3     1  UNL1        0.0307
      2 C         -10.1253  -19.0687   20.5005 C.ar    1  UNL1       -0.0260
      3 C         -10.3390  -19.8735   19.2529 C.ar    1  UNL1       -0.0046
      4 C          -9.1623  -20.4400   18.5151 C.ar    1  UNL1       -0.0006
      5 C          -7.7719  -20.2016   19.0248 C.ar    1  UNL1       -0.0030
      6 C          -7.5582  -19.3967   20.2724 C.ar    1  UNL1       -0.0085
      7 C          -8.7349  -18.8303   21.0103 C.ar    1  UNL1       -0.0268
      8 C          -8.5212  -18.0254   22.2579 C.3     1  UNL1        0.0473
      9 C          -7.1308  -17.7870   22.7676 C.3     1  UNL1        0.0983
     10 N          -5.9541  -18.3534   22.0298 N.am    1  UNL1       -0.2760
     11 C          -4.5636  -18.1150   22.5396 C.2     1  UNL1        0.2420
     12 O          -3.3868  -18.6814   21.8018 O.2     1  UNL1       -0.2734
     13 C          -6.1677  -19.1583   20.7822 C.3     1  UNL1        0.0975
     14 C          -4.9910  -19.7248   20.0444 C.3     1  UNL1        0.0224
     15 C          -4.1686  -18.8418   19.1533 C.3     1  UNL1        0.0021
     16 C          -4.6366  -21.1743   20.1976 C.3     1  UNL1        0.0021
     17 C          -4.3499  -17.3101   23.7872 C.3     1  UNL1        0.1552
     18 N          -4.4369  -15.8135   23.7382 N.3     1  UNL1       -0.2879
     19 H          -4.9843  -15.5773   22.9106 H       1  UNL1        0.1238
     20 C          -5.0401  -15.0593   24.8861 C.3     1  UNL1        0.0961
     21 C          -6.5118  -15.1586   25.1581 C.3     1  UNL1        0.1027
     22 O          -6.5415  -14.6408   23.7506 O.3     1  UNL1       -0.3854
     23 C          -5.9710  -15.6419   26.4711 C.3     1  UNL1        0.0283
     24 C          -6.9122  -16.0447   27.5673 C.3     1  UNL1        0.0024
     25 C          -8.3943  -15.9642   27.3506 C.3     1  UNL1        0.0002
     26 C          -8.9351  -15.4809   26.0376 C.3     1  UNL1        0.0024
     27 C          -7.9939  -15.0781   24.9414 C.3     1  UNL1        0.0283
     28 H          -5.6335  -14.5234   23.4301 H       1  UNL1        0.2103
@<TRIPOS>BOND
     1     1     2    1
     2     2     3   ar
     3     3     4   ar
     4     4     5   ar
     5     5     6   ar
     6     6     7   ar
     7     7     8    1
     8     8     9    1
     9     9    10    1
    10    10    11   am
    11    11    12    2
    12    11    17    1
    13    17    18    1
    14    18    20    1
    15    20    21    1
    16    21    22    1
    17    21    23    1
    18    23    24    1
    19    24    25    1
    20    25    26    1
    21    26    27    1
    22    10    13    1
    23    13    14    1
    24    14    15    1
    25    14    16    1
    26     7     2   ar
    27    27    21    1
    28    13     6    1
    29    18    19    1
    30    22    28    1
@<TRIPOS>MOLECULE
*****
 28 30 0 0 0
SMALL
GASTEIGER

@<TRIPOS>ATOM
      1 C          -8.7261  -15.1761   25.3501 C.3     1  UNL1        0.0307
      2 C          -7.3538  -15.6600   24.9858 C.ar    1  UNL1       -0.0260
      3 C          -6.1610  -15.1871   25.7625 C.ar    1  UNL1       -0.0046
      4 C          -4.7887  -15.6711   25.3982 C.ar    1  UNL1       -0.0006
      5 C          -4.6093  -16.6280   24.2572 C.ar    1  UNL1       -0.0030
      6 C          -5.8022  -17.1009   23.4804 C.ar    1  UNL1       -0.0085
      7 C          -7.1744  -16.6169   23.8447 C.ar    1  UNL1       -0.0268
      8 C          -8.3673  -17.0899   23.0678 C.3     1  UNL1        0.0473
      9 C          -8.1879  -18.0468   21.9267 C.3     1  UNL1        0.0983
     10 N          -6.8156  -18.5308   21.5624 N.am    1  UNL1       -0.2760
     11 C          -6.6363  -19.4877   20.4213 C.2     1  UNL1        0.2420
     12 O          -5.2640  -19.9717   20.0570 O.2     1  UNL1       -0.2734
     13 C          -5.6228  -18.0579   22.3392 C.3     1  UNL1        0.0975
     14 C          -4.2506  -18.5418   21.9749 C.3     1  UNL1        0.0224
     15 C          -3.7134  -19.8026   22.5848 C.3     1  UNL1        0.0021
     16 C          -3.4154  -17.7650   21.0006 C.3     1  UNL1        0.0021
     17 C          -7.8291  -19.9607   19.6445 C.3     1  UNL1        0.1552
     18 N          -8.9361  -19.0041   19.3139 N.3     1  UNL1       -0.2879
     19 H          -8.8364  -18.7681   18.3266 H       1  UNL1        0.1238
     20 C         -10.3653  -19.4108   19.5197 C.3     1  UNL1        0.0961
     21 C         -11.1511  -18.8377   20.6616 C.3     1  UNL1        0.1027
     22 O         -10.9720  -20.2450   21.1490 O.3     1  UNL1       -0.3854
     23 C         -11.0573  -17.6295   19.7777 C.3     1  UNL1        0.0283
     24 C         -11.6872  -16.3369   20.2049 C.3     1  UNL1        0.0024
     25 C         -12.4108  -16.2526   21.5161 C.3     1  UNL1        0.0002
     26 C         -12.5047  -17.4608   22.4000 C.3     1  UNL1        0.0024
     27 C         -11.8748  -18.7534   21.9728 C.3     1  UNL1        0.0283
     28 H         -10.4661  -20.7519   20.4947 H       1  UNL1        0.2103
@<TRIPOS>BOND
     1     1     2    1
     2     2     3   ar
     3     3     4   ar
     4     4     5   ar
     5     5     6   ar
     6     6     7   ar
     7     7     8    1
     8     8     9    1
     9     9    10    1
    10    10    11   am
    11    11    12    2
    12    11    17    1
    13    17    18    1
    14    18    20    1
    15    20    21    1
    16    21    22    1
    17    21    23    1
    18    23    24    1
    19    24    25    1
    20    25    26    1
    21    26    27    1
    22    10    13    1
    23    13    14    1
    24    14    15    1
    25    14    16    1
    26     7     2   ar
    27    27    21    1
    28    13     6    1
    29    18    19    1
    30    22    28    1
@<TRIPOS>MOLECULE
*****
 28 30 0 0 0
SMALL
GASTEIGER

@<TRIPOS>ATOM
      1 C         -16.3489   -9.1070   19.9131 C.3     1  UNL1        0.0307
      2 C         -17.1662   -7.8655   19.7116 C.ar    1  UNL1       -0.0260
      3 C         -18.6641   -7.9433   19.7244 C.ar    1  UNL1       -0.0046
      4 C         -19.4814   -6.7017   19.5229 C.ar    1  UNL1       -0.0006
      5 C         -18.8008   -5.3824   19.3085 C.ar    1  UNL1       -0.0030
      6 C         -17.3029   -5.3045   19.2957 C.ar    1  UNL1       -0.0085
      7 C         -16.4856   -6.5461   19.4972 C.ar    1  UNL1       -0.0268
      8 C         -14.9876   -6.4682   19.4844 C.3     1  UNL1        0.0473
      9 C         -14.3070   -5.1488   19.2700 C.3     1  UNL1        0.0983
     10 N         -15.1243   -3.9073   19.0685 N.am    1  UNL1       -0.2760
     11 C         -14.4437   -2.5879   18.8541 C.2     1  UNL1        0.2420
     12 O         -15.2609   -1.3463   18.6525 O.2     1  UNL1       -0.2734
     13 C         -16.6222   -3.9851   19.0813 C.3     1  UNL1        0.0975
     14 C         -17.4395   -2.7436   18.8797 C.3     1  UNL1        0.0224
     15 C         -17.8633   -1.9244   20.0626 C.3     1  UNL1        0.0021
     16 C         -17.8330   -2.3213   17.4952 C.3     1  UNL1        0.0021
     17 C         -12.9458   -2.5100   18.8413 C.3     1  UNL1        0.1552
     18 N         -12.1786   -3.0165   17.6560 N.3     1  UNL1       -0.2879
     19 H         -12.2897   -2.3240   16.9155 H       1  UNL1        0.1238
     20 C         -10.7087   -3.2907   17.7754 C.3     1  UNL1        0.0961
     21 C         -10.2327   -4.5973   18.3378 C.3     1  UNL1        0.1027
     22 O          -9.5678   -3.6468   19.2888 O.3     1  UNL1       -0.3854
     23 C         -11.0628   -5.0940   17.1914 C.3     1  UNL1        0.0283
     24 C         -11.1861   -6.5672   16.9377 C.3     1  UNL1        0.0024
     25 C         -10.4792   -7.5437   17.8303 C.3     1  UNL1        0.0002
     26 C          -9.6491   -7.0470   18.9766 C.3     1  UNL1        0.0024
     27 C          -9.5258   -5.5738   19.2304 C.3     1  UNL1        0.0283
     28 H          -9.7907   -2.7351   19.0435 H       1  UNL1        0.2103
@<TRIPOS>BOND
     1     1     2    1
     2     2     3   ar
     3     3     4   ar
     4     4     5   ar
     5     5     6   ar
     6     6     7   ar
     7     7     8    1
     8     8     9    1
     9     9    10    1
    10    10    11   am
    11    11    12    2
    12    11    17    1
    13    17    18    1
    14    18    20    1
    15    20    21    1
    16    21    22    1
    17    21    23    1
    18    23    24    1
    19    24    25    1
    20    25    26    1
    21    26    27    1
    22    10    13    1
    23    13    14    1
    24    14    15    1
    25    14    16    1
    26     7     2   ar
    27    27    21    1
    28    13     6    1
    29    18    19    1
    30    22    28    1
@<TRIPOS>MOLECULE
*****
 28 30 0 0 0
SMALL
GASTEIGER

@<TRIPOS>ATOM
      1 C         -15.0421    0.0728   18.7655 C.3     1  UNL1        0.0307
      2 C         -13.7105   -0.5461   18.4593 C.ar    1  UNL1       -0.0260
      3 C         -12.5456    0.3245   18.0917 C.ar    1  UNL1       -0.0046
      4 C         -11.2140   -0.2944   17.7855 C.ar    1  UNL1       -0.0006
      5 C         -11.0472   -1.7838   17.8470 C.ar    1  UNL1       -0.0030
      6 C         -12.2120   -2.6543   18.2147 C.ar    1  UNL1       -0.0085
      7 C         -13.5437   -2.0355   18.5209 C.ar    1  UNL1       -0.0268
      8 C         -14.7086   -2.9061   18.8885 C.3     1  UNL1        0.0473
      9 C         -14.5418   -4.3955   18.9501 C.3     1  UNL1        0.0983
     10 N         -13.2101   -5.0143   18.6439 N.am    1  UNL1       -0.2760
     11 C         -13.0434   -6.5038   18.7054 C.2     1  UNL1        0.2420
     12 O         -11.7117   -7.1227   18.3993 O.2     1  UNL1       -0.2734
     13 C         -12.0453   -4.1438   18.2762 C.3     1  UNL1        0.0975
     14 C         -10.7136   -4.7627   17.9701 C.3     1  UNL1        0.0224
     15 C         -10.3680   -5.1391   16.5598 C.3     1  UNL1        0.0021
     16 C          -9.7276   -5.0051   19.0742 C.3     1  UNL1        0.0021
     17 C         -14.2082   -7.3744   19.0731 C.3     1  UNL1        0.1552
     18 N         -14.1559   -8.8494   18.8060 N.3     1  UNL1       -0.2879
     19 H         -13.6855   -9.2766   19.6039 H       1  UNL1        0.1238
     20 C         -15.4258   -9.6180   18.5895 C.3     1  UNL1        0.0961
     21 C         -16.7178   -9.1059   19.1537 C.3     1  UNL1        0.1027
     22 O         -16.0234   -9.5118   20.4198 O.3     1  UNL1       -0.3854
     23 C         -16.9634   -8.8779   17.6916 C.3     1  UNL1        0.0283
     24 C         -18.2600   -8.2788   17.2334 C.3     1  UNL1        0.0024
     25 C         -19.3109   -7.9077   18.2374 C.3     1  UNL1        0.0002
     26 C         -19.0653   -8.1356   19.6994 C.3     1  UNL1        0.0024
     27 C         -17.7687   -8.7348   20.1576 C.3     1  UNL1        0.0283
     28 H         -15.1485   -9.8726   20.2074 H       1  UNL1        0.2103
@<TRIPOS>BOND
     1     1     2    1
     2     2     3   ar
     3     3     4   ar
     4     4     5   ar
     5     5     6   ar
     6     6     7   ar
     7     7     8    1
     8     8     9    1
     9     9    10    1
    10    10    11   am
    11    11    12    2
    12    11    17    1
    13    17    18    1
    14    18    20    1
    15    20    21    1
    16    21    22    1
    17    21    23    1
    18    23    24    1
    19    24    25    1
    20    25    26    1
    21    26    27    1
    22    10    13    1
    23    13    14    1
    24    14    15    1
    25    14    16    1
    26     7     2   ar
    27    27    21    1
    28    13     6    1
    29    18    19    1
    30    22    28    1
@<TRIPOS>MOLECULE
*****
 28 30 0 0 0
SMALL
GASTEIGER

@<TRIPOS>ATOM
      1 C           1.7124    1.1835   23.7721 C.3     1  UNL1        0.0307
      2 C           1.7399    0.4432   22.4678 C.ar    1  UNL1       -0.0260
      3 C           0.6817    0.7013   21.4365 C.ar    1  UNL1       -0.0046
      4 C           0.7092   -0.0390   20.1322 C.ar    1  UNL1       -0.0006
      5 C           1.7949   -1.0373   19.8592 C.ar    1  UNL1       -0.0030
      6 C           2.8531   -1.2953   20.8905 C.ar    1  UNL1       -0.0085
      7 C           2.8256   -0.5551   22.1948 C.ar    1  UNL1       -0.0268
      8 C           3.8839   -0.8132   23.2261 C.3     1  UNL1        0.0473
      9 C           4.9696   -1.8115   22.9531 C.3     1  UNL1        0.0983
     10 N           4.9971   -2.5517   21.6487 N.am    1  UNL1       -0.2760
     11 C           6.0829   -3.5501   21.3757 C.2     1  UNL1        0.2420
     12 O           6.1104   -4.2903   20.0714 O.2     1  UNL1       -0.2734
     13 C           3.9389   -2.2937   20.6174 C.3     1  UNL1        0.0975
     14 C           3.9664   -3.0339   19.3131 C.3     1  UNL1        0.0224
     15 C           3.2530   -4.3467   19.1806 C.3     1  UNL1        0.0021
     16 C           4.7074   -2.4613   18.1412 C.3     1  UNL1        0.0021
     17 C           7.1411   -3.8081   22.4070 C.3     1  UNL1        0.1552
     18 N           6.9686   -4.9227   23.3958 N.3     1  UNL1       -0.2879
     19 H           7.7176   -5.5921   23.2185 H       1  UNL1        0.1238
     20 C           6.9887   -4.6302   24.8669 C.3     1  UNL1        0.0961
     21 C           7.2480   -5.7349   25.8479 C.3     1  UNL1        0.1027
     22 O           6.2696   -4.9130   26.6337 O.3     1  UNL1       -0.3854
     23 C           8.1362   -6.1730   24.7214 C.3     1  UNL1        0.0283
     24 C           8.9440   -7.4305   24.8487 C.3     1  UNL1        0.0024
     25 C           8.8635   -8.2498   26.1026 C.3     1  UNL1        0.0002
     26 C           7.9753   -7.8117   27.2291 C.3     1  UNL1        0.0024
     27 C           7.1675   -6.5542   27.1018 C.3     1  UNL1        0.0283
     28 H           6.0034   -4.1403   26.1113 H       1  UNL1        0.2103
@<TRIPOS>BOND
     1     1     2    1
     2     2     3   ar
     3     3     4   ar
     4     4     5   ar
     5     5     6   ar
     6     6     7   ar
     7     7     8    1
     8     8     9    1
     9     9    10    1
    10    10    11   am
    11    11    12    2
    12    11    17    1
    13    17    18    1
    14    18    20    1
    15    20    21    1
    16    21    22    1
    17    21    23    1
    18    23    24    1
    19    24    25    1
    20    25    26    1
    21    26    27    1
    22    10    13    1
    23    13    14    1
    24    14    15    1
    25    14    16    1
    26     7     2   ar
    27    27    21    1
    28    13     6    1
    29    18    19    1
    30    22    28    1
@<TRIPOS>MOLECULE
*****
 28 30 0 0 0
SMALL
GASTEIGER

@<TRIPOS>ATOM
      1 C           1.0527    1.3259   23.2129 C.3     1  UNL1        0.0307
      2 C           1.3502    0.5900   21.9402 C.ar    1  UNL1       -0.0260
      3 C           0.5833    0.9107   20.6916 C.ar    1  UNL1       -0.0046
      4 C           0.8808    0.1748   19.4188 C.ar    1  UNL1       -0.0006
      5 C           1.9451   -0.8818   19.3946 C.ar    1  UNL1       -0.0030
      6 C           2.7120   -1.2026   20.6432 C.ar    1  UNL1       -0.0085
      7 C           2.4146   -0.4666   21.9160 C.ar    1  UNL1       -0.0268
      8 C           3.1815   -0.7874   23.1646 C.3     1  UNL1        0.0473
      9 C           4.2459   -1.8440   23.1404 C.3     1  UNL1        0.0983
     10 N           4.5433   -2.5800   21.8676 N.am    1  UNL1       -0.2760
     11 C           5.6078   -3.6366   21.8435 C.2     1  UNL1        0.2420
     12 O           5.9052   -4.3726   20.5707 O.2     1  UNL1       -0.2734
     13 C           3.7765   -2.2592   20.6191 C.3     1  UNL1        0.0975
     14 C           4.0739   -2.9952   19.3463 C.3     1  UNL1        0.0224
     15 C           5.0875   -2.4502   18.3842 C.3     1  UNL1        0.0021
     16 C           3.3578   -4.2761   19.0357 C.3     1  UNL1        0.0021
     17 C           6.3746   -3.9573   23.0921 C.3     1  UNL1        0.1552
     18 N           7.2895   -5.1455   23.1259 N.3     1  UNL1       -0.2879
     19 H           7.8367   -5.1204   22.2655 H       1  UNL1        0.1238
     20 C           8.2642   -5.3098   24.2543 C.3     1  UNL1        0.0961
     21 C           8.1791   -6.5098   25.1501 C.3     1  UNL1        0.1027
     22 O           8.0457   -7.1739   23.8117 O.3     1  UNL1       -0.3854
     23 C           8.3421   -5.4290   26.1773 C.3     1  UNL1        0.0283
     24 C           8.3737   -5.7788   27.6356 C.3     1  UNL1        0.0024
     25 C           8.2422   -7.2095   28.0667 C.3     1  UNL1        0.0002
     26 C           8.0793   -8.2904   27.0395 C.3     1  UNL1        0.0024
     27 C           8.0477   -7.9406   25.5812 C.3     1  UNL1        0.0283
     28 H           8.0839   -6.5027   23.1125 H       1  UNL1        0.2103
@<TRIPOS>BOND
     1     1     2    1
     2     2     3   ar
     3     3     4   ar
     4     4     5   ar
     5     5     6   ar
     6     6     7   ar
     7     7     8    1
     8     8     9    1
     9     9    10    1
    10    10    11   am
    11    11    12    2
    12    11    17    1
    13    17    18    1
    14    18    20    1
    15    20    21    1
    16    21    22    1
    17    21    23    1
    18    23    24    1
    19    24    25    1
    20    25    26    1
    21    26    27    1
    22    10    13    1
    23    13    14    1
    24    14    15    1
    25    14    16    1
    26     7     2   ar
    27    27    21    1
    28    13     6    1
    29    18    19    1
    30    22    28    1
@<TRIPOS>MOLECULE
*****
 28 30 0 0 0
SMALL
GASTEIGER

@<TRIPOS>ATOM
      1 C          -6.5294  -15.1587   24.9031 C.3     1  UNL1        0.0307
      2 C          -5.7565  -16.2482   24.2207 C.ar    1  UNL1       -0.0260
      3 C          -4.3470  -16.5436   24.6401 C.ar    1  UNL1       -0.0046
      4 C          -3.5742  -17.6331   23.9577 C.ar    1  UNL1       -0.0006
      5 C          -4.2108  -18.4272   22.8559 C.ar    1  UNL1       -0.0030
      6 C          -5.6203  -18.1318   22.4365 C.ar    1  UNL1       -0.0085
      7 C          -6.3932  -17.0423   23.1189 C.ar    1  UNL1       -0.0268
      8 C          -7.8028  -16.7469   22.6994 C.3     1  UNL1        0.0473
      9 C          -8.4395  -17.5410   21.5976 C.3     1  UNL1        0.0983
     10 N          -7.6666  -18.6306   20.9152 N.am    1  UNL1       -0.2760
     11 C          -8.3034  -19.4247   19.8134 C.2     1  UNL1        0.2420
     12 O          -7.5305  -20.5142   19.1310 O.2     1  UNL1       -0.2734
     13 C          -6.2571  -18.9260   21.3346 C.3     1  UNL1        0.0975
     14 C          -5.4842  -20.0155   20.6522 C.3     1  UNL1        0.0224
     15 C          -5.7357  -21.4503   21.0098 C.3     1  UNL1        0.0021
     16 C          -4.4599  -19.6701   19.6123 C.3     1  UNL1        0.0021
     17 C          -9.7129  -19.1293   19.3940 C.3     1  UNL1        0.1552
     18 N         -10.8615  -19.6415   20.2114 N.3     1  UNL1       -0.2879
     19 H         -11.3158  -20.3680   19.6580 H       1  UNL1        0.1238
     20 C         -10.6134  -20.2244   21.5711 C.3     1  UNL1        0.0961
     21 C         -11.2274  -19.5887   22.7830 C.3     1  UNL1        0.1027
     22 O         -10.2249  -20.4898   23.4412 O.3     1  UNL1       -0.3854
     23 C         -12.0165  -18.9084   21.7040 C.3     1  UNL1        0.0283
     24 C         -13.0716  -17.9053   22.0655 C.3     1  UNL1        0.0024
     25 C         -13.3374  -17.5825   23.5060 C.3     1  UNL1        0.0002
     26 C         -12.5482  -18.2627   24.5851 C.3     1  UNL1        0.0024
     27 C         -11.4932  -19.2658   24.2236 C.3     1  UNL1        0.0283
     28 H          -9.7365  -20.9807   22.7620 H       1  UNL1        0.2103
@<TRIPOS>BOND
     1     1     2    1
     2     2     3   ar
     3     3     4   ar
     4     4     5   ar
     5     5     6   ar
     6     6     7   ar
     7     7     8    1
     8     8     9    1
     9     9    10    1
    10    10    11   am
    11    11    12    2
    12    11    17    1
    13    17    18    1
    14    18    20    1
    15    20    21    1
    16    21    22    1
    17    21    23    1
    18    23    24    1
    19    24    25    1
    20    25    26    1
    21    26    27    1
    22    10    13    1
    23    13    14    1
    24    14    15    1
    25    14    16    1
    26     7     2   ar
    27    27    21    1
    28    13     6    1
    29    18    19    1
    30    22    28    1
@<TRIPOS>MOLECULE
*****
 28 30 0 0 0
SMALL
GASTEIGER

@<TRIPOS>ATOM
      1 C         -11.8040  -15.9232   22.4497 C.3     1  UNL1        0.0307
      2 C         -11.1237  -17.1705   21.9687 C.ar    1  UNL1       -0.0260
      3 C         -11.9113  -18.2240   21.2477 C.ar    1  UNL1       -0.0046
      4 C         -11.2309  -19.4713   20.7667 C.ar    1  UNL1       -0.0006
      5 C          -9.7630  -19.6651   21.0066 C.ar    1  UNL1       -0.0030
      6 C          -8.9754  -18.6116   21.7275 C.ar    1  UNL1       -0.0085
      7 C          -9.6558  -17.3643   22.2086 C.ar    1  UNL1       -0.0268
      8 C          -8.8681  -16.3108   22.9296 C.3     1  UNL1        0.0473
      9 C          -7.4002  -16.5046   23.1695 C.3     1  UNL1        0.0983
     10 N          -6.7198  -17.7519   22.6884 N.am    1  UNL1       -0.2760
     11 C          -5.2518  -17.9457   22.9284 C.2     1  UNL1        0.2420
     12 O          -4.5715  -19.1930   22.4473 O.2     1  UNL1       -0.2734
     13 C          -7.5074  -18.8054   21.9675 C.3     1  UNL1        0.0975
     14 C          -6.8271  -20.0527   21.4864 C.3     1  UNL1        0.0224
     15 C          -6.3039  -20.1279   20.0827 C.3     1  UNL1        0.0021
     16 C          -6.6700  -21.2248   22.4092 C.3     1  UNL1        0.0021
     17 C          -4.4642  -16.8922   23.6493 C.3     1  UNL1        0.1552
     18 N          -3.5540  -15.9798   22.8820 N.3     1  UNL1       -0.2879
     19 H          -2.6417  -16.0240   23.3360 H       1  UNL1        0.1238
     20 C          -3.3208  -16.2104   21.4182 C.3     1  UNL1        0.0961
     21 C          -1.9733  -16.6584   20.9349 C.3     1  UNL1        0.1027
     22 O          -1.5592  -15.7377   22.0444 O.3     1  UNL1       -0.3854
     23 C          -2.8554  -17.4233   19.9933 C.3     1  UNL1        0.0283
     24 C          -2.2462  -18.3166   18.9536 C.3     1  UNL1        0.0024
     25 C          -0.7549  -18.4448   18.8555 C.3     1  UNL1        0.0002
     26 C           0.1272  -17.6798   19.7971 C.3     1  UNL1        0.0024
     27 C          -0.4820  -16.7866   20.8368 C.3     1  UNL1        0.0283
     28 H          -2.3487  -15.3609   22.4635 H       1  UNL1        0.2103
@<TRIPOS>BOND
     1     1     2    1
     2     2     3   ar
     3     3     4   ar
     4     4     5   ar
     5     5     6   ar
     6     6     7   ar
     7     7     8    1
     8     8     9    1
     9     9    10    1
    10    10    11   am
    11    11    12    2
    12    11    17    1
    13    17    18    1
    14    18    20    1
    15    20    21    1
    16    21    22    1
    17    21    23    1
    18    23    24    1
    19    24    25    1
    20    25    26    1
    21    26    27    1
    22    10    13    1
    23    13    14    1
    24    14    15    1
    25    14    16    1
    26     7     2   ar
    27    27    21    1
    28    13     6    1
    29    18    19    1
    30    22    28    1
