@<TRIPOS>MOLECULE
*****
 32 34 0 0 0
SMALL
GASTEIGER

@<TRIPOS>ATOM
      1 C          -4.0992  -16.7073   23.1880 C.ar    1  UNL1        0.1725
      2 C          -4.6336  -15.3568   23.5629 C.ar    1  UNL1        0.0413
      3 C          -6.1105  -15.1545   23.7295 C.ar    1  UNL1        0.0182
      4 C          -7.0530  -16.3026   23.5213 C.ar    1  UNL1        0.0560
      5 C          -6.5186  -17.6532   23.1465 C.ar    1  UNL1        0.0549
      6 C          -5.0417  -17.8555   22.9798 C.ar    1  UNL1        0.1740
      7 C          -1.9161  -16.3336   21.8299 C.3     1  UNL1        0.2526
      8 O          -2.6222  -16.9096   23.0214 O.3     1  UNL1       -0.4684
      9 N          -8.5300  -16.1004   23.6880 N.pl3   1  UNL1       -0.2705
     10 C          -9.0530  -15.3231   24.8594 C.3     1  UNL1        0.1187
     11 C          -9.4838  -16.6753   22.6832 C.ar    1  UNL1        0.1382
     12 N          -9.9386  -15.8447   21.5200 N.ar    1  UNL1       -0.2157
     13 C         -10.8924  -16.4196   20.5152 C.ar    1  UNL1        0.1409
     14 C         -11.3472  -15.5889   19.3519 C.3     1  UNL1        0.0737
     15 N         -11.3914  -17.8252   20.6736 N.ar    1  UNL1       -0.2306
     16 C         -10.9367  -18.6560   21.8369 C.ar    1  UNL1        0.0853
     17 C         -11.4357  -20.0616   21.9953 C.ar    1  UNL1        0.0192
     18 C         -10.9809  -20.8923   23.1585 C.ar    1  UNL1        0.0015
     19 C         -10.0271  -20.3173   24.1633 C.ar    1  UNL1        0.0002
     20 C          -9.5281  -18.9117   24.0049 C.ar    1  UNL1        0.0043
     21 C          -9.9828  -18.0810   22.8417 C.ar    1  UNL1        0.0496
     22 O          -4.5073  -19.2060   22.6050 O.3     1  UNL1       -0.4668
     23 C          -4.3769  -19.5863   21.1599 C.3     1  UNL1        0.2430
     24 C          -3.0549  -19.4493   20.4646 C.2     1  UNL1        0.2845
     25 O          -1.8456  -20.1515   21.0075 O.2     1  UNL1       -0.2691
     26 N          -2.9421  -18.6102   19.2264 N.am    1  UNL1       -0.1940
     27 O          -1.6200  -18.4732   18.5310 O.3     1  UNL1       -0.2951
     28 H          -3.7357  -18.1494   18.8701 H       1  UNL1        0.1823
     29 H          -0.9491  -18.9862   19.0081 H       1  UNL1        0.2414
     30 C          -5.5686  -20.1037   20.4101 C.3     1  UNL1        0.0493
     31 C          -6.5993  -19.1471   19.8877 C.3     1  UNL1        0.0042
     32 C          -5.7297  -21.5775   20.1826 C.3     1  UNL1        0.0042
@<TRIPOS>BOND
     1     7     8    1
     2     8     1    1
     3     1     2   ar
     4     2     3   ar
     5     3     4   ar
     6     4     9    1
     7     9    10    1
     8     9    11    1
     9    11    12   ar
    10    12    13   ar
    11    13    14    1
    12    13    15   ar
    13    15    16   ar
    14    16    17   ar
    15    17    18   ar
    16    18    19   ar
    17    19    20   ar
    18    20    21   ar
    19     4     5   ar
    20     5     6   ar
    21     6    22    1
    22    22    23    1
    23    23    24    1
    24    24    25    2
    25    24    26   am
    26    26    27    1
    27    23    30    1
    28    30    31    1
    29    30    32    1
    30     6     1   ar
    31    21    11   ar
    32    21    16   ar
    33    26    28    1
    34    27    29    1
@<TRIPOS>MOLECULE
*****
 32 34 0 0 0
SMALL
GASTEIGER

@<TRIPOS>ATOM
      1 C         -10.3147  -18.4299   20.2197 C.ar    1  UNL1        0.1725
      2 C          -9.5416  -19.1576   19.1601 C.ar    1  UNL1        0.0413
      3 C          -8.1244  -19.5753   19.4193 C.ar    1  UNL1        0.0182
      4 C          -7.4805  -19.2652   20.7380 C.ar    1  UNL1        0.0560
      5 C          -8.2536  -18.5375   21.7976 C.ar    1  UNL1        0.0549
      6 C          -9.6708  -18.1199   21.5384 C.ar    1  UNL1        0.1740
      7 C         -12.0633  -16.5620   19.7683 C.3     1  UNL1        0.2526
      8 O         -11.7320  -18.0122   19.9604 O.3     1  UNL1       -0.4684
      9 N          -6.0632  -19.6829   20.9973 N.pl3   1  UNL1       -0.2705
     10 C          -5.6235  -21.0814   20.6799 C.3     1  UNL1        0.1187
     11 C          -5.0858  -18.7020   21.5739 C.ar    1  UNL1        0.1382
     12 N          -5.3891  -18.0169   22.8734 N.ar    1  UNL1       -0.2157
     13 C          -4.4117  -17.0360   23.4501 C.ar    1  UNL1        0.1409
     14 C          -4.7149  -16.3509   24.7496 C.3     1  UNL1        0.0737
     15 N          -3.1311  -16.7402   22.7273 N.ar    1  UNL1       -0.2306
     16 C          -2.8278  -17.4253   21.4277 C.ar    1  UNL1        0.0853
     17 C          -1.5472  -17.1295   20.7049 C.ar    1  UNL1        0.0192
     18 C          -1.2440  -17.8146   19.4054 C.ar    1  UNL1        0.0015
     19 C          -2.2214  -18.7955   18.8288 C.ar    1  UNL1        0.0002
     20 C          -3.5020  -19.0913   19.5516 C.ar    1  UNL1        0.0043
     21 C          -3.8052  -18.4062   20.8511 C.ar    1  UNL1        0.0496
     22 O         -10.4439  -17.3922   22.5980 O.3     1  UNL1       -0.4668
     23 C         -11.0550  -18.1535   23.7368 C.3     1  UNL1        0.2430
     24 C         -12.5454  -18.1866   23.9029 C.2     1  UNL1        0.2845
     25 O         -13.4362  -17.7985   22.7601 O.2     1  UNL1       -0.2691
     26 N         -13.1450  -18.6078   25.2117 N.am    1  UNL1       -0.1940
     27 O         -14.6355  -18.6409   25.3778 O.3     1  UNL1       -0.2951
     28 H         -12.5604  -18.8625   25.9617 H       1  UNL1        0.1823
     29 H         -15.0592  -18.3632   24.5506 H       1  UNL1        0.2414
     30 C         -10.1756  -18.8818   24.7095 C.3     1  UNL1        0.0493
     31 C          -9.9820  -20.3638   24.5815 C.3     1  UNL1        0.0042
     32 C          -9.4898  -18.1282   25.8103 C.3     1  UNL1        0.0042
@<TRIPOS>BOND
     1     7     8    1
     2     8     1    1
     3     1     2   ar
     4     2     3   ar
     5     3     4   ar
     6     4     9    1
     7     9    10    1
     8     9    11    1
     9    11    12   ar
    10    12    13   ar
    11    13    14    1
    12    13    15   ar
    13    15    16   ar
    14    16    17   ar
    15    17    18   ar
    16    18    19   ar
    17    19    20   ar
    18    20    21   ar
    19     4     5   ar
    20     5     6   ar
    21     6    22    1
    22    22    23    1
    23    23    24    1
    24    24    25    2
    25    24    26   am
    26    26    27    1
    27    23    30    1
    28    30    31    1
    29    30    32    1
    30     6     1   ar
    31    21    11   ar
    32    21    16   ar
    33    26    28    1
    34    27    29    1
@<TRIPOS>MOLECULE
*****
 32 34 0 0 0
SMALL
GASTEIGER

@<TRIPOS>ATOM
      1 C          -9.8520  -18.5462   20.2882 C.ar    1  UNL1        0.1725
      2 C          -9.2376  -19.4596   19.2693 C.ar    1  UNL1        0.0413
      3 C          -7.8232  -19.9292   19.4391 C.ar    1  UNL1        0.0182
      4 C          -7.0232  -19.4854   20.6278 C.ar    1  UNL1        0.0560
      5 C          -7.6377  -18.5719   21.6467 C.ar    1  UNL1        0.0549
      6 C          -9.0521  -18.1023   21.4769 C.ar    1  UNL1        0.1740
      7 C         -11.5418  -16.7122   19.5593 C.3     1  UNL1        0.2526
      8 O         -11.2665  -18.0766   20.1184 O.3     1  UNL1       -0.4684
      9 N          -5.6087  -19.9549   20.7976 N.pl3   1  UNL1       -0.2705
     10 C          -5.2042  -21.3116   20.3018 C.3     1  UNL1        0.1187
     11 C          -4.5988  -19.0678   21.4633 C.ar    1  UNL1        0.1382
     12 N          -4.7547  -18.7088   22.9113 N.ar    1  UNL1       -0.2157
     13 C          -3.7447  -17.8217   23.5770 C.ar    1  UNL1        0.1409
     14 C          -3.9006  -17.4627   25.0250 C.3     1  UNL1        0.0737
     15 N          -2.5790  -17.2936   22.7946 N.ar    1  UNL1       -0.2306
     16 C          -2.4231  -17.6526   21.3465 C.ar    1  UNL1        0.0853
     17 C          -1.2574  -17.1245   20.5642 C.ar    1  UNL1        0.0192
     18 C          -1.1015  -17.4836   19.1162 C.ar    1  UNL1        0.0015
     19 C          -2.1114  -18.3707   18.4505 C.ar    1  UNL1        0.0002
     20 C          -3.2772  -18.8988   19.2329 C.ar    1  UNL1        0.0043
     21 C          -3.4330  -18.5397   20.6809 C.ar    1  UNL1        0.0496
     22 O          -9.6665  -17.1889   22.4957 O.3     1  UNL1       -0.4668
     23 C         -10.6739  -17.7224   23.4707 C.3     1  UNL1        0.2430
     24 C         -10.2498  -18.6959   24.5301 C.2     1  UNL1        0.2845
     25 O          -9.7269  -18.1944   25.8436 O.2     1  UNL1       -0.2691
     26 N         -10.3485  -20.1709   24.2761 N.am    1  UNL1       -0.1940
     27 O          -9.9244  -21.1445   25.3356 O.3     1  UNL1       -0.2951
     28 H         -10.6917  -20.5001   23.4141 H       1  UNL1        0.1823
     29 H          -9.6142  -20.6586   26.1157 H       1  UNL1        0.2414
     30 C         -12.1054  -17.2823   23.3862 C.3     1  UNL1        0.0493
     31 C         -13.1940  -18.1644   23.9220 C.3     1  UNL1        0.0042
     32 C         -12.4483  -15.9603   22.7660 C.3     1  UNL1        0.0042
@<TRIPOS>BOND
     1     7     8    1
     2     8     1    1
     3     1     2   ar
     4     2     3   ar
     5     3     4   ar
     6     4     9    1
     7     9    10    1
     8     9    11    1
     9    11    12   ar
    10    12    13   ar
    11    13    14    1
    12    13    15   ar
    13    15    16   ar
    14    16    17   ar
    15    17    18   ar
    16    18    19   ar
    17    19    20   ar
    18    20    21   ar
    19     4     5   ar
    20     5     6   ar
    21     6    22    1
    22    22    23    1
    23    23    24    1
    24    24    25    2
    25    24    26   am
    26    26    27    1
    27    23    30    1
    28    30    31    1
    29    30    32    1
    30     6     1   ar
    31    21    11   ar
    32    21    16   ar
    33    26    28    1
    34    27    29    1
@<TRIPOS>MOLECULE
*****
 32 34 0 0 0
SMALL
GASTEIGER

@<TRIPOS>ATOM
      1 C          -5.5980  -16.2568   24.0142 C.ar    1  UNL1        0.1725
      2 C          -6.9991  -15.7261   23.9396 C.ar    1  UNL1        0.0413
      3 C          -8.0126  -16.4049   23.0668 C.ar    1  UNL1        0.0182
      4 C          -7.6252  -17.6143   22.2685 C.ar    1  UNL1        0.0560
      5 C          -6.2241  -18.1449   22.3431 C.ar    1  UNL1        0.0549
      6 C          -5.2106  -17.4661   23.2160 C.ar    1  UNL1        0.1740
      7 C          -5.0181  -14.9028   26.1545 C.3     1  UNL1        0.2526
      8 O          -4.5844  -15.5779   24.8871 O.3     1  UNL1       -0.4684
      9 N          -8.6388  -18.2931   21.3956 N.pl3   1  UNL1       -0.2705
     10 C          -8.2601  -19.5212   20.6222 C.3     1  UNL1        0.1187
     11 C         -10.0310  -17.7437   21.2962 C.ar    1  UNL1        0.1382
     12 N         -10.4228  -16.9020   20.1180 N.ar    1  UNL1       -0.2157
     13 C         -11.8150  -16.3526   20.0186 C.ar    1  UNL1        0.1409
     14 C         -12.2067  -15.5109   18.8404 C.3     1  UNL1        0.0737
     15 N         -12.8154  -16.6449   21.0973 N.ar    1  UNL1       -0.2306
     16 C         -12.4237  -17.4866   22.2755 C.ar    1  UNL1        0.0853
     17 C         -13.4241  -17.7789   23.3542 C.ar    1  UNL1        0.0192
     18 C         -13.0323  -18.6206   24.5324 C.ar    1  UNL1        0.0015
     19 C         -11.6401  -19.1700   24.6318 C.ar    1  UNL1        0.0002
     20 C         -10.6397  -18.8777   23.5531 C.ar    1  UNL1        0.0043
     21 C         -11.0314  -18.0360   22.3750 C.ar    1  UNL1        0.0496
     22 O          -3.8095  -17.9967   23.2906 O.3     1  UNL1       -0.4668
     23 C          -3.0061  -18.1718   22.0361 C.3     1  UNL1        0.2430
     24 C          -3.0049  -19.4923   21.3243 C.2     1  UNL1        0.2845
     25 O          -1.8670  -20.4495   21.5215 O.2     1  UNL1       -0.2691
     26 N          -4.1416  -19.8553   20.4155 N.am    1  UNL1       -0.1940
     27 O          -4.1404  -21.1758   19.7037 O.3     1  UNL1       -0.2951
     28 H          -4.8884  -19.2270   20.2861 H       1  UNL1        0.1823
     29 H          -3.3395  -21.6695   19.9396 H       1  UNL1        0.2414
     30 C          -2.2037  -17.0266   21.4934 C.3     1  UNL1        0.0493
     31 C          -1.1957  -17.2647   20.4083 C.3     1  UNL1        0.0042
     32 C          -2.4094  -15.6432   22.0356 C.3     1  UNL1        0.0042
@<TRIPOS>BOND
     1     7     8    1
     2     8     1    1
     3     1     2   ar
     4     2     3   ar
     5     3     4   ar
     6     4     9    1
     7     9    10    1
     8     9    11    1
     9    11    12   ar
    10    12    13   ar
    11    13    14    1
    12    13    15   ar
    13    15    16   ar
    14    16    17   ar
    15    17    18   ar
    16    18    19   ar
    17    19    20   ar
    18    20    21   ar
    19     4     5   ar
    20     5     6   ar
    21     6    22    1
    22    22    23    1
    23    23    24    1
    24    24    25    2
    25    24    26   am
    26    26    27    1
    27    23    30    1
    28    30    31    1
    29    30    32    1
    30     6     1   ar
    31    21    11   ar
    32    21    16   ar
    33    26    28    1
    34    27    29    1
@<TRIPOS>MOLECULE
*****
 32 34 0 0 0
SMALL
GASTEIGER

@<TRIPOS>ATOM
      1 C          -9.9486  -18.2748   20.2761 C.ar    1  UNL1        0.1725
      2 C          -9.4550  -19.3801   19.3903 C.ar    1  UNL1        0.0413
      3 C          -8.0582  -19.9028   19.5507 C.ar    1  UNL1        0.0182
      4 C          -7.1550  -19.3201   20.5970 C.ar    1  UNL1        0.0560
      5 C          -7.6486  -18.2148   21.4828 C.ar    1  UNL1        0.0549
      6 C          -9.0454  -17.6922   21.3224 C.ar    1  UNL1        0.1740
      7 C         -11.5711  -16.3166   19.7440 C.3     1  UNL1        0.2526
      8 O         -11.3455  -17.7522   20.1156 O.3     1  UNL1       -0.4684
      9 N          -5.7582  -19.8427   20.7575 N.pl3   1  UNL1       -0.2705
     10 C          -5.4034  -21.2056   20.2412 C.3     1  UNL1        0.1187
     11 C          -4.7161  -19.0024   21.4342 C.ar    1  UNL1        0.1382
     12 N          -4.8622  -18.6510   22.8851 N.ar    1  UNL1       -0.2157
     13 C          -3.8202  -17.8106   23.5619 C.ar    1  UNL1        0.1409
     14 C          -3.9663  -17.4592   25.0128 C.3     1  UNL1        0.0737
     15 N          -2.6321  -17.3217   22.7877 N.ar    1  UNL1       -0.2306
     16 C          -2.4860  -17.6731   21.3367 C.ar    1  UNL1        0.0853
     17 C          -1.2979  -17.1842   20.5626 C.ar    1  UNL1        0.0192
     18 C          -1.1518  -17.5356   19.1117 C.ar    1  UNL1        0.0015
     19 C          -2.1938  -18.3760   18.4350 C.ar    1  UNL1        0.0002
     20 C          -3.3819  -18.8649   19.2091 C.ar    1  UNL1        0.0043
     21 C          -3.5280  -18.5135   20.6600 C.ar    1  UNL1        0.0496
     22 O          -9.5390  -16.5869   22.2082 O.3     1  UNL1       -0.4668
     23 C          -9.4466  -16.7226   23.6991 C.3     1  UNL1        0.2430
     24 C          -8.5714  -15.7910   24.4843 C.2     1  UNL1        0.2845
     25 O          -9.0505  -15.2364   25.7930 O.2     1  UNL1       -0.2691
     26 N          -7.2173  -15.4142   23.9606 N.am    1  UNL1       -0.1940
     27 O          -6.3422  -14.4826   24.7458 O.3     1  UNL1       -0.2951
     28 H          -6.9029  -15.7782   23.1016 H       1  UNL1        0.1823
     29 H          -6.7988  -14.2192   25.5600 H       1  UNL1        0.2414
     30 C         -10.2292  -17.7900   24.4050 C.3     1  UNL1        0.0493
     31 C         -11.6171  -18.1288   23.9477 C.3     1  UNL1        0.0042
     32 C          -9.6240  -18.5185   25.5682 C.3     1  UNL1        0.0042
@<TRIPOS>BOND
     1     7     8    1
     2     8     1    1
     3     1     2   ar
     4     2     3   ar
     5     3     4   ar
     6     4     9    1
     7     9    10    1
     8     9    11    1
     9    11    12   ar
    10    12    13   ar
    11    13    14    1
    12    13    15   ar
    13    15    16   ar
    14    16    17   ar
    15    17    18   ar
    16    18    19   ar
    17    19    20   ar
    18    20    21   ar
    19     4     5   ar
    20     5     6   ar
    21     6    22    1
    22    22    23    1
    23    23    24    1
    24    24    25    2
    25    24    26   am
    26    26    27    1
    27    23    30    1
    28    30    31    1
    29    30    32    1
    30     6     1   ar
    31    21    11   ar
    32    21    16   ar
    33    26    28    1
    34    27    29    1
@<TRIPOS>MOLECULE
*****
 32 34 0 0 0
SMALL
GASTEIGER

@<TRIPOS>ATOM
      1 C          -5.6961  -16.2176   24.0038 C.ar    1  UNL1        0.1725
      2 C          -7.1127  -15.7248   23.9838 C.ar    1  UNL1        0.0413
      3 C          -8.1357  -16.4172   23.1330 C.ar    1  UNL1        0.0182
      4 C          -7.7422  -17.6024   22.3022 C.ar    1  UNL1        0.0560
      5 C          -6.3256  -18.0953   22.3222 C.ar    1  UNL1        0.0549
      6 C          -5.3026  -17.4028   23.1730 C.ar    1  UNL1        0.1740
      7 C          -5.0843  -14.8753   26.1425 C.3     1  UNL1        0.2526
      8 O          -4.6731  -15.5251   24.8547 O.3     1  UNL1       -0.4684
      9 N          -8.7653  -18.2949   21.4514 N.pl3   1  UNL1       -0.2705
     10 C          -8.4040  -19.5528   20.7186 C.3     1  UNL1        0.1187
     11 C         -10.1496  -17.7294   21.3334 C.ar    1  UNL1        0.1382
     12 N         -10.5183  -16.8903   20.1460 N.ar    1  UNL1       -0.2157
     13 C         -11.9026  -16.3248   20.0280 C.ar    1  UNL1        0.1409
     14 C         -12.2712  -15.4857   18.8405 C.3     1  UNL1        0.0737
     15 N         -12.9181  -16.5984   21.0974 N.ar    1  UNL1       -0.2306
     16 C         -12.5495  -17.4375   22.2849 C.ar    1  UNL1        0.0853
     17 C         -13.5650  -17.7110   23.3543 C.ar    1  UNL1        0.0192
     18 C         -13.1963  -18.5501   24.5417 C.ar    1  UNL1        0.0015
     19 C         -11.8120  -19.1156   24.6597 C.ar    1  UNL1        0.0002
     20 C         -10.7965  -18.8421   23.5903 C.ar    1  UNL1        0.0043
     21 C         -11.1652  -18.0030   22.4029 C.ar    1  UNL1        0.0496
     22 O          -3.8860  -17.8957   23.1930 O.3     1  UNL1       -0.4668
     23 C          -3.1200  -18.0287   21.9103 C.3     1  UNL1        0.2430
     24 C          -2.1877  -16.9364   21.4767 C.2     1  UNL1        0.2845
     25 O          -2.5145  -15.5052   21.7848 O.2     1  UNL1       -0.2691
     26 N          -0.9288  -17.2753   20.7350 N.am    1  UNL1       -0.1940
     27 O           0.0035  -16.1830   20.3014 O.3     1  UNL1       -0.2951
     28 H          -0.7143  -18.2146   20.5328 H       1  UNL1        0.1823
     29 H          -0.3538  -15.3245   20.5775 H       1  UNL1        0.2414
     30 C          -3.2861  -19.2539   21.0611 C.3     1  UNL1        0.0493
     31 C          -2.3501  -20.4143   21.2274 C.3     1  UNL1        0.0042
     32 C          -4.3882  -19.3188   20.0456 C.3     1  UNL1        0.0042
@<TRIPOS>BOND
     1     7     8    1
     2     8     1    1
     3     1     2   ar
     4     2     3   ar
     5     3     4   ar
     6     4     9    1
     7     9    10    1
     8     9    11    1
     9    11    12   ar
    10    12    13   ar
    11    13    14    1
    12    13    15   ar
    13    15    16   ar
    14    16    17   ar
    15    17    18   ar
    16    18    19   ar
    17    19    20   ar
    18    20    21   ar
    19     4     5   ar
    20     5     6   ar
    21     6    22    1
    22    22    23    1
    23    23    24    1
    24    24    25    2
    25    24    26   am
    26    26    27    1
    27    23    30    1
    28    30    31    1
    29    30    32    1
    30     6     1   ar
    31    21    11   ar
    32    21    16   ar
    33    26    28    1
    34    27    29    1
@<TRIPOS>MOLECULE
*****
 32 34 0 0 0
SMALL
GASTEIGER

@<TRIPOS>ATOM
      1 C          -7.2904  -15.6315   25.3477 C.ar    1  UNL1        0.1725
      2 C          -6.0265  -15.7950   26.1388 C.ar    1  UNL1        0.0413
      3 C          -4.8470  -16.4952   25.5318 C.ar    1  UNL1        0.0182
      4 C          -4.9314  -17.0319   24.1337 C.ar    1  UNL1        0.0560
      5 C          -6.1953  -16.8684   23.3426 C.ar    1  UNL1        0.0549
      6 C          -7.3748  -16.1682   23.9496 C.ar    1  UNL1        0.1740
      7 C          -8.6807  -14.9667   27.4394 C.3     1  UNL1        0.2526
      8 O          -8.4699  -14.9312   25.9548 O.3     1  UNL1       -0.4684
      9 N          -3.7519  -17.7321   23.5267 N.pl3   1  UNL1       -0.2705
     10 C          -2.4374  -17.7508   24.2490 C.3     1  UNL1        0.1187
     11 C          -3.8869  -18.4136   22.1973 C.ar    1  UNL1        0.1382
     12 N          -4.9881  -19.4068   21.9720 N.ar    1  UNL1       -0.2157
     13 C          -5.1231  -20.0883   20.6426 C.ar    1  UNL1        0.1409
     14 C          -6.2245  -21.0815   20.4174 C.3     1  UNL1        0.0737
     15 N          -4.1569  -19.7766   19.5385 N.ar    1  UNL1       -0.2306
     16 C          -3.0556  -18.7834   19.7637 C.ar    1  UNL1        0.0853
     17 C          -2.0893  -18.4717   18.6595 C.ar    1  UNL1        0.0192
     18 C          -0.9881  -17.4786   18.8848 C.ar    1  UNL1        0.0015
     19 C          -0.8531  -16.7971   20.2142 C.ar    1  UNL1        0.0002
     20 C          -1.8193  -17.1087   21.3183 C.ar    1  UNL1        0.0043
     21 C          -2.9206  -18.1019   21.0931 C.ar    1  UNL1        0.0496
     22 O          -8.6386  -16.0047   23.1584 O.3     1  UNL1       -0.4668
     23 C          -9.4556  -17.2083   22.7928 C.3     1  UNL1        0.2430
     24 C         -10.3633  -17.1644   21.5994 C.2     1  UNL1        0.2845
     25 O          -9.9200  -17.7630   20.2974 O.2     1  UNL1       -0.2691
     26 N         -11.7144  -16.5219   21.7080 N.am    1  UNL1       -0.1940
     27 O         -12.6221  -16.4780   20.5146 O.3     1  UNL1       -0.2951
     28 H         -12.0054  -16.1291   22.5625 H       1  UNL1        0.1823
     29 H         -12.1861  -16.9054   19.7608 H       1  UNL1        0.2414
     30 C          -9.3649  -18.4560   23.6206 C.3     1  UNL1        0.0493
     31 C          -9.9490  -18.4837   25.0020 C.3     1  UNL1        0.0042
     32 C          -8.6902  -19.6759   23.0670 C.3     1  UNL1        0.0042
@<TRIPOS>BOND
     1     7     8    1
     2     8     1    1
     3     1     2   ar
     4     2     3   ar
     5     3     4   ar
     6     4     9    1
     7     9    10    1
     8     9    11    1
     9    11    12   ar
    10    12    13   ar
    11    13    14    1
    12    13    15   ar
    13    15    16   ar
    14    16    17   ar
    15    17    18   ar
    16    18    19   ar
    17    19    20   ar
    18    20    21   ar
    19     4     5   ar
    20     5     6   ar
    21     6    22    1
    22    22    23    1
    23    23    24    1
    24    24    25    2
    25    24    26   am
    26    26    27    1
    27    23    30    1
    28    30    31    1
    29    30    32    1
    30     6     1   ar
    31    21    11   ar
    32    21    16   ar
    33    26    28    1
    34    27    29    1
@<TRIPOS>MOLECULE
*****
 32 34 0 0 0
SMALL
GASTEIGER

@<TRIPOS>ATOM
      1 C          -7.3618  -15.6559   25.3454 C.ar    1  UNL1        0.1725
      2 C          -6.1290  -15.8861   26.1682 C.ar    1  UNL1        0.0413
      3 C          -4.9387  -16.5680   25.5612 C.ar    1  UNL1        0.0182
      4 C          -4.9814  -17.0196   24.1315 C.ar    1  UNL1        0.0560
      5 C          -6.2143  -16.7893   23.3087 C.ar    1  UNL1        0.0549
      6 C          -7.4045  -16.1075   23.9156 C.ar    1  UNL1        0.1740
      7 C          -8.7286  -14.9582   27.4418 C.3     1  UNL1        0.2526
      8 O          -8.5521  -14.9740   25.9524 O.3     1  UNL1       -0.4684
      9 N          -3.7911  -17.7015   23.5245 N.pl3   1  UNL1       -0.2705
     10 C          -2.4756  -17.6967   24.2452 C.3     1  UNL1        0.1187
     11 C          -3.9164  -18.3881   22.1968 C.ar    1  UNL1        0.1382
     12 N          -5.0237  -19.3725   21.9630 N.ar    1  UNL1       -0.2157
     13 C          -5.1490  -20.0591   20.6353 C.ar    1  UNL1        0.1409
     14 C          -6.2564  -21.0435   20.4016 C.3     1  UNL1        0.0737
     15 N          -4.1670  -19.7613   19.5413 N.ar    1  UNL1       -0.2306
     16 C          -3.0596  -18.7768   19.7750 C.ar    1  UNL1        0.0853
     17 C          -2.0775  -18.4790   18.6810 C.ar    1  UNL1        0.0192
     18 C          -0.9702  -17.4946   18.9148 C.ar    1  UNL1        0.0015
     19 C          -0.8449  -16.8080   20.2425 C.ar    1  UNL1        0.0002
     20 C          -1.8269  -17.1058   21.3365 C.ar    1  UNL1        0.0043
     21 C          -2.9343  -18.0902   21.1028 C.ar    1  UNL1        0.0496
     22 O          -8.6374  -15.8773   23.0928 O.3     1  UNL1       -0.4668
     23 C          -9.6392  -16.9799   22.9181 C.3     1  UNL1        0.2430
     24 C          -9.4381  -18.2932   23.6144 C.2     1  UNL1        0.2845
     25 O          -8.4944  -19.3089   23.0419 O.2     1  UNL1       -0.2691
     26 N         -10.1808  -18.5908   24.8832 N.am    1  UNL1       -0.1940
     27 O          -9.9798  -19.9042   25.5795 O.3     1  UNL1       -0.2951
     28 H         -10.8002  -17.9242   25.2589 H       1  UNL1        0.1823
     29 H          -9.3428  -20.4400   25.0815 H       1  UNL1        0.2414
     30 C         -10.8420  -16.7692   22.0470 C.3     1  UNL1        0.0493
     31 C         -12.0369  -16.0374   22.5826 C.3     1  UNL1        0.0042
     32 C         -10.8500  -17.2904   20.6405 C.3     1  UNL1        0.0042
@<TRIPOS>BOND
     1     7     8    1
     2     8     1    1
     3     1     2   ar
     4     2     3   ar
     5     3     4   ar
     6     4     9    1
     7     9    10    1
     8     9    11    1
     9    11    12   ar
    10    12    13   ar
    11    13    14    1
    12    13    15   ar
    13    15    16   ar
    14    16    17   ar
    15    17    18   ar
    16    18    19   ar
    17    19    20   ar
    18    20    21   ar
    19     4     5   ar
    20     5     6   ar
    21     6    22    1
    22    22    23    1
    23    23    24    1
    24    24    25    2
    25    24    26   am
    26    26    27    1
    27    23    30    1
    28    30    31    1
    29    30    32    1
    30     6     1   ar
    31    21    11   ar
    32    21    16   ar
    33    26    28    1
    34    27    29    1
@<TRIPOS>MOLECULE
*****
 32 34 0 0 0
SMALL
GASTEIGER

@<TRIPOS>ATOM
      1 C           2.4181    1.1127   31.5408 C.ar    1  UNL1        0.1725
      2 C           1.2925    2.0599   31.8338 C.ar    1  UNL1        0.0413
      3 C           1.2509    2.7937   33.1413 C.ar    1  UNL1        0.0182
      4 C           2.3349    2.5804   34.1558 C.ar    1  UNL1        0.0560
      5 C           3.4605    1.6332   33.8628 C.ar    1  UNL1        0.0549
      6 C           3.5021    0.8994   32.5553 C.ar    1  UNL1        0.1740
      7 C           1.1941    0.1498   29.4611 C.3     1  UNL1        0.2526
      8 O           2.4596    0.3788   30.2332 O.3     1  UNL1       -0.4684
      9 N           2.2934    3.3143   35.4634 N.pl3   1  UNL1       -0.2705
     10 C           1.7563    4.7136   35.5214 C.3     1  UNL1        0.1187
     11 C           2.7890    2.6488   36.7130 C.ar    1  UNL1        0.1382
     12 N           1.8497    1.8338   37.5518 N.ar    1  UNL1       -0.2157
     13 C           2.3453    1.1683   38.8014 C.ar    1  UNL1        0.1409
     14 C           1.4060    0.3533   39.6402 C.3     1  UNL1        0.0737
     15 N           3.7802    1.3177   39.2122 N.ar    1  UNL1       -0.2306
     16 C           4.7195    2.1327   38.3734 C.ar    1  UNL1        0.0853
     17 C           6.1544    2.2822   38.7842 C.ar    1  UNL1        0.0192
     18 C           7.0936    3.0972   37.9455 C.ar    1  UNL1        0.0015
     19 C           6.5980    3.7627   36.6959 C.ar    1  UNL1        0.0002
     20 C           5.1632    3.6132   36.2851 C.ar    1  UNL1        0.0043
     21 C           4.2239    2.7983   37.1238 C.ar    1  UNL1        0.0496
     22 O           4.6277   -0.0478   32.2623 O.3     1  UNL1       -0.4668
     23 C           5.1870   -0.9091   33.3556 C.3     1  UNL1        0.2430
     24 C           5.0403   -2.4003   33.2849 C.2     1  UNL1        0.2845
     25 O           3.7709   -3.0518   33.7477 O.2     1  UNL1       -0.2691
     26 N           6.1630   -3.2399   32.7515 N.am    1  UNL1       -0.1940
     27 O           6.0163   -4.7311   32.6808 O.3     1  UNL1       -0.2951
     28 H           6.9961   -2.8123   32.4477 H       1  UNL1        0.1823
     29 H           5.1427   -4.9863   33.0162 H       1  UNL1        0.2414
     30 C           5.8930   -0.2793   34.5196 C.3     1  UNL1        0.0493
     31 C           5.4066   -0.5294   35.9164 C.3     1  UNL1        0.0042
     32 C           7.0852    0.6006   34.2869 C.3     1  UNL1        0.0042
@<TRIPOS>BOND
     1     7     8    1
     2     8     1    1
     3     1     2   ar
     4     2     3   ar
     5     3     4   ar
     6     4     9    1
     7     9    10    1
     8     9    11    1
     9    11    12   ar
    10    12    13   ar
    11    13    14    1
    12    13    15   ar
    13    15    16   ar
    14    16    17   ar
    15    17    18   ar
    16    18    19   ar
    17    19    20   ar
    18    20    21   ar
    19     4     5   ar
    20     5     6   ar
    21     6    22    1
    22    22    23    1
    23    23    24    1
    24    24    25    2
    25    24    26   am
    26    26    27    1
    27    23    30    1
    28    30    31    1
    29    30    32    1
    30     6     1   ar
    31    21    11   ar
    32    21    16   ar
    33    26    28    1
    34    27    29    1
