@<TRIPOS>MOLECULE
*****
 33 37 0 0 0
SMALL
GASTEIGER

@<TRIPOS>ATOM
      1 C          -8.3417  -18.9299   20.4461 C.3     1  UNL1        0.0749
      2 C          -8.7670  -18.7928   21.8780 C.3     1  UNL1        0.0444
      3 C         -10.1976  -18.4873   22.2095 C.ar    1  UNL1       -0.0103
      4 C         -11.2030  -18.3189   21.1091 C.ar    1  UNL1       -0.0091
      5 C         -12.6337  -18.0134   21.4406 C.ar    1  UNL1       -0.0032
      6 C         -13.0589  -17.8763   22.8725 C.ar    1  UNL1        0.0010
      7 C         -12.0536  -18.0447   23.9729 C.ar    1  UNL1        0.0140
      8 C         -10.6229  -18.3502   23.6414 C.ar    1  UNL1        0.0403
      9 C         -10.7777  -18.4560   19.6772 C.3     1  UNL1        0.0954
     10 N          -9.3471  -18.7615   19.3457 N.3     1  UNL1       -0.2934
     11 H          -9.0126  -18.0000   18.7552 H       1  UNL1        0.1236
     12 N          -9.6176  -18.5186   24.7418 N.pl3   1  UNL1       -0.3342
     13 H          -9.4180  -19.4164   25.0931 H       1  UNL1        0.1468
     14 C          -8.9163  -17.3191   25.3070 C.3     1  UNL1        0.0718
     15 C          -8.3244  -16.2934   24.3863 C.3     1  UNL1        0.0366
     16 C          -7.6231  -15.0939   24.9515 C.3     1  UNL1        0.0703
     17 N          -7.5136  -14.9202   26.4374 N.3     1  UNL1       -0.2974
     18 C          -8.1055  -15.9459   27.3581 C.3     1  UNL1        0.0703
     19 C          -8.8068  -17.1453   26.7929 C.3     1  UNL1        0.0366
     20 H          -7.9581  -14.0303   26.6633 H       1  UNL1        0.1232
     21 C          -6.9110  -19.2354   20.1145 C.3     1  UNL1        0.0886
     22 C          -6.0271  -21.0859   21.7096 C.3     1  UNL1        0.0899
     23 N          -5.9690  -19.6783   21.1945 N.3     1  UNL1       -0.2667
     24 C          -4.9688  -18.7136   21.7594 C.3     1  UNL1        0.0978
     25 C          -5.2206  -18.0643   23.0879 C.3     1  UNL1        0.0224
     26 C          -4.2204  -17.0996   23.6527 C.3     1  UNL1        0.0065
     27 C          -2.9685  -16.7843   22.8891 C.3     1  UNL1        0.0277
     28 C          -2.7166  -17.4337   21.5606 C.ar    1  UNL1       -0.0073
     29 C          -1.4647  -17.1184   20.7970 C.ar    1  UNL1       -0.0015
     30 C          -1.2129  -17.7677   19.4685 C.ar    1  UNL1        0.0203
     31 C          -2.2130  -18.7324   18.9036 C.ar    1  UNL1        0.0985
     32 N          -3.4650  -19.0477   19.6672 N.ar    1  UNL1       -0.2471
     33 C          -3.7168  -18.3983   20.9957 C.ar    1  UNL1        0.0695
@<TRIPOS>BOND
     1    22    23    1
     2    23    21    1
     3     1    21    1
     4     1     2    1
     5     2     3    1
     6     3     4   ar
     7     4     5   ar
     8     5     6   ar
     9     6     7   ar
    10     7     8   ar
    11     8    12    1
    12    12    14    1
    13    14    15    1
    14    15    16    1
    15    16    17    1
    16    17    18    1
    17    18    19    1
    18     4     9    1
    19     9    10    1
    20    24    23    1
    21    24    25    1
    22    25    26    1
    23    26    27    1
    24    27    28    1
    25    28    29   ar
    26    29    30   ar
    27    30    31   ar
    28    31    32   ar
    29    32    33   ar
    30    10     1    1
    31    33    24    1
    32     8     3   ar
    33    19    14    1
    34    33    28   ar
    35    12    13    1
    36    17    20    1
    37    10    11    1
@<TRIPOS>MOLECULE
*****
 33 37 0 0 0
SMALL
GASTEIGER

@<TRIPOS>ATOM
      1 C          -8.9447  -15.6563   22.6928 C.3     1  UNL1        0.0749
      2 C          -7.4544  -15.7293   22.8468 C.3     1  UNL1        0.0444
      3 C          -6.8398  -15.7054   24.2148 C.ar    1  UNL1       -0.0103
      4 C          -7.7154  -15.6086   25.4289 C.ar    1  UNL1       -0.0091
      5 C          -7.1006  -15.5847   26.7969 C.ar    1  UNL1       -0.0032
      6 C          -5.6104  -15.6577   26.9509 C.ar    1  UNL1        0.0010
      7 C          -4.7348  -15.7545   25.7369 C.ar    1  UNL1        0.0140
      8 C          -5.3494  -15.7784   24.3688 C.ar    1  UNL1        0.0403
      9 C          -9.2056  -15.5356   25.2749 C.3     1  UNL1        0.0954
     10 N          -9.8203  -15.5594   23.9068 N.3     1  UNL1       -0.2934
     11 H         -10.3611  -14.6998   23.8120 H       1  UNL1        0.1236
     12 N          -4.4738  -15.8753   23.1547 N.pl3   1  UNL1       -0.3342
     13 H          -4.2624  -15.0666   22.6346 H       1  UNL1        0.1468
     14 C          -3.9205  -17.2042   22.7332 C.3     1  UNL1        0.0718
     15 C          -2.4648  -17.3378   22.3966 C.3     1  UNL1        0.0366
     16 C          -1.9115  -18.6668   21.9751 C.3     1  UNL1        0.0703
     17 N          -2.8137  -19.8621   21.8902 N.3     1  UNL1       -0.2974
     18 C          -4.2694  -19.7284   22.2268 C.3     1  UNL1        0.0703
     19 C          -4.8227  -18.3995   22.6483 C.3     1  UNL1        0.0366
     20 H          -2.4294  -20.5665   22.5199 H       1  UNL1        0.1232
     21 C          -9.5594  -15.6801   21.3247 C.3     1  UNL1        0.0886
     22 C         -11.3202  -16.6318   19.6681 C.3     1  UNL1        0.0899
     23 N         -10.7576  -16.5415   21.0558 N.3     1  UNL1       -0.2667
     24 C         -11.3933  -17.3126   22.1744 C.3     1  UNL1        0.0978
     25 C         -12.7608  -16.9363   22.6624 C.3     1  UNL1        0.0224
     26 C         -13.3964  -17.7074   23.7811 C.3     1  UNL1        0.0065
     27 C         -12.6646  -18.8548   24.4117 C.3     1  UNL1        0.0277
     28 C         -11.2969  -19.2312   23.9237 C.ar    1  UNL1       -0.0073
     29 C         -10.5651  -20.3786   24.5543 C.ar    1  UNL1       -0.0015
     30 C          -9.1975  -20.7549   24.0663 C.ar    1  UNL1        0.0203
     31 C          -8.5619  -19.9838   22.9476 C.ar    1  UNL1        0.0985
     32 N          -9.2938  -18.8364   22.3170 N.ar    1  UNL1       -0.2471
     33 C         -10.6613  -18.4601   22.8050 C.ar    1  UNL1        0.0695
@<TRIPOS>BOND
     1    22    23    1
     2    23    21    1
     3     1    21    1
     4     1     2    1
     5     2     3    1
     6     3     4   ar
     7     4     5   ar
     8     5     6   ar
     9     6     7   ar
    10     7     8   ar
    11     8    12    1
    12    12    14    1
    13    14    15    1
    14    15    16    1
    15    16    17    1
    16    17    18    1
    17    18    19    1
    18     4     9    1
    19     9    10    1
    20    24    23    1
    21    24    25    1
    22    25    26    1
    23    26    27    1
    24    27    28    1
    25    28    29   ar
    26    29    30   ar
    27    30    31   ar
    28    31    32   ar
    29    32    33   ar
    30    10     1    1
    31    33    24    1
    32     8     3   ar
    33    19    14    1
    34    33    28   ar
    35    12    13    1
    36    17    20    1
    37    10    11    1
@<TRIPOS>MOLECULE
*****
 33 37 0 0 0
SMALL
GASTEIGER

@<TRIPOS>ATOM
      1 C          -9.1248  -15.6976   22.7100 C.3     1  UNL1        0.0749
      2 C          -7.6357  -15.6097   22.8671 C.3     1  UNL1        0.0444
      3 C          -7.0317  -15.4871   24.2346 C.ar    1  UNL1       -0.0103
      4 C          -7.9169  -15.4524   25.4451 C.ar    1  UNL1       -0.0091
      5 C          -7.3129  -15.3298   26.8126 C.ar    1  UNL1       -0.0032
      6 C          -5.8237  -15.2419   26.9697 C.ar    1  UNL1        0.0010
      7 C          -4.9386  -15.2766   25.7592 C.ar    1  UNL1        0.0140
      8 C          -5.5425  -15.3991   24.3917 C.ar    1  UNL1        0.0403
      9 C          -9.4060  -15.5403   25.2880 C.3     1  UNL1        0.0954
     10 N         -10.0100  -15.6629   23.9205 N.3     1  UNL1       -0.2934
     11 H         -10.6378  -14.8676   23.8035 H       1  UNL1        0.1236
     12 N          -4.6573  -15.4338   23.1812 N.pl3   1  UNL1       -0.3342
     13 H          -4.5306  -14.6208   22.6407 H       1  UNL1        0.1468
     14 C          -3.9653  -16.7071   22.7944 C.3     1  UNL1        0.0718
     15 C          -4.6556  -18.0247   22.9880 C.3     1  UNL1        0.0366
     16 C          -3.9635  -19.2980   22.6011 C.3     1  UNL1        0.0703
     17 N          -2.5811  -19.2538   22.0206 N.3     1  UNL1       -0.2974
     18 C          -1.8908  -17.9362   21.8270 C.3     1  UNL1        0.0703
     19 C          -2.5828  -16.6629   22.2138 C.3     1  UNL1        0.0366
     20 H          -2.6327  -19.6968   21.1033 H       1  UNL1        0.1232
     21 C          -9.7288  -15.8202   21.3424 C.3     1  UNL1        0.0886
     22 C         -10.9447  -17.3649   19.6437 C.3     1  UNL1        0.0899
     23 N          -9.9261  -17.1744   20.7283 N.3     1  UNL1       -0.2667
     24 C          -9.1049  -18.3381   21.1987 C.3     1  UNL1        0.0978
     25 C          -7.9026  -18.7734   20.4145 C.3     1  UNL1        0.0224
     26 C          -7.0814  -19.9371   20.8850 C.3     1  UNL1        0.0065
     27 C          -7.4624  -20.6656   22.1396 C.3     1  UNL1        0.0277
     28 C          -8.6647  -20.2303   22.9239 C.ar    1  UNL1       -0.0073
     29 C          -9.0458  -20.9587   24.1785 C.ar    1  UNL1       -0.0015
     30 C         -10.2480  -20.5234   24.9627 C.ar    1  UNL1        0.0203
     31 C         -11.0693  -19.3597   24.4923 C.ar    1  UNL1        0.0985
     32 N         -10.6882  -18.6313   23.2376 N.ar    1  UNL1       -0.2471
     33 C          -9.4860  -19.0665   22.4534 C.ar    1  UNL1        0.0695
@<TRIPOS>BOND
     1    22    23    1
     2    23    21    1
     3     1    21    1
     4     1     2    1
     5     2     3    1
     6     3     4   ar
     7     4     5   ar
     8     5     6   ar
     9     6     7   ar
    10     7     8   ar
    11     8    12    1
    12    12    14    1
    13    14    15    1
    14    15    16    1
    15    16    17    1
    16    17    18    1
    17    18    19    1
    18     4     9    1
    19     9    10    1
    20    24    23    1
    21    24    25    1
    22    25    26    1
    23    26    27    1
    24    27    28    1
    25    28    29   ar
    26    29    30   ar
    27    30    31   ar
    28    31    32   ar
    29    32    33   ar
    30    10     1    1
    31    33    24    1
    32     8     3   ar
    33    19    14    1
    34    33    28   ar
    35    12    13    1
    36    17    20    1
    37    10    11    1
@<TRIPOS>MOLECULE
*****
 33 37 0 0 0
SMALL
GASTEIGER

@<TRIPOS>ATOM
      1 C          -9.0748  -15.7634   22.8163 C.3     1  UNL1        0.0749
      2 C          -7.5906  -15.5639   22.9013 C.3     1  UNL1        0.0444
      3 C          -6.9346  -15.3744   24.2368 C.ar    1  UNL1       -0.0103
      4 C          -7.7628  -15.3844   25.4874 C.ar    1  UNL1       -0.0091
      5 C          -7.1068  -15.1949   26.8230 C.ar    1  UNL1       -0.0032
      6 C          -5.6226  -14.9954   26.9080 C.ar    1  UNL1        0.0010
      7 C          -4.7943  -14.9853   25.6574 C.ar    1  UNL1        0.0140
      8 C          -5.4503  -15.1748   24.3219 C.ar    1  UNL1        0.0403
      9 C          -9.2470  -15.5840   25.4024 C.3     1  UNL1        0.0954
     10 N          -9.9030  -15.7735   24.0669 N.3     1  UNL1       -0.2934
     11 H         -10.5928  -15.0284   23.9693 H       1  UNL1        0.1236
     12 N          -4.6221  -15.1647   23.0713 N.pl3   1  UNL1       -0.3342
     13 H          -4.6858  -14.4080   22.4448 H       1  UNL1        0.1468
     14 C          -3.6969  -16.3076   22.7752 C.3     1  UNL1        0.0718
     15 C          -3.9965  -17.6745   23.3156 C.3     1  UNL1        0.0366
     16 C          -3.0712  -18.8174   23.0195 C.3     1  UNL1        0.0703
     17 N          -1.8464  -18.5935   22.1831 N.3     1  UNL1       -0.2974
     18 C          -1.5468  -17.2266   21.6427 C.3     1  UNL1        0.0703
     19 C          -2.4720  -16.0837   21.9388 C.3     1  UNL1        0.0366
     20 H          -1.9201  -19.2180   21.3800 H       1  UNL1        0.1232
     21 C          -9.7309  -15.9529   21.4807 C.3     1  UNL1        0.0886
     22 C         -10.9276  -17.5122   19.7818 C.3     1  UNL1        0.0899
     23 N         -10.0769  -17.3324   21.0041 N.3     1  UNL1       -0.2667
     24 C          -9.5722  -18.5321   21.7497 C.3     1  UNL1        0.0978
     25 C         -10.4346  -19.1879   22.7871 C.3     1  UNL1        0.0224
     26 C          -9.9299  -20.3877   23.5327 C.3     1  UNL1        0.0065
     27 C          -8.5628  -20.9316   23.2409 C.3     1  UNL1        0.0277
     28 C          -7.7003  -20.2758   22.2035 C.ar    1  UNL1       -0.0073
     29 C          -6.3332  -20.8198   21.9117 C.ar    1  UNL1       -0.0015
     30 C          -5.4708  -20.1640   20.8744 C.ar    1  UNL1        0.0203
     31 C          -5.9755  -18.9642   20.1288 C.ar    1  UNL1        0.0985
     32 N          -7.3426  -18.4203   20.4205 N.ar    1  UNL1       -0.2471
     33 C          -8.2050  -19.0761   21.4579 C.ar    1  UNL1        0.0695
@<TRIPOS>BOND
     1    22    23    1
     2    23    21    1
     3     1    21    1
     4     1     2    1
     5     2     3    1
     6     3     4   ar
     7     4     5   ar
     8     5     6   ar
     9     6     7   ar
    10     7     8   ar
    11     8    12    1
    12    12    14    1
    13    14    15    1
    14    15    16    1
    15    16    17    1
    16    17    18    1
    17    18    19    1
    18     4     9    1
    19     9    10    1
    20    24    23    1
    21    24    25    1
    22    25    26    1
    23    26    27    1
    24    27    28    1
    25    28    29   ar
    26    29    30   ar
    27    30    31   ar
    28    31    32   ar
    29    32    33   ar
    30    10     1    1
    31    33    24    1
    32     8     3   ar
    33    19    14    1
    34    33    28   ar
    35    12    13    1
    36    17    20    1
    37    10    11    1
@<TRIPOS>MOLECULE
*****
 33 37 0 0 0
SMALL
GASTEIGER

@<TRIPOS>ATOM
      1 C          -7.5279  -17.8647   21.4742 C.3     1  UNL1        0.0749
      2 C          -6.2646  -17.9560   22.2778 C.3     1  UNL1        0.0444
      3 C          -6.0283  -17.0057   23.4140 C.ar    1  UNL1       -0.0103
      4 C          -7.0552  -15.9642   23.7466 C.ar    1  UNL1       -0.0091
      5 C          -6.8188  -15.0139   24.8830 C.ar    1  UNL1       -0.0032
      6 C          -5.5555  -15.1052   25.6865 C.ar    1  UNL1        0.0010
      7 C          -4.5286  -16.1467   25.3539 C.ar    1  UNL1        0.0140
      8 C          -4.7650  -17.0970   24.2177 C.ar    1  UNL1        0.0403
      9 C          -8.3184  -15.8729   22.9430 C.3     1  UNL1        0.0954
     10 N          -8.5548  -16.8232   21.8068 N.3     1  UNL1       -0.2934
     11 H          -8.6800  -16.2551   20.9690 H       1  UNL1        0.1236
     12 N          -3.7381  -18.1385   23.8850 N.pl3   1  UNL1       -0.3342
     13 H          -3.5947  -18.9000   24.4923 H       1  UNL1        0.1468
     14 C          -2.9296  -18.0198   22.6272 C.3     1  UNL1        0.0718
     15 C          -2.6868  -19.2298   21.7746 C.3     1  UNL1        0.0366
     16 C          -1.8783  -19.1110   20.5167 C.3     1  UNL1        0.0703
     17 N          -1.3125  -17.7822   20.1115 N.3     1  UNL1       -0.2974
     18 C          -1.5552  -16.5722   20.9641 C.3     1  UNL1        0.0703
     19 C          -2.3637  -16.6910   22.2219 C.3     1  UNL1        0.0366
     20 H          -1.6889  -17.5715   19.1872 H       1  UNL1        0.1232
     21 C          -7.7643  -18.8150   20.3378 C.3     1  UNL1        0.0886
     22 C          -9.4075  -20.2307   18.9076 C.3     1  UNL1        0.0899
     23 N          -9.1652  -19.1505   19.9198 N.3     1  UNL1       -0.2667
     24 C         -10.3239  -18.4059   20.5139 C.3     1  UNL1        0.0978
     25 C         -11.0412  -17.3660   19.7052 C.3     1  UNL1        0.0224
     26 C         -12.1998  -16.6213   20.2993 C.3     1  UNL1        0.0065
     27 C         -12.6412  -16.9166   21.7022 C.3     1  UNL1        0.0277
     28 C         -11.9239  -17.9565   22.5110 C.ar    1  UNL1       -0.0073
     29 C         -12.3652  -18.2517   23.9138 C.ar    1  UNL1       -0.0015
     30 C         -11.6479  -19.2916   24.7225 C.ar    1  UNL1        0.0203
     31 C         -10.4893  -20.0363   24.1284 C.ar    1  UNL1        0.0985
     32 N         -10.0479  -19.7410   22.7255 N.ar    1  UNL1       -0.2471
     33 C         -10.7652  -18.7012   21.9168 C.ar    1  UNL1        0.0695
@<TRIPOS>BOND
     1    22    23    1
     2    23    21    1
     3     1    21    1
     4     1     2    1
     5     2     3    1
     6     3     4   ar
     7     4     5   ar
     8     5     6   ar
     9     6     7   ar
    10     7     8   ar
    11     8    12    1
    12    12    14    1
    13    14    15    1
    14    15    16    1
    15    16    17    1
    16    17    18    1
    17    18    19    1
    18     4     9    1
    19     9    10    1
    20    24    23    1
    21    24    25    1
    22    25    26    1
    23    26    27    1
    24    27    28    1
    25    28    29   ar
    26    29    30   ar
    27    30    31   ar
    28    31    32   ar
    29    32    33   ar
    30    10     1    1
    31    33    24    1
    32     8     3   ar
    33    19    14    1
    34    33    28   ar
    35    12    13    1
    36    17    20    1
    37    10    11    1
@<TRIPOS>MOLECULE
*****
 33 37 0 0 0
SMALL
GASTEIGER

@<TRIPOS>ATOM
      1 C          -7.1994  -19.5316   21.9320 C.3     1  UNL1        0.0749
      2 C          -6.6382  -18.2150   22.3806 C.3     1  UNL1        0.0444
      3 C          -5.1532  -18.0265   22.4771 C.ar    1  UNL1       -0.0103
      4 C          -4.2295  -19.1546   22.1248 C.ar    1  UNL1       -0.0091
      5 C          -2.7445  -18.9661   22.2213 C.ar    1  UNL1       -0.0032
      6 C          -2.1832  -17.6494   22.6699 C.ar    1  UNL1        0.0010
      7 C          -3.1069  -16.5213   23.0222 C.ar    1  UNL1        0.0140
      8 C          -4.5919  -16.7098   22.9257 C.ar    1  UNL1        0.0403
      9 C          -4.7908  -20.4713   21.6762 C.3     1  UNL1        0.0954
     10 N          -6.2757  -20.6598   21.5797 N.3     1  UNL1       -0.2934
     11 H          -6.5142  -21.4384   22.1940 H       1  UNL1        0.1236
     12 N          -5.5155  -15.5816   23.2780 N.pl3   1  UNL1       -0.3342
     13 H          -5.6304  -14.8271   22.6562 H       1  UNL1        0.1468
     14 C          -6.2642  -15.6031   24.5776 C.3     1  UNL1        0.0718
     15 C          -5.5142  -15.6885   25.8738 C.3     1  UNL1        0.0366
     16 C          -6.2629  -15.7100   27.1735 C.3     1  UNL1        0.0703
     17 N          -7.7615  -15.6461   27.1769 N.3     1  UNL1       -0.2974
     18 C          -8.5115  -15.5608   25.8807 C.3     1  UNL1        0.0703
     19 C          -7.7628  -15.5393   24.5810 C.3     1  UNL1        0.0366
     20 H          -8.0199  -14.8232   27.7213 H       1  UNL1        0.1232
     21 C          -8.6845  -19.7202   21.8355 C.3     1  UNL1        0.0886
     22 C          -9.0351  -19.6427   19.2624 C.3     1  UNL1        0.0899
     23 N          -9.4301  -19.2032   20.6411 N.3     1  UNL1       -0.2667
     24 C         -10.5708  -18.2467   20.8254 C.3     1  UNL1        0.0978
     25 C         -10.8848  -17.2396   19.7590 C.3     1  UNL1        0.0224
     26 C         -12.0255  -16.2831   19.9433 C.3     1  UNL1        0.0065
     27 C         -12.8521  -16.3336   21.1939 C.3     1  UNL1        0.0277
     28 C         -12.5380  -17.3407   22.2604 C.ar    1  UNL1       -0.0073
     29 C         -13.3646  -17.3911   23.5111 C.ar    1  UNL1       -0.0015
     30 C         -13.0505  -18.3982   24.5774 C.ar    1  UNL1        0.0203
     31 C         -11.9099  -19.3547   24.3932 C.ar    1  UNL1        0.0985
     32 N         -11.0833  -19.3042   23.1425 N.ar    1  UNL1       -0.2471
     33 C         -11.3974  -18.2972   22.0761 C.ar    1  UNL1        0.0695
@<TRIPOS>BOND
     1    22    23    1
     2    23    21    1
     3     1    21    1
     4     1     2    1
     5     2     3    1
     6     3     4   ar
     7     4     5   ar
     8     5     6   ar
     9     6     7   ar
    10     7     8   ar
    11     8    12    1
    12    12    14    1
    13    14    15    1
    14    15    16    1
    15    16    17    1
    16    17    18    1
    17    18    19    1
    18     4     9    1
    19     9    10    1
    20    24    23    1
    21    24    25    1
    22    25    26    1
    23    26    27    1
    24    27    28    1
    25    28    29   ar
    26    29    30   ar
    27    30    31   ar
    28    31    32   ar
    29    32    33   ar
    30    10     1    1
    31    33    24    1
    32     8     3   ar
    33    19    14    1
    34    33    28   ar
    35    12    13    1
    36    17    20    1
    37    10    11    1
@<TRIPOS>MOLECULE
*****
 33 37 0 0 0
SMALL
GASTEIGER

@<TRIPOS>ATOM
      1 C          -7.3568  -19.5475   21.9434 C.3     1  UNL1        0.0749
      2 C          -6.8096  -18.2282   22.4015 C.3     1  UNL1        0.0444
      3 C          -5.3275  -18.0332   22.5250 C.ar    1  UNL1       -0.0103
      4 C          -4.3926  -19.1574   22.1904 C.ar    1  UNL1       -0.0091
      5 C          -2.9104  -18.9624   22.3139 C.ar    1  UNL1       -0.0032
      6 C          -2.3632  -17.6431   22.7720 C.ar    1  UNL1        0.0010
      7 C          -3.2980  -16.5188   23.1067 C.ar    1  UNL1        0.0140
      8 C          -4.7801  -16.7138   22.9832 C.ar    1  UNL1        0.0403
      9 C          -4.9398  -20.4767   21.7322 C.3     1  UNL1        0.0954
     10 N          -6.4219  -20.6717   21.6087 N.3     1  UNL1       -0.2934
     11 H          -6.6682  -21.4510   22.2190 H       1  UNL1        0.1236
     12 N          -5.7150  -15.5895   23.3179 N.pl3   1  UNL1       -0.3342
     13 H          -5.8572  -14.8591   22.6733 H       1  UNL1        0.1468
     14 C          -6.4332  -15.5781   24.6347 C.3     1  UNL1        0.0718
     15 C          -7.9326  -15.5524   24.6710 C.3     1  UNL1        0.0366
     16 C          -8.6508  -15.5410   25.9879 C.3     1  UNL1        0.0703
     17 N          -7.8696  -15.5552   27.2684 N.3     1  UNL1       -0.2974
     18 C          -6.3703  -15.5808   27.2320 C.3     1  UNL1        0.0703
     19 C          -5.6521  -15.5922   25.9152 C.3     1  UNL1        0.0366
     20 H          -8.1658  -16.3834   27.7848 H       1  UNL1        0.1232
     21 C          -8.8390  -19.7425   21.8199 C.3     1  UNL1        0.0886
     22 C          -9.2794  -20.7994   24.1521 C.3     1  UNL1        0.0899
     23 N          -9.6849  -19.8629   23.0527 N.3     1  UNL1       -0.2667
     24 C         -10.9363  -19.0467   23.1862 C.3     1  UNL1        0.0978
     25 C         -11.8092  -19.2046   24.3958 C.3     1  UNL1        0.0224
     26 C         -13.0607  -18.3884   24.5292 C.3     1  UNL1        0.0065
     27 C         -13.4392  -17.4145   23.4532 C.3     1  UNL1        0.0277
     28 C         -12.5664  -17.2566   22.2435 C.ar    1  UNL1       -0.0073
     29 C         -12.9449  -16.2826   21.1674 C.ar    1  UNL1       -0.0015
     30 C         -12.0721  -16.1248   19.9578 C.ar    1  UNL1        0.0203
     31 C         -10.8206  -16.9409   19.8243 C.ar    1  UNL1        0.0985
     32 N         -10.4420  -17.9149   20.9004 N.ar    1  UNL1       -0.2471
     33 C         -11.3149  -18.0727   22.1100 C.ar    1  UNL1        0.0695
@<TRIPOS>BOND
     1    22    23    1
     2    23    21    1
     3     1    21    1
     4     1     2    1
     5     2     3    1
     6     3     4   ar
     7     4     5   ar
     8     5     6   ar
     9     6     7   ar
    10     7     8   ar
    11     8    12    1
    12    12    14    1
    13    14    15    1
    14    15    16    1
    15    16    17    1
    16    17    18    1
    17    18    19    1
    18     4     9    1
    19     9    10    1
    20    24    23    1
    21    24    25    1
    22    25    26    1
    23    26    27    1
    24    27    28    1
    25    28    29   ar
    26    29    30   ar
    27    30    31   ar
    28    31    32   ar
    29    32    33   ar
    30    10     1    1
    31    33    24    1
    32     8     3   ar
    33    19    14    1
    34    33    28   ar
    35    12    13    1
    36    17    20    1
    37    10    11    1
@<TRIPOS>MOLECULE
*****
 33 37 0 0 0
SMALL
GASTEIGER

@<TRIPOS>ATOM
      1 C          -5.8954  -19.7610   21.1188 C.3     1  UNL1        0.0749
      2 C          -5.1484  -18.9536   22.1386 C.3     1  UNL1        0.0444
      3 C          -3.8782  -18.2530   21.7565 C.ar    1  UNL1       -0.0103
      4 C          -3.3551  -18.3599   20.3548 C.ar    1  UNL1       -0.0091
      5 C          -2.0850  -17.6593   19.9728 C.ar    1  UNL1       -0.0032
      6 C          -1.3380  -16.8518   20.9925 C.ar    1  UNL1        0.0010
      7 C          -1.8611  -16.7449   22.3943 C.ar    1  UNL1        0.0140
      8 C          -3.1312  -17.4455   22.7763 C.ar    1  UNL1        0.0403
      9 C          -4.1021  -19.1674   19.3350 C.3     1  UNL1        0.0954
     10 N          -5.3723  -19.8679   19.7170 N.3     1  UNL1       -0.2934
     11 H          -5.2283  -20.8605   19.5314 H       1  UNL1        0.1236
     12 N          -3.6543  -17.3386   24.1781 N.pl3   1  UNL1       -0.3342
     13 H          -3.2495  -17.8760   24.8968 H       1  UNL1        0.1468
     14 C          -4.7940  -16.4129   24.4847 C.3     1  UNL1        0.0718
     15 C          -5.0495  -15.9804   25.8981 C.3     1  UNL1        0.0366
     16 C          -6.1893  -15.0547   26.2048 C.3     1  UNL1        0.0703
     17 N          -7.0735  -14.5614   25.0980 N.3     1  UNL1       -0.2974
     18 C          -6.8180  -14.9939   23.6846 C.3     1  UNL1        0.0703
     19 C          -5.6782  -15.9196   23.3780 C.3     1  UNL1        0.0366
     20 H          -7.0184  -13.5430   25.1088 H       1  UNL1        0.1232
     21 C          -7.1655  -20.4617   21.5008 C.3     1  UNL1        0.0886
     22 C          -8.8118  -19.6838   19.6474 C.3     1  UNL1        0.0899
     23 N          -8.4904  -19.8846   21.0988 N.3     1  UNL1       -0.2667
     24 C          -9.4941  -19.5084   22.1482 C.3     1  UNL1        0.0978
     25 C          -9.5458  -20.2654   23.4421 C.3     1  UNL1        0.0224
     26 C         -10.5495  -19.8891   24.4915 C.3     1  UNL1        0.0065
     27 C         -11.5014  -18.7560   24.2469 C.3     1  UNL1        0.0277
     28 C         -11.4496  -17.9990   22.9529 C.ar    1  UNL1       -0.0073
     29 C         -12.4015  -16.8658   22.7083 C.ar    1  UNL1       -0.0015
     30 C         -12.3497  -16.1089   21.4144 C.ar    1  UNL1        0.0203
     31 C         -11.3461  -16.4851   20.3650 C.ar    1  UNL1        0.0985
     32 N         -10.3942  -17.6183   20.6096 N.ar    1  UNL1       -0.2471
     33 C         -10.4460  -18.3752   21.9036 C.ar    1  UNL1        0.0695
@<TRIPOS>BOND
     1    22    23    1
     2    23    21    1
     3     1    21    1
     4     1     2    1
     5     2     3    1
     6     3     4   ar
     7     4     5   ar
     8     5     6   ar
     9     6     7   ar
    10     7     8   ar
    11     8    12    1
    12    12    14    1
    13    14    15    1
    14    15    16    1
    15    16    17    1
    16    17    18    1
    17    18    19    1
    18     4     9    1
    19     9    10    1
    20    24    23    1
    21    24    25    1
    22    25    26    1
    23    26    27    1
    24    27    28    1
    25    28    29   ar
    26    29    30   ar
    27    30    31   ar
    28    31    32   ar
    29    32    33   ar
    30    10     1    1
    31    33    24    1
    32     8     3   ar
    33    19    14    1
    34    33    28   ar
    35    12    13    1
    36    17    20    1
    37    10    11    1
@<TRIPOS>MOLECULE
*****
 33 37 0 0 0
SMALL
GASTEIGER

@<TRIPOS>ATOM
      1 C          -7.3756  -17.3226   22.3719 C.3     1  UNL1        0.0749
      2 C          -6.0638  -18.0438   22.2768 C.3     1  UNL1        0.0444
      3 C          -5.9193  -19.2193   21.3563 C.ar    1  UNL1       -0.0103
      4 C          -7.0866  -19.6736   20.5310 C.ar    1  UNL1       -0.0091
      5 C          -6.9420  -20.8492   19.6106 C.ar    1  UNL1       -0.0032
      6 C          -5.6302  -21.5704   19.5154 C.ar    1  UNL1        0.0010
      7 C          -4.4629  -21.1160   20.3407 C.ar    1  UNL1        0.0140
      8 C          -4.6075  -19.9405   21.2611 C.ar    1  UNL1        0.0403
      9 C          -8.3983  -18.9525   20.6262 C.3     1  UNL1        0.0954
     10 N          -8.5429  -17.7770   21.5466 N.3     1  UNL1       -0.2934
     11 H          -9.2938  -18.0040   22.1985 H       1  UNL1        0.1236
     12 N          -3.4402  -19.4862   22.0864 N.pl3   1  UNL1       -0.3342
     13 H          -3.3182  -19.8332   22.9996 H       1  UNL1        0.1468
     14 C          -2.4588  -18.5032   21.5203 C.3     1  UNL1        0.0718
     15 C          -1.4868  -18.9376   20.4637 C.3     1  UNL1        0.0366
     16 C          -0.5053  -17.9546   19.8976 C.3     1  UNL1        0.0703
     17 N          -0.4959  -16.5371   20.3882 N.3     1  UNL1       -0.2974
     18 C          -1.4680  -16.1026   21.4448 C.3     1  UNL1        0.0703
     19 C          -2.4494  -17.0857   22.0109 C.3     1  UNL1        0.0366
     20 H          -0.6597  -15.9431   19.5753 H       1  UNL1        0.1232
     21 C          -7.5202  -16.1471   23.2924 C.3     1  UNL1        0.0886
     22 C          -8.5075  -15.1411   25.4749 C.3     1  UNL1        0.0899
     23 N          -8.5452  -16.1733   24.3872 N.3     1  UNL1       -0.2667
     24 C          -9.6080  -17.2318   24.3943 C.3     1  UNL1        0.0978
     25 C          -9.5379  -18.3584   25.3822 C.3     1  UNL1        0.0224
     26 C         -10.6007  -19.4169   25.3893 C.3     1  UNL1        0.0065
     27 C         -11.7336  -19.3488   24.4085 C.3     1  UNL1        0.0277
     28 C         -11.8037  -18.2222   23.4206 C.ar    1  UNL1       -0.0073
     29 C         -12.9366  -18.1542   22.4398 C.ar    1  UNL1       -0.0015
     30 C         -13.0067  -17.0277   21.4520 C.ar    1  UNL1        0.0203
     31 C         -11.9439  -15.9692   21.4448 C.ar    1  UNL1        0.0985
     32 N         -10.8110  -16.0372   22.4256 N.ar    1  UNL1       -0.2471
     33 C         -10.7409  -17.1637   23.4135 C.ar    1  UNL1        0.0695
@<TRIPOS>BOND
     1    22    23    1
     2    23    21    1
     3     1    21    1
     4     1     2    1
     5     2     3    1
     6     3     4   ar
     7     4     5   ar
     8     5     6   ar
     9     6     7   ar
    10     7     8   ar
    11     8    12    1
    12    12    14    1
    13    14    15    1
    14    15    16    1
    15    16    17    1
    16    17    18    1
    17    18    19    1
    18     4     9    1
    19     9    10    1
    20    24    23    1
    21    24    25    1
    22    25    26    1
    23    26    27    1
    24    27    28    1
    25    28    29   ar
    26    29    30   ar
    27    30    31   ar
    28    31    32   ar
    29    32    33   ar
    30    10     1    1
    31    33    24    1
    32     8     3   ar
    33    19    14    1
    34    33    28   ar
    35    12    13    1
    36    17    20    1
    37    10    11    1
