@<TRIPOS>MOLECULE
*****
 38 42 0 0 0
SMALL
GASTEIGER

@<TRIPOS>ATOM
      1 C         -11.9687  -18.8921   23.2091 C.3     1  UNL1        0.0666
      2 S         -11.4419  -19.9180   22.2498 S.3     1  UNL1       -0.0756
      3 C          -7.8818  -19.3157   20.8255 C.ar    1  UNL1        0.1432
      4 N          -8.7260  -19.0662   19.6110 N.ar    1  UNL1       -0.1328
      5 N         -10.1624  -19.2614   19.9967 N.ar    1  UNL1       -0.1224
      6 C         -10.2059  -19.6316   21.4497 C.ar    1  UNL1        0.1930
      7 N          -8.7965  -19.6652   21.9619 N.ar    1  UNL1       -0.2918
      8 C          -8.3756  -19.9910   23.3643 C.3     1  UNL1        0.1337
      9 C          -3.3935  -19.0607   21.0251 C.3     1  UNL1        0.0716
     10 C          -4.0532  -19.8045   19.9019 C.3     1  UNL1        0.0200
     11 C          -5.5493  -19.8895   19.8354 C.3     1  UNL1        0.0092
     12 C          -6.3857  -19.2307   20.8920 C.3     1  UNL1        0.0589
     13 C          -5.7260  -18.4869   22.0152 C.3     1  UNL1        0.0092
     14 C          -4.2298  -18.4019   22.0818 C.3     1  UNL1        0.0200
     15 C           0.3453  -18.0312   20.1815 C.3     1  UNL1        0.0946
     16 C          -1.1509  -18.1161   20.1150 C.2     1  UNL1        0.2229
     17 O          -1.9003  -17.3416   19.0718 O.2     1  UNL1       -0.2751
     18 N          -1.8974  -18.9757   21.0916 N.am    1  UNL1       -0.3060
     19 H          -1.4054  -19.4840   21.7763 H       1  UNL1        0.1494
     20 C         -13.1218  -18.0180   22.8138 C.3     1  UNL1        0.0294
     21 C         -13.1759  -17.4248   21.4371 C.3     1  UNL1        0.0730
     22 N         -12.0441  -16.5741   20.9419 N.3     1  UNL1       -0.2726
     23 C         -11.9346  -15.9589   19.5783 C.3     1  UNL1        0.0721
     24 C         -10.6458  -15.1939   19.5170 C.3     1  UNL1        0.0190
     25 C          -9.9588  -15.3363   20.8428 C.3     1  UNL1        0.0201
     26 C          -8.7613  -14.5052   20.4889 C.3     1  UNL1        0.0061
     27 C          -8.8707  -15.1204   21.8526 C.3     1  UNL1        0.0237
     28 C         -10.8229  -16.1894   21.7234 C.3     1  UNL1        0.0724
     29 C          -8.3058  -15.3510   23.2228 C.ar    1  UNL1       -0.0225
     30 C          -9.2042  -15.7921   24.3401 C.ar    1  UNL1       -0.0043
     31 C          -8.6393  -16.0227   25.7103 C.ar    1  UNL1        0.0035
     32 C          -7.1759  -15.8121   25.9633 C.ar    1  UNL1        0.0714
     33 C          -6.2774  -15.3710   24.8461 C.ar    1  UNL1        0.0035
     34 C          -6.8423  -15.1404   23.4758 C.ar    1  UNL1       -0.0043
     35 C          -6.6109  -16.0427   27.3336 C.3     1  UNL1        0.4186
     36 F          -6.0459  -16.2732   28.7040 F       1  UNL1       -0.1659
     37 F          -5.2222  -15.8974   26.7855 F       1  UNL1       -0.1659
     38 F          -7.9996  -16.1879   27.8817 F       1  UNL1       -0.1659
@<TRIPOS>BOND
     1    15    16    1
     2    16    17    2
     3    16    18   am
     4    18     9    1
     5     9    10    1
     6    10    11    1
     7    11    12    1
     8    12     3    1
     9     3     4   ar
    10     4     5   ar
    11     5     6   ar
    12     6     2    1
    13     2     1    1
    14     1    20    1
    15    20    21    1
    16    21    22    1
    17    22    23    1
    18    23    24    1
    19    25    24    1
    20    25    26    1
    21    26    27    1
    22    27    29    1
    23    29    30   ar
    24    30    31   ar
    25    31    32   ar
    26    32    35    1
    27    35    36    1
    28    35    37    1
    29    35    38    1
    30    32    33   ar
    31    33    34   ar
    32    25    28    1
    33     6     7   ar
    34     7     8    1
    35    12    13    1
    36    13    14    1
    37    14     9    1
    38     7     3   ar
    39    28    22    1
    40    27    25    1
    41    34    29   ar
    42    18    19    1
@<TRIPOS>MOLECULE
*****
 38 42 0 0 0
SMALL
GASTEIGER

@<TRIPOS>ATOM
      1 C           7.9257   -2.1546   19.7968 C.3     1  UNL1        0.0666
      2 S           9.0028   -3.1303   20.1677 S.3     1  UNL1       -0.0756
      3 C           8.2627   -5.3331   23.2767 C.ar    1  UNL1        0.1432
      4 N           8.3438   -6.3721   22.1979 N.ar    1  UNL1       -0.1328
      5 N           8.6309   -5.6735   20.9020 N.ar    1  UNL1       -0.1224
      6 C           8.7273   -4.2026   21.1798 C.ar    1  UNL1        0.1930
      7 N           8.4998   -3.9921   22.6475 N.ar    1  UNL1       -0.2918
      8 C           8.5078   -2.6726   23.3607 C.3     1  UNL1        0.1337
      9 C           7.4509   -6.1032   27.6353 C.3     1  UNL1        0.0716
     10 C           8.6371   -6.7362   26.9701 C.3     1  UNL1        0.0200
     11 C           8.9077   -6.4795   25.5172 C.3     1  UNL1        0.0092
     12 C           7.9922   -5.5898   24.7296 C.3     1  UNL1        0.0589
     13 C           6.8061   -4.9568   25.3948 C.3     1  UNL1        0.0092
     14 C           6.5355   -5.2135   26.8477 C.3     1  UNL1        0.0200
     15 C           7.1698   -5.5412   31.5539 C.3     1  UNL1        0.0946
     16 C           7.4403   -5.2844   30.1010 C.2     1  UNL1        0.2229
     17 O           7.9709   -3.9522   29.6610 O.2     1  UNL1       -0.2751
     18 N           7.1804   -6.3599   29.0882 N.am    1  UNL1       -0.3060
     19 H           6.8322   -7.2343   29.3771 H       1  UNL1        0.1494
     20 C           7.3270   -2.1852   18.4218 C.3     1  UNL1        0.0294
     21 C           6.5640   -0.9998   17.9094 C.3     1  UNL1        0.0730
     22 N           5.1172   -0.8277   18.2662 N.3     1  UNL1       -0.2726
     23 C           3.9994   -0.5488   17.3057 C.3     1  UNL1        0.0721
     24 C           2.7256   -0.4531   18.0921 C.3     1  UNL1        0.0190
     25 C           3.0563   -0.6729   19.5386 C.3     1  UNL1        0.0201
     26 C           1.6521   -0.5247   20.0447 C.3     1  UNL1        0.0061
     27 C           2.7699   -0.8036   21.0052 C.3     1  UNL1        0.0237
     28 C           4.5344   -0.9044   19.6462 C.3     1  UNL1        0.0724
     29 C           3.2500   -1.0402   22.4065 C.ar    1  UNL1       -0.0225
     30 C           4.2217   -2.1473   22.6896 C.ar    1  UNL1       -0.0043
     31 C           4.7018   -2.3839   24.0908 C.ar    1  UNL1        0.0035
     32 C           4.2102   -1.5133   25.2090 C.ar    1  UNL1        0.0714
     33 C           3.2385   -0.4061   24.9259 C.ar    1  UNL1        0.0035
     34 C           2.7584   -0.1696   23.5247 C.ar    1  UNL1       -0.0043
     35 C           4.6903   -1.7498   26.6103 C.3     1  UNL1        0.4186
     36 F           5.1704   -1.9864   28.0116 F       1  UNL1       -0.1659
     37 F           3.2736   -1.7136   27.1017 F       1  UNL1       -0.1659
     38 F           6.1070   -1.7860   26.1188 F       1  UNL1       -0.1659
@<TRIPOS>BOND
     1    15    16    1
     2    16    17    2
     3    16    18   am
     4    18     9    1
     5     9    10    1
     6    10    11    1
     7    11    12    1
     8    12     3    1
     9     3     4   ar
    10     4     5   ar
    11     5     6   ar
    12     6     2    1
    13     2     1    1
    14     1    20    1
    15    20    21    1
    16    21    22    1
    17    22    23    1
    18    23    24    1
    19    25    24    1
    20    25    26    1
    21    26    27    1
    22    27    29    1
    23    29    30   ar
    24    30    31   ar
    25    31    32   ar
    26    32    35    1
    27    35    36    1
    28    35    37    1
    29    35    38    1
    30    32    33   ar
    31    33    34   ar
    32    25    28    1
    33     6     7   ar
    34     7     8    1
    35    12    13    1
    36    13    14    1
    37    14     9    1
    38     7     3   ar
    39    28    22    1
    40    27    25    1
    41    34    29   ar
    42    18    19    1
@<TRIPOS>MOLECULE
*****
 38 42 0 0 0
SMALL
GASTEIGER

@<TRIPOS>ATOM
      1 C           8.1867   -4.8836   26.9839 C.3     1  UNL1        0.0666
      2 S           7.0021   -5.3739   27.7624 S.3     1  UNL1       -0.0756
      3 C           6.5290   -3.8593   31.3047 C.ar    1  UNL1        0.1432
      4 N           6.8652   -5.2822   31.6403 N.ar    1  UNL1       -0.1328
      5 N           7.0833   -6.0227   30.3542 N.ar    1  UNL1       -0.1224
      6 C           6.8819   -5.0575   29.2237 C.ar    1  UNL1        0.1930
      7 N           6.5394   -3.7205   29.8111 N.ar    1  UNL1       -0.2918
      8 C           6.2569   -2.4651   29.0403 C.3     1  UNL1        0.1337
      9 C           5.6449   -0.5827   34.2596 C.3     1  UNL1        0.0716
     10 C           4.5627   -1.5391   33.8543 C.3     1  UNL1        0.0200
     11 C           4.8575   -2.6313   32.8693 C.3     1  UNL1        0.0092
     12 C           6.2343   -2.7671   32.2897 C.3     1  UNL1        0.0589
     13 C           7.3164   -1.8107   32.6951 C.3     1  UNL1        0.0092
     14 C           7.0218   -0.7185   33.6801 C.3     1  UNL1        0.0200
     15 C           5.6162    1.5301   37.6190 C.3     1  UNL1        0.0946
     16 C           5.9109    0.4379   36.6340 C.2     1  UNL1        0.2229
     17 O           6.7664   -0.7259   37.0385 O.2     1  UNL1       -0.2751
     18 N           5.3502    0.5096   35.2446 N.am    1  UNL1       -0.3060
     19 H           4.7887    1.2734   34.9792 H       1  UNL1        0.1494
     20 C           7.9848   -4.0057   25.7845 C.3     1  UNL1        0.0294
     21 C           7.0138   -4.4090   24.7146 C.3     1  UNL1        0.0730
     22 N           5.9367   -3.4588   24.2824 N.3     1  UNL1       -0.2726
     23 C           5.3550   -3.3533   22.9038 C.3     1  UNL1        0.0721
     24 C           4.3109   -2.2766   22.9224 C.3     1  UNL1        0.0190
     25 C           4.2473   -1.7165   24.3125 C.3     1  UNL1        0.0201
     26 C           3.1694   -0.7129   24.0280 C.3     1  UNL1        0.0061
     27 C           3.7510   -0.8184   25.4066 C.3     1  UNL1        0.0237
     28 C           5.2520   -2.4471   25.1530 C.3     1  UNL1        0.0724
     29 C           3.8003   -0.3607   26.8342 C.ar    1  UNL1       -0.0225
     30 C           4.8236    0.6486   27.2633 C.ar    1  UNL1       -0.0043
     31 C           4.8729    1.1063   28.6910 C.ar    1  UNL1        0.0035
     32 C           3.8989    0.5546   29.6894 C.ar    1  UNL1        0.0714
     33 C           2.8756   -0.4547   29.2603 C.ar    1  UNL1        0.0035
     34 C           2.8263   -0.9124   27.8327 C.ar    1  UNL1       -0.0043
     35 C           3.9482    1.0122   31.1170 C.3     1  UNL1        0.4186
     36 F           3.9975    1.4699   32.5447 F       1  UNL1       -0.1659
     37 F           2.4546    1.1510   31.1241 F       1  UNL1       -0.1659
     38 F           5.4417    0.8735   31.1099 F       1  UNL1       -0.1659
@<TRIPOS>BOND
     1    15    16    1
     2    16    17    2
     3    16    18   am
     4    18     9    1
     5     9    10    1
     6    10    11    1
     7    11    12    1
     8    12     3    1
     9     3     4   ar
    10     4     5   ar
    11     5     6   ar
    12     6     2    1
    13     2     1    1
    14     1    20    1
    15    20    21    1
    16    21    22    1
    17    22    23    1
    18    23    24    1
    19    25    24    1
    20    25    26    1
    21    26    27    1
    22    27    29    1
    23    29    30   ar
    24    30    31   ar
    25    31    32   ar
    26    32    35    1
    27    35    36    1
    28    35    37    1
    29    35    38    1
    30    32    33   ar
    31    33    34   ar
    32    25    28    1
    33     6     7   ar
    34     7     8    1
    35    12    13    1
    36    13    14    1
    37    14     9    1
    38     7     3   ar
    39    28    22    1
    40    27    25    1
    41    34    29   ar
    42    18    19    1
@<TRIPOS>MOLECULE
*****
 38 42 0 0 0
SMALL
GASTEIGER

@<TRIPOS>ATOM
      1 C           0.5259    3.3403   24.8634 C.3     1  UNL1        0.0666
      2 S           1.9253    3.6481   24.4197 S.3     1  UNL1       -0.0756
      3 C           3.9426    0.7262   22.8517 C.ar    1  UNL1        0.1432
      4 N           3.7087    1.5943   21.6509 N.ar    1  UNL1       -0.1328
      5 N           2.9246    2.7944   22.0921 N.ar    1  UNL1       -0.1224
      6 C           2.6738    2.6682   23.5656 C.ar    1  UNL1        0.1930
      7 N           3.3029    1.3900   24.0351 N.ar    1  UNL1       -0.2918
      8 C           3.2940    0.8673   25.4410 C.3     1  UNL1        0.1337
      9 C           6.1715   -3.1827   22.8961 C.3     1  UNL1        0.0716
     10 C           6.9146   -1.8981   22.6775 C.3     1  UNL1        0.0200
     11 C           6.1716   -0.5951   22.6627 C.3     1  UNL1        0.0092
     12 C           4.6856   -0.5768   22.8665 C.3     1  UNL1        0.0589
     13 C           3.9426   -1.8613   23.0851 C.3     1  UNL1        0.0092
     14 C           4.6856   -3.1643   23.0999 C.3     1  UNL1        0.0200
     15 C           8.0358   -6.4216   24.2320 C.3     1  UNL1        0.0946
     16 C           7.2928   -5.1186   24.2172 C.2     1  UNL1        0.2229
     17 O           6.9280   -4.4486   25.5087 O.2     1  UNL1       -0.2751
     18 N           6.9146   -4.4857   22.9109 N.am    1  UNL1       -0.3060
     19 H           7.1540   -4.9254   22.0632 H       1  UNL1        0.1494
     20 C          -0.4409    2.7046   23.9088 C.3     1  UNL1        0.0294
     21 C          -1.3692    3.5613   23.0998 C.3     1  UNL1        0.0730
     22 N          -1.2053    3.6463   21.6112 N.3     1  UNL1       -0.2726
     23 C          -1.8799    4.6330   20.7049 C.3     1  UNL1        0.0721
     24 C          -1.4296    4.3560   19.3011 C.3     1  UNL1        0.0190
     25 C          -0.4767    3.1982   19.3399 C.3     1  UNL1        0.0201
     26 C          -0.2141    3.1617   17.8635 C.3     1  UNL1        0.0061
     27 C           0.4605    2.1751   18.7698 C.3     1  UNL1        0.0237
     28 C          -0.3381    2.7596   20.7676 C.3     1  UNL1        0.0724
     29 C           1.3910    1.0147   18.9640 C.ar    1  UNL1       -0.0225
     30 C           1.0129   -0.1031   19.8901 C.ar    1  UNL1       -0.0043
     31 C           1.9434   -1.2634   20.0842 C.ar    1  UNL1        0.0035
     32 C           3.2520   -1.3059   19.3523 C.ar    1  UNL1        0.0714
     33 C           3.6301   -0.1881   18.4262 C.ar    1  UNL1        0.0035
     34 C           2.6996    0.9722   18.2321 C.ar    1  UNL1       -0.0043
     35 C           4.1825   -2.4663   19.5464 C.3     1  UNL1        0.4186
     36 F           5.1131   -3.6267   19.7406 F       1  UNL1       -0.1659
     37 F           5.3444   -1.5210   19.6274 F       1  UNL1       -0.1659
     38 F           3.0207   -3.4115   19.4655 F       1  UNL1       -0.1659
@<TRIPOS>BOND
     1    15    16    1
     2    16    17    2
     3    16    18   am
     4    18     9    1
     5     9    10    1
     6    10    11    1
     7    11    12    1
     8    12     3    1
     9     3     4   ar
    10     4     5   ar
    11     5     6   ar
    12     6     2    1
    13     2     1    1
    14     1    20    1
    15    20    21    1
    16    21    22    1
    17    22    23    1
    18    23    24    1
    19    25    24    1
    20    25    26    1
    21    26    27    1
    22    27    29    1
    23    29    30   ar
    24    30    31   ar
    25    31    32   ar
    26    32    35    1
    27    35    36    1
    28    35    37    1
    29    35    38    1
    30    32    33   ar
    31    33    34   ar
    32    25    28    1
    33     6     7   ar
    34     7     8    1
    35    12    13    1
    36    13    14    1
    37    14     9    1
    38     7     3   ar
    39    28    22    1
    40    27    25    1
    41    34    29   ar
    42    18    19    1
@<TRIPOS>MOLECULE
*****
 38 42 0 0 0
SMALL
GASTEIGER

@<TRIPOS>ATOM
      1 C           7.0630   -2.8098   24.2561 C.3     1  UNL1        0.0666
      2 S           5.7880   -3.5267   23.9241 S.3     1  UNL1       -0.0756
      3 C           3.7799   -2.1427   20.9044 C.ar    1  UNL1        0.1432
      4 N           4.2200   -3.4750   20.3739 N.ar    1  UNL1       -0.1328
      5 N           5.0257   -4.1556   21.4405 N.ar    1  UNL1       -0.1224
      6 C           5.0837   -3.2440   22.6302 C.ar    1  UNL1        0.1930
      7 N           4.3138   -2.0000   22.2990 N.ar    1  UNL1       -0.2918
      8 C           4.1129   -0.8203   23.2035 C.3     1  UNL1        0.1337
      9 C           1.2947    0.8925   18.6998 C.3     1  UNL1        0.0716
     10 C           2.7043    0.6193   18.2655 C.3     1  UNL1        0.0200
     11 C           3.5327   -0.3925   19.0004 C.3     1  UNL1        0.0092
     12 C           2.9515   -1.1310   20.1695 C.3     1  UNL1        0.0589
     13 C           1.5421   -0.8577   20.6038 C.3     1  UNL1        0.0092
     14 C           0.7136    0.1541   19.8690 C.3     1  UNL1        0.0200
     15 C          -0.2850    4.3656   17.6080 C.3     1  UNL1        0.0946
     16 C           0.5434    3.3539   18.3429 C.2     1  UNL1        0.2229
     17 O           1.4488    3.7917   19.4557 O.2     1  UNL1       -0.2751
     18 N           0.4663    1.9043   17.9649 N.am    1  UNL1       -0.3060
     19 H          -0.1279    1.6170   17.2345 H       1  UNL1        0.1494
     20 C           7.5626   -2.7842   25.6703 C.3     1  UNL1        0.0294
     21 C           6.5893   -2.8298   26.8107 C.3     1  UNL1        0.0730
     22 N           6.7901   -3.8087   27.9294 N.3     1  UNL1       -0.2726
     23 C           7.1606   -5.2545   27.7799 C.3     1  UNL1        0.0721
     24 C           7.2551   -5.8530   29.1521 C.3     1  UNL1        0.0190
     25 C           6.9429   -4.7770   30.1496 C.3     1  UNL1        0.0201
     26 C           7.1100   -5.6381   31.3664 C.3     1  UNL1        0.0061
     27 C           6.7394   -4.1922   31.5159 C.3     1  UNL1        0.0237
     28 C           6.6555   -3.5136   29.3939 C.3     1  UNL1        0.0724
     29 C           6.4081   -3.0199   32.3909 C.ar    1  UNL1       -0.0225
     30 C           7.4732   -2.0260   32.7483 C.ar    1  UNL1       -0.0043
     31 C           7.1418   -0.8536   33.6234 C.ar    1  UNL1        0.0035
     32 C           5.7453   -0.6752   34.1410 C.ar    1  UNL1        0.0714
     33 C           4.6802   -1.6691   33.7836 C.ar    1  UNL1        0.0035
     34 C           5.0116   -2.8415   32.9085 C.ar    1  UNL1       -0.0043
     35 C           5.4139    0.4972   35.0161 C.3     1  UNL1        0.4186
     36 F           5.0825    1.6696   35.8912 F       1  UNL1       -0.1659
     37 F           5.1493    1.3316   33.7980 F       1  UNL1       -0.1659
     38 F           5.6784   -0.3372   36.2341 F       1  UNL1       -0.1659
@<TRIPOS>BOND
     1    15    16    1
     2    16    17    2
     3    16    18   am
     4    18     9    1
     5     9    10    1
     6    10    11    1
     7    11    12    1
     8    12     3    1
     9     3     4   ar
    10     4     5   ar
    11     5     6   ar
    12     6     2    1
    13     2     1    1
    14     1    20    1
    15    20    21    1
    16    21    22    1
    17    22    23    1
    18    23    24    1
    19    25    24    1
    20    25    26    1
    21    26    27    1
    22    27    29    1
    23    29    30   ar
    24    30    31   ar
    25    31    32   ar
    26    32    35    1
    27    35    36    1
    28    35    37    1
    29    35    38    1
    30    32    33   ar
    31    33    34   ar
    32    25    28    1
    33     6     7   ar
    34     7     8    1
    35    12    13    1
    36    13    14    1
    37    14     9    1
    38     7     3   ar
    39    28    22    1
    40    27    25    1
    41    34    29   ar
    42    18    19    1
@<TRIPOS>MOLECULE
*****
 38 42 0 0 0
SMALL
GASTEIGER

@<TRIPOS>ATOM
      1 C           6.7340   -5.9701   27.3229 C.3     1  UNL1        0.0666
      2 S           7.7536   -5.7083   28.3915 S.3     1  UNL1       -0.0756
      3 C           6.5687   -3.9841   31.6609 C.ar    1  UNL1        0.1432
      4 N           6.6934   -5.4088   32.1133 N.ar    1  UNL1       -0.1328
      5 N           7.1524   -6.2281   30.9437 N.ar    1  UNL1       -0.1224
      6 C           7.3114   -5.3097   29.7684 C.ar    1  UNL1        0.1930
      7 N           6.9507   -3.9229   30.2116 N.ar    1  UNL1       -0.2918
      8 C           6.9688   -2.6911   29.3558 C.3     1  UNL1        0.1337
      9 C           5.2760   -0.5045   34.2048 C.3     1  UNL1        0.0716
     10 C           4.3219   -1.6294   33.9319 C.3     1  UNL1        0.0200
     11 C           4.7528   -2.7893   33.0840 C.3     1  UNL1        0.0092
     12 C           6.1378   -2.8242   32.5089 C.3     1  UNL1        0.0589
     13 C           7.0918   -1.6994   32.7818 C.3     1  UNL1        0.0092
     14 C           6.6609   -0.5395   33.6298 C.3     1  UNL1        0.0200
     15 C           4.8016    1.8705   37.3488 C.3     1  UNL1        0.0946
     16 C           5.2326    0.7106   36.5008 C.2     1  UNL1        0.2229
     17 O           6.0511   -0.3938   37.1009 O.2     1  UNL1       -0.2751
     18 N           4.8450    0.6553   35.0528 N.am    1  UNL1       -0.3060
     19 H           4.3078    1.3802   34.6590 H       1  UNL1        0.1494
     20 C           7.1192   -5.8653   25.8770 C.3     1  UNL1        0.0294
     21 C           6.8318   -4.6065   25.1135 C.3     1  UNL1        0.0730
     22 N           7.4791   -4.3735   23.7806 N.3     1  UNL1       -0.2726
     23 C           8.8540   -4.8183   23.3782 C.3     1  UNL1        0.0721
     24 C           9.0896   -4.3744   21.9649 C.3     1  UNL1        0.0190
     25 C           7.8605   -3.6553   21.4938 C.3     1  UNL1        0.0201
     26 C           8.3757   -3.3483   20.1189 C.3     1  UNL1        0.0061
     27 C           7.0008   -2.9035   20.5213 C.3     1  UNL1        0.0237
     28 C           6.8651   -3.6547   22.6160 C.3     1  UNL1        0.0724
     29 C           5.7107   -2.2126   20.1921 C.ar    1  UNL1       -0.0225
     30 C           4.4551   -3.0137   20.0142 C.ar    1  UNL1       -0.0043
     31 C           3.1650   -2.3229   19.6851 C.ar    1  UNL1        0.0035
     32 C           3.1306   -0.8310   19.5337 C.ar    1  UNL1        0.0714
     33 C           4.3862   -0.0299   19.7115 C.ar    1  UNL1        0.0035
     34 C           5.6763   -0.7207   20.0407 C.ar    1  UNL1       -0.0043
     35 C           1.8405   -0.1401   19.2045 C.3     1  UNL1        0.4186
     36 F           0.5503    0.5507   18.8753 F       1  UNL1       -0.1659
     37 F           2.5690    0.7712   18.2619 F       1  UNL1       -0.1659
     38 F           1.1119   -1.0515   20.1471 F       1  UNL1       -0.1659
@<TRIPOS>BOND
     1    15    16    1
     2    16    17    2
     3    16    18   am
     4    18     9    1
     5     9    10    1
     6    10    11    1
     7    11    12    1
     8    12     3    1
     9     3     4   ar
    10     4     5   ar
    11     5     6   ar
    12     6     2    1
    13     2     1    1
    14     1    20    1
    15    20    21    1
    16    21    22    1
    17    22    23    1
    18    23    24    1
    19    25    24    1
    20    25    26    1
    21    26    27    1
    22    27    29    1
    23    29    30   ar
    24    30    31   ar
    25    31    32   ar
    26    32    35    1
    27    35    36    1
    28    35    37    1
    29    35    38    1
    30    32    33   ar
    31    33    34   ar
    32    25    28    1
    33     6     7   ar
    34     7     8    1
    35    12    13    1
    36    13    14    1
    37    14     9    1
    38     7     3   ar
    39    28    22    1
    40    27    25    1
    41    34    29   ar
    42    18    19    1
@<TRIPOS>MOLECULE
*****
 38 42 0 0 0
SMALL
GASTEIGER

@<TRIPOS>ATOM
      1 C           0.7464    5.2059   19.5089 C.3     1  UNL1        0.0666
      2 S           1.4780    4.4506   18.4392 S.3     1  UNL1       -0.0756
      3 C           2.3760    0.6922   18.8053 C.ar    1  UNL1        0.1432
      4 N           0.9481    0.6065   18.3538 N.ar    1  UNL1       -0.1328
      5 N           0.4380    2.0039   18.1617 N.ar    1  UNL1       -0.1224
      6 C           1.5506    2.9533   18.4945 C.ar    1  UNL1        0.1930
      7 N           2.7483    2.1427   18.8922 N.ar    1  UNL1       -0.2918
      8 C           4.0839    2.6870   19.3046 C.3     1  UNL1        0.1337
      9 C           5.0698   -2.7904   19.7354 C.3     1  UNL1        0.0716
     10 C           3.9852   -2.4035   20.6967 C.3     1  UNL1        0.0200
     11 C           3.0873   -1.2426   20.3866 C.3     1  UNL1        0.0092
     12 C           3.2739   -0.4687   19.1153 C.3     1  UNL1        0.0589
     13 C           4.3585   -0.8556   18.1541 C.3     1  UNL1        0.0092
     14 C           5.2564   -2.0165   18.4641 C.3     1  UNL1        0.0200
     15 C           8.1854   -4.8804   21.0296 C.3     1  UNL1        0.0946
     16 C           7.2875   -3.7195   20.7195 C.2     1  UNL1        0.2229
     17 O           7.7094   -2.3269   21.0836 O.2     1  UNL1       -0.2751
     18 N           5.9677   -3.9513   20.0454 N.am    1  UNL1       -0.3060
     19 H           5.6908   -4.8653   19.8065 H       1  UNL1        0.1494
     20 C          -0.6776    5.6241   19.2912 C.3     1  UNL1        0.0294
     21 C          -1.3526    5.3357   17.9831 C.3     1  UNL1        0.0730
     22 N          -2.7127    4.7035   17.9643 N.3     1  UNL1       -0.2726
     23 C          -3.4297    4.1903   16.7508 C.3     1  UNL1        0.0721
     24 C          -4.7548    3.6433   17.1922 C.3     1  UNL1        0.0190
     25 C          -4.8568    3.8184   18.6785 C.3     1  UNL1        0.0201
     26 C          -6.2201    3.2080   18.8151 C.3     1  UNL1        0.0061
     27 C          -5.5031    3.7212   20.0286 C.3     1  UNL1        0.0237
     28 C          -3.5947    4.4737   19.1556 C.3     1  UNL1        0.0724
     29 C          -5.4623    3.9615   21.5086 C.ar    1  UNL1       -0.0225
     30 C          -4.8029    2.9625   22.4127 C.ar    1  UNL1       -0.0043
     31 C          -4.7621    3.2027   23.8928 C.ar    1  UNL1        0.0035
     32 C          -5.3807    4.4419   24.4688 C.ar    1  UNL1        0.0714
     33 C          -6.0401    5.4408   23.5647 C.ar    1  UNL1        0.0035
     34 C          -6.0809    5.2006   22.0846 C.ar    1  UNL1       -0.0043
     35 C          -5.3399    4.6821   25.9488 C.3     1  UNL1        0.4186
     36 F          -5.2991    4.9223   27.4290 F       1  UNL1       -0.1659
     37 F          -6.2759    5.8429   25.7862 F       1  UNL1       -0.1659
     38 F          -4.4039    3.5213   26.1114 F       1  UNL1       -0.1659
@<TRIPOS>BOND
     1    15    16    1
     2    16    17    2
     3    16    18   am
     4    18     9    1
     5     9    10    1
     6    10    11    1
     7    11    12    1
     8    12     3    1
     9     3     4   ar
    10     4     5   ar
    11     5     6   ar
    12     6     2    1
    13     2     1    1
    14     1    20    1
    15    20    21    1
    16    21    22    1
    17    22    23    1
    18    23    24    1
    19    25    24    1
    20    25    26    1
    21    26    27    1
    22    27    29    1
    23    29    30   ar
    24    30    31   ar
    25    31    32   ar
    26    32    35    1
    27    35    36    1
    28    35    37    1
    29    35    38    1
    30    32    33   ar
    31    33    34   ar
    32    25    28    1
    33     6     7   ar
    34     7     8    1
    35    12    13    1
    36    13    14    1
    37    14     9    1
    38     7     3   ar
    39    28    22    1
    40    27    25    1
    41    34    29   ar
    42    18    19    1
@<TRIPOS>MOLECULE
*****
 38 42 0 0 0
SMALL
GASTEIGER

@<TRIPOS>ATOM
      1 C           7.3206    3.2576   17.7682 C.3     1  UNL1        0.0666
      2 S           7.8318    2.0556   17.0307 S.3     1  UNL1       -0.0756
      3 C           7.1645   -1.3070   18.8511 C.ar    1  UNL1        0.1432
      4 N           6.5472   -1.5755   17.5106 N.ar    1  UNL1       -0.1328
      5 N           6.7221   -0.3486   16.6655 N.ar    1  UNL1       -0.1224
      6 C           7.4474    0.6783   17.4837 C.ar    1  UNL1        0.1930
      7 N           7.7209    0.0860   18.8344 N.ar    1  UNL1       -0.2918
      8 C           8.4268    0.7671   19.9693 C.3     1  UNL1        0.1337
      9 C           7.3199   -4.1762   22.3141 C.3     1  UNL1        0.0716
     10 C           8.5824   -3.7937   21.5999 C.3     1  UNL1        0.0200
     11 C           8.5305   -2.8373   20.4455 C.3     1  UNL1        0.0092
     12 C           7.2164   -2.2634   20.0054 C.3     1  UNL1        0.0589
     13 C           5.9540   -2.6459   20.7196 C.3     1  UNL1        0.0092
     14 C           6.0058   -3.6024   21.8740 C.3     1  UNL1        0.0200
     15 C           7.2968   -5.5774   26.0271 C.3     1  UNL1        0.0946
     16 C           7.2450   -4.6209   24.8727 C.2     1  UNL1        0.2229
     17 O           7.0663   -3.1528   25.1227 O.2     1  UNL1       -0.2751
     18 N           7.3718   -5.1327   23.4685 N.am    1  UNL1       -0.3060
     19 H           7.4891   -6.0963   23.3044 H       1  UNL1        0.1494
     20 C           5.8454    3.4448   17.9659 C.3     1  UNL1        0.0294
     21 C           5.1963    2.9938   19.2406 C.3     1  UNL1        0.0730
     22 N           4.3846    1.7325   19.2636 N.3     1  UNL1       -0.2726
     23 C           3.8832    0.9848   18.0638 C.3     1  UNL1        0.0721
     24 C           3.1206   -0.2122   18.5490 C.3     1  UNL1        0.0190
     25 C           3.1507   -0.2043   20.0487 C.3     1  UNL1        0.0201
     26 C           2.3466   -1.4578   20.2283 C.3     1  UNL1        0.0061
     27 C           2.8480   -0.7100   21.4281 C.3     1  UNL1        0.0237
     28 C           3.9319    0.9977   20.4903 C.3     1  UNL1        0.0724
     29 C           2.9627   -0.5703   22.9171 C.ar    1  UNL1       -0.0225
     30 C           2.1378    0.4528   23.6402 C.ar    1  UNL1       -0.0043
     31 C           2.2525    0.5925   25.1293 C.ar    1  UNL1        0.0035
     32 C           3.1922   -0.2908   25.8952 C.ar    1  UNL1        0.0714
     33 C           4.0171   -1.3139   25.1722 C.ar    1  UNL1        0.0035
     34 C           3.9024   -1.4537   23.6831 C.ar    1  UNL1       -0.0043
     35 C           3.3069   -0.1511   27.3843 C.3     1  UNL1        0.4186
     36 F           3.4216   -0.0113   28.8734 F       1  UNL1       -0.1659
     37 F           3.4878   -1.6348   27.5096 F       1  UNL1       -0.1659
     38 F           3.1260    1.3327   27.2590 F       1  UNL1       -0.1659
@<TRIPOS>BOND
     1    15    16    1
     2    16    17    2
     3    16    18   am
     4    18     9    1
     5     9    10    1
     6    10    11    1
     7    11    12    1
     8    12     3    1
     9     3     4   ar
    10     4     5   ar
    11     5     6   ar
    12     6     2    1
    13     2     1    1
    14     1    20    1
    15    20    21    1
    16    21    22    1
    17    22    23    1
    18    23    24    1
    19    25    24    1
    20    25    26    1
    21    26    27    1
    22    27    29    1
    23    29    30   ar
    24    30    31   ar
    25    31    32   ar
    26    32    35    1
    27    35    36    1
    28    35    37    1
    29    35    38    1
    30    32    33   ar
    31    33    34   ar
    32    25    28    1
    33     6     7   ar
    34     7     8    1
    35    12    13    1
    36    13    14    1
    37    14     9    1
    38     7     3   ar
    39    28    22    1
    40    27    25    1
    41    34    29   ar
    42    18    19    1
@<TRIPOS>MOLECULE
*****
 38 42 0 0 0
SMALL
GASTEIGER

@<TRIPOS>ATOM
      1 C           8.2187    0.1245   20.5106 C.3     1  UNL1        0.0666
      2 S           8.8493   -1.0566   21.1867 S.3     1  UNL1       -0.0756
      3 C           7.1323   -3.3064   23.8430 C.ar    1  UNL1        0.1432
      4 N           6.2813   -3.5792   22.6382 N.ar    1  UNL1       -0.1328
      5 N           6.8210   -2.7697   21.4966 N.ar    1  UNL1       -0.1224
      6 C           8.0054   -1.9965   21.9957 C.ar    1  UNL1        0.1930
      7 N           8.1979   -2.3281   23.4459 N.ar    1  UNL1       -0.2918
      8 C           9.2680   -1.7782   24.3417 C.3     1  UNL1        0.1337
      9 C           6.5846   -5.1064   27.9308 C.3     1  UNL1        0.0716
     10 C           6.2565   -3.6614   27.6975 C.3     1  UNL1        0.0200
     11 C           6.4391   -3.0614   26.3349 C.3     1  UNL1        0.0092
     12 C           6.9497   -3.9064   25.2056 C.3     1  UNL1        0.0589
     13 C           7.2777   -5.3513   25.4389 C.3     1  UNL1        0.0092
     14 C           7.0952   -5.9514   26.8015 C.3     1  UNL1        0.0200
     15 C           7.1668   -5.9534   31.7640 C.3     1  UNL1        0.0946
     16 C           7.3494   -5.3534   30.4014 C.2     1  UNL1        0.2229
     17 O           8.4794   -4.4004   30.1469 O.2     1  UNL1       -0.2751
     18 N           6.4020   -5.7064   29.2934 N.am    1  UNL1       -0.3060
     19 H           5.6603   -6.3319   29.4604 H       1  UNL1        0.1494
     20 C           8.3902    0.3231   19.0336 C.3     1  UNL1        0.0294
     21 C           7.2303    0.1051   18.1078 C.3     1  UNL1        0.0730
     22 N           6.2863   -1.0364   18.3441 N.3     1  UNL1       -0.2726
     23 C           6.4772   -2.4493   17.8780 C.3     1  UNL1        0.0721
     24 C           5.2946   -3.2515   18.3338 C.3     1  UNL1        0.0190
     25 C           4.3727   -2.3344   19.0816 C.3     1  UNL1        0.0201
     26 C           3.3375   -3.3738   19.3947 C.3     1  UNL1        0.0061
     27 C           3.1466   -1.9609   19.8608 C.3     1  UNL1        0.0237
     28 C           4.9856   -0.9654   19.0879 C.3     1  UNL1        0.0724
     29 C           2.3285   -0.9295   20.5797 C.ar    1  UNL1       -0.0225
     30 C           1.1075   -0.3523   19.9271 C.ar    1  UNL1       -0.0043
     31 C           0.2894    0.6791   20.6460 C.ar    1  UNL1        0.0035
     32 C           0.6923    1.1333   22.0176 C.ar    1  UNL1        0.0714
     33 C           1.9134    0.5561   22.6703 C.ar    1  UNL1        0.0035
     34 C           2.7314   -0.4753   21.9513 C.ar    1  UNL1       -0.0043
     35 C          -0.1258    2.1647   22.7366 C.3     1  UNL1        0.4186
     36 F          -0.9439    3.1961   23.4556 F       1  UNL1       -0.1659
     37 F          -0.9070    2.4197   21.4817 F       1  UNL1       -0.1659
     38 F           0.6554    1.9096   23.9914 F       1  UNL1       -0.1659
@<TRIPOS>BOND
     1    15    16    1
     2    16    17    2
     3    16    18   am
     4    18     9    1
     5     9    10    1
     6    10    11    1
     7    11    12    1
     8    12     3    1
     9     3     4   ar
    10     4     5   ar
    11     5     6   ar
    12     6     2    1
    13     2     1    1
    14     1    20    1
    15    20    21    1
    16    21    22    1
    17    22    23    1
    18    23    24    1
    19    25    24    1
    20    25    26    1
    21    26    27    1
    22    27    29    1
    23    29    30   ar
    24    30    31   ar
    25    31    32   ar
    26    32    35    1
    27    35    36    1
    28    35    37    1
    29    35    38    1
    30    32    33   ar
    31    33    34   ar
    32    25    28    1
    33     6     7   ar
    34     7     8    1
    35    12    13    1
    36    13    14    1
    37    14     9    1
    38     7     3   ar
    39    28    22    1
    40    27    25    1
    41    34    29   ar
    42    18    19    1
