@<TRIPOS>MOLECULE
*****
 27 30 0 0 0
SMALL
GASTEIGER

@<TRIPOS>ATOM
      1 C          -2.0284  -18.2882   20.8179 C.2     1  UNL1        0.0919
      2 C          -2.1492  -18.8790   22.1913 C.2     1  UNL1        0.0183
      3 C          -3.4917  -19.3009   22.7109 C.2     1  UNL1        0.0511
      4 C          -4.7133  -19.1319   21.8570 C.2     1  UNL1        0.2322
      5 N          -6.1585  -19.4533   22.0978 N.2     1  UNL1       -0.0308
      6 C          -6.9309  -19.0611   20.8732 C.2     1  UNL1        0.3760
      7 N          -5.9630  -18.4973   19.8756 N.2     1  UNL1       -0.0347
      8 C          -4.5924  -18.5411   20.4836 C.2     1  UNL1        0.2191
      9 C          -3.2500  -18.1192   19.9641 C.3     1  UNL1        0.1226
     10 C          -8.4113  -19.2071   20.6802 C.ar    1  UNL1        0.0989
     11 C          -9.3470  -18.9308   21.8196 C.ar    1  UNL1        0.0085
     12 C         -10.8273  -19.0768   21.6266 C.ar    1  UNL1        0.0003
     13 C         -11.3719  -19.4990   20.2943 C.ar    1  UNL1        0.0009
     14 C         -10.4362  -19.7753   19.1550 C.ar    1  UNL1        0.0116
     15 C          -8.9559  -19.6293   19.3479 C.ar    1  UNL1        0.0651
     16 CL         -8.0202  -19.9056   18.2086 Cl      1  UNL1       -0.0820
     17 C         -11.7630  -18.8005   22.7660 C.ar    1  UNL1        0.0000
     18 C         -13.0586  -18.0870   22.5163 C.ar    1  UNL1        0.0000
     19 C         -13.9943  -17.8107   23.6557 C.ar    1  UNL1        0.0000
     20 C         -13.6345  -18.2479   25.0447 C.ar    1  UNL1        0.0000
     21 C         -12.3389  -18.9614   25.2943 C.ar    1  UNL1        0.0000
     22 C         -11.4032  -19.2377   24.1550 C.ar    1  UNL1        0.0000
     23 S          -0.6860  -17.8664   20.2983 S.O2    1  UNL1        0.0054
     24 O          -0.4100  -19.2762   19.8668 O.2     1  UNL1       -0.1689
     25 O          -0.9620  -16.4566   20.7299 O.2     1  UNL1       -0.1689
     26 C           1.8589  -17.5019   20.6737 C.3     1  UNL1        0.0276
     27 C           0.6565  -17.4446   19.7788 C.3     1  UNL1        0.1556
@<TRIPOS>BOND
     1    26    27    1
     2    27    23    1
     3    23    24    2
     4    23    25    2
     5    23     1    1
     6     1     2    2
     7     2     3    1
     8     3     4    2
     9     4     5    1
    10     5     6    2
    11     6    10    1
    12    10    11   ar
    13    11    12   ar
    14    12    17    1
    15    17    18   ar
    16    18    19   ar
    17    19    20   ar
    18    20    21   ar
    19    21    22   ar
    20    12    13   ar
    21    13    14   ar
    22    14    15   ar
    23    15    16    1
    24     6     7    1
    25     7     8    2
    26     8     9    1
    27     9     1    1
    28     8     4    1
    29    15    10   ar
    30    22    17   ar
@<TRIPOS>MOLECULE
*****
 27 30 0 0 0
SMALL
GASTEIGER

@<TRIPOS>ATOM
      1 C           6.2669   -2.2158   19.1728 C.2     1  UNL1        0.0919
      2 C           7.7499   -2.2005   18.9487 C.2     1  UNL1        0.0183
      3 C           8.6633   -2.8782   19.9267 C.2     1  UNL1        0.0511
      4 C           8.0936   -3.5712   21.1288 C.2     1  UNL1        0.2322
      5 N           8.7405   -4.3192   22.2567 N.2     1  UNL1       -0.0308
      6 C           7.6572   -4.7967   23.1779 C.2     1  UNL1        0.3760
      7 N           6.3408   -4.3439   22.6194 N.2     1  UNL1       -0.0347
      8 C           6.6105   -3.5865   21.3529 C.2     1  UNL1        0.2191
      9 C           5.6972   -2.9087   20.3749 C.3     1  UNL1        0.1226
     10 C           7.8556   -5.5881   24.4366 C.ar    1  UNL1        0.0989
     11 C           7.4980   -4.9880   25.7640 C.ar    1  UNL1        0.0085
     12 C           7.6964   -5.7793   27.0227 C.ar    1  UNL1        0.0003
     13 C           8.2524   -7.1708   26.9540 C.ar    1  UNL1        0.0009
     14 C           8.6100   -7.7709   25.6266 C.ar    1  UNL1        0.0116
     15 C           8.4116   -6.9795   24.3679 C.ar    1  UNL1        0.0651
     16 CL          8.7692   -7.5796   23.0405 Cl      1  UNL1       -0.0820
     17 C           7.3388   -5.1792   28.3501 C.ar    1  UNL1        0.0000
     18 C           7.3487   -6.0305   29.5852 C.ar    1  UNL1        0.0000
     19 C           6.9911   -5.4304   30.9126 C.ar    1  UNL1        0.0000
     20 C           6.6236   -3.9790   31.0050 C.ar    1  UNL1        0.0000
     21 C           6.6137   -3.1278   29.7700 C.ar    1  UNL1        0.0000
     22 C           6.9713   -3.7279   28.4426 C.ar    1  UNL1        0.0000
     23 S           5.3536   -1.5380   18.1948 S.O2    1  UNL1        0.0054
     24 O           4.2204   -1.6573   19.1703 O.2     1  UNL1       -0.1689
     25 O           6.4867   -1.4187   17.2193 O.2     1  UNL1       -0.1689
     26 C           3.2187   -0.1404   17.7061 C.3     1  UNL1        0.0276
     27 C           4.4402   -0.8603   17.2168 C.3     1  UNL1        0.1556
@<TRIPOS>BOND
     1    26    27    1
     2    27    23    1
     3    23    24    2
     4    23    25    2
     5    23     1    1
     6     1     2    2
     7     2     3    1
     8     3     4    2
     9     4     5    1
    10     5     6    2
    11     6    10    1
    12    10    11   ar
    13    11    12   ar
    14    12    17    1
    15    17    18   ar
    16    18    19   ar
    17    19    20   ar
    18    20    21   ar
    19    21    22   ar
    20    12    13   ar
    21    13    14   ar
    22    14    15   ar
    23    15    16    1
    24     6     7    1
    25     7     8    2
    26     8     9    1
    27     9     1    1
    28     8     4    1
    29    15    10   ar
    30    22    17   ar
@<TRIPOS>MOLECULE
*****
 27 30 0 0 0
SMALL
GASTEIGER

@<TRIPOS>ATOM
      1 C           7.3504   -5.7705   27.1915 C.2     1  UNL1        0.0919
      2 C           7.8841   -6.9412   26.4205 C.2     1  UNL1        0.0183
      3 C           7.9544   -6.8841   24.9233 C.2     1  UNL1        0.0511
      4 C           7.4908   -5.6563   24.1970 C.2     1  UNL1        0.2322
      5 N           7.4398   -5.3125   22.7378 N.2     1  UNL1       -0.0308
      6 C           6.8745   -3.9293   22.6069 C.2     1  UNL1        0.3760
      7 N           6.5761   -3.4182   23.9852 N.2     1  UNL1       -0.0347
      8 C           6.9571   -4.4856   24.9679 C.2     1  UNL1        0.2191
      9 C           6.8869   -4.5427   26.4652 C.3     1  UNL1        0.1226
     10 C           6.6474   -3.1874   21.3231 C.ar    1  UNL1        0.0989
     11 C           5.3357   -2.5038   21.0739 C.ar    1  UNL1        0.0085
     12 C           5.1086   -1.7619   19.7901 C.ar    1  UNL1        0.0003
     13 C           6.1932   -1.7038   18.7556 C.ar    1  UNL1        0.0009
     14 C           7.5048   -2.3875   19.0048 C.ar    1  UNL1        0.0116
     15 C           7.7320   -3.1293   20.2886 C.ar    1  UNL1        0.0651
     16 CL          9.0436   -3.8130   20.5378 Cl      1  UNL1       -0.0820
     17 C           3.7969   -1.0783   19.5409 C.ar    1  UNL1        0.0000
     18 C           2.6155   -1.3812   20.4140 C.ar    1  UNL1        0.0000
     19 C           1.3038   -0.6975   20.1648 C.ar    1  UNL1        0.0000
     20 C           1.1736    0.2891   19.0425 C.ar    1  UNL1        0.0000
     21 C           2.3551    0.5920   18.1694 C.ar    1  UNL1        0.0000
     22 C           3.6667   -0.0917   18.4186 C.ar    1  UNL1        0.0000
     23 S           7.2802   -5.8276   28.6888 S.O2    1  UNL1        0.0054
     24 O           8.3993   -6.8262   28.7032 O.2     1  UNL1       -0.1689
     25 O           6.1610   -4.8289   28.6744 O.2     1  UNL1       -0.1689
     26 C           7.0318   -4.6228   30.9772 C.3     1  UNL1        0.0276
     27 C           7.2099   -5.8846   30.1860 C.3     1  UNL1        0.1556
@<TRIPOS>BOND
     1    26    27    1
     2    27    23    1
     3    23    24    2
     4    23    25    2
     5    23     1    1
     6     1     2    2
     7     2     3    1
     8     3     4    2
     9     4     5    1
    10     5     6    2
    11     6    10    1
    12    10    11   ar
    13    11    12   ar
    14    12    17    1
    15    17    18   ar
    16    18    19   ar
    17    19    20   ar
    18    20    21   ar
    19    21    22   ar
    20    12    13   ar
    21    13    14   ar
    22    14    15   ar
    23    15    16    1
    24     6     7    1
    25     7     8    2
    26     8     9    1
    27     9     1    1
    28     8     4    1
    29    15    10   ar
    30    22    17   ar
@<TRIPOS>MOLECULE
*****
 27 30 0 0 0
SMALL
GASTEIGER

@<TRIPOS>ATOM
      1 C           3.1527   -0.7584   19.0806 C.2     1  UNL1        0.0919
      2 C           3.6946    0.4562   18.3869 C.2     1  UNL1        0.0183
      3 C           2.9307    1.7465   18.4275 C.2     1  UNL1        0.0511
      4 C           1.6250    1.8222   19.1618 C.2     1  UNL1        0.2322
      5 N           0.6560    2.9476   19.3729 N.2     1  UNL1       -0.0308
      6 C          -0.4848    2.4286   20.1971 C.2     1  UNL1        0.3760
      7 N          -0.2208    0.9825   20.4954 N.2     1  UNL1       -0.0347
      8 C           1.0831    0.6077   19.8555 C.2     1  UNL1        0.2191
      9 C           1.8470   -0.6826   19.8149 C.3     1  UNL1        0.1226
     10 C          -1.6797    3.2174   20.6445 C.ar    1  UNL1        0.0989
     11 C          -2.0376    3.2759   22.1000 C.ar    1  UNL1        0.0085
     12 C          -3.2325    4.0646   22.5474 C.ar    1  UNL1        0.0003
     13 C          -4.0694    4.7947   21.5394 C.ar    1  UNL1        0.0009
     14 C          -3.7115    4.7362   20.0839 C.ar    1  UNL1        0.0116
     15 C          -2.5167    3.9475   19.6364 C.ar    1  UNL1        0.0651
     16 CL         -2.1588    3.8890   18.1809 Cl      1  UNL1       -0.0820
     17 C          -3.5903    4.1231   24.0029 C.ar    1  UNL1        0.0000
     18 C          -2.6228    3.6223   25.0339 C.ar    1  UNL1        0.0000
     19 C          -2.9807    3.6808   26.4894 C.ar    1  UNL1        0.0000
     20 C          -4.3061    4.2401   26.9139 C.ar    1  UNL1        0.0000
     21 C          -5.2737    4.7409   25.8830 C.ar    1  UNL1        0.0000
     22 C          -4.9158    4.6824   24.4275 C.ar    1  UNL1        0.0000
     23 S           3.9166   -2.0487   19.0400 S.O2    1  UNL1        0.0054
     24 O           3.5018   -2.3387   20.4520 O.2     1  UNL1       -0.1689
     25 O           4.3314   -1.7586   17.6280 O.2     1  UNL1       -0.1689
     26 C           3.9485   -4.6464   19.0687 C.3     1  UNL1        0.0276
     27 C           4.6804   -3.3390   18.9994 C.3     1  UNL1        0.1556
@<TRIPOS>BOND
     1    26    27    1
     2    27    23    1
     3    23    24    2
     4    23    25    2
     5    23     1    1
     6     1     2    2
     7     2     3    1
     8     3     4    2
     9     4     5    1
    10     5     6    2
    11     6    10    1
    12    10    11   ar
    13    11    12   ar
    14    12    17    1
    15    17    18   ar
    16    18    19   ar
    17    19    20   ar
    18    20    21   ar
    19    21    22   ar
    20    12    13   ar
    21    13    14   ar
    22    14    15   ar
    23    15    16    1
    24     6     7    1
    25     7     8    2
    26     8     9    1
    27     9     1    1
    28     8     4    1
    29    15    10   ar
    30    22    17   ar
@<TRIPOS>MOLECULE
*****
 27 30 0 0 0
SMALL
GASTEIGER

@<TRIPOS>ATOM
      1 C           5.7123   -1.5018   19.1112 C.2     1  UNL1        0.0919
      2 C           4.3623   -2.0994   19.3765 C.2     1  UNL1        0.0183
      3 C           4.1781   -3.0617   20.5123 C.2     1  UNL1        0.0511
      4 C           5.3438   -3.4263   21.3828 C.2     1  UNL1        0.2322
      5 N           5.4657   -4.3396   22.5665 N.2     1  UNL1       -0.0308
      6 C           6.8910   -4.3065   23.0328 C.2     1  UNL1        0.3760
      7 N           7.6500   -3.3727   22.1374 N.2     1  UNL1       -0.0347
      8 C           6.6938   -2.8287   21.1176 C.2     1  UNL1        0.2191
      9 C           6.8780   -1.8664   19.9818 C.3     1  UNL1        0.1226
     10 C           7.4577   -5.0727   24.1912 C.ar    1  UNL1        0.0989
     11 C           7.1258   -4.6632   25.5956 C.ar    1  UNL1        0.0085
     12 C           7.6925   -5.4293   26.7540 C.ar    1  UNL1        0.0003
     13 C           8.5910   -6.6049   26.5080 C.ar    1  UNL1        0.0009
     14 C           8.9229   -7.0144   25.1037 C.ar    1  UNL1        0.0116
     15 C           8.3562   -6.2483   23.9453 C.ar    1  UNL1        0.0651
     16 CL          8.6881   -6.6578   22.5410 Cl      1  UNL1       -0.0820
     17 C           7.3606   -5.0198   28.1583 C.ar    1  UNL1        0.0000
     18 C           6.9717   -3.6016   28.4540 C.ar    1  UNL1        0.0000
     19 C           6.6398   -3.1921   29.8583 C.ar    1  UNL1        0.0000
     20 C           6.6968   -4.2008   30.9670 C.ar    1  UNL1        0.0000
     21 C           7.0857   -5.6189   30.6713 C.ar    1  UNL1        0.0000
     22 C           7.4176   -6.0284   29.2670 C.ar    1  UNL1        0.0000
     23 S           5.8965   -0.5395   17.9754 S.O2    1  UNL1        0.0054
     24 O           5.1267    0.5017   18.7327 O.2     1  UNL1       -0.1689
     25 O           6.6662   -1.5806   17.2182 O.2     1  UNL1       -0.1689
     26 C           7.3884    1.1367   16.6660 C.3     1  UNL1        0.0276
     27 C           6.0807    0.4228   16.8396 C.3     1  UNL1        0.1556
@<TRIPOS>BOND
     1    26    27    1
     2    27    23    1
     3    23    24    2
     4    23    25    2
     5    23     1    1
     6     1     2    2
     7     2     3    1
     8     3     4    2
     9     4     5    1
    10     5     6    2
    11     6    10    1
    12    10    11   ar
    13    11    12   ar
    14    12    17    1
    15    17    18   ar
    16    18    19   ar
    17    19    20   ar
    18    20    21   ar
    19    21    22   ar
    20    12    13   ar
    21    13    14   ar
    22    14    15   ar
    23    15    16    1
    24     6     7    1
    25     7     8    2
    26     8     9    1
    27     9     1    1
    28     8     4    1
    29    15    10   ar
    30    22    17   ar
@<TRIPOS>MOLECULE
*****
 27 30 0 0 0
SMALL
GASTEIGER

@<TRIPOS>ATOM
      1 C           6.7250   -4.2061   28.8198 C.2     1  UNL1        0.0919
      2 C           6.4033   -2.7500   28.9815 C.2     1  UNL1        0.0183
      3 C           6.1060   -1.9091   27.7754 C.2     1  UNL1        0.0511
      4 C           6.1305   -2.5244   26.4077 C.2     1  UNL1        0.2322
      5 N           5.8812   -1.9506   25.0444 N.2     1  UNL1       -0.0308
      6 C           6.0489   -3.0522   24.0401 C.2     1  UNL1        0.3760
      7 N           6.4017   -4.3067   24.7827 N.2     1  UNL1       -0.0347
      8 C           6.4521   -3.9805   26.2460 C.2     1  UNL1        0.2191
      9 C           6.7494   -4.8214   27.4521 C.3     1  UNL1        0.1226
     10 C           5.8913   -2.9219   22.5540 C.ar    1  UNL1        0.0989
     11 C           4.7613   -2.1143   21.9876 C.ar    1  UNL1        0.0085
     12 C           4.6038   -1.9840   20.5016 C.ar    1  UNL1        0.0003
     13 C           5.5762   -2.6614   19.5821 C.ar    1  UNL1        0.0009
     14 C           6.7062   -3.4690   20.1485 C.ar    1  UNL1        0.0116
     15 C           6.8638   -3.5992   21.6345 C.ar    1  UNL1        0.0651
     16 CL          7.9938   -4.4069   22.2010 Cl      1  UNL1       -0.0820
     17 C           3.4738   -1.1764   19.9352 C.ar    1  UNL1        0.0000
     18 C           3.6552   -0.4353   18.6437 C.ar    1  UNL1        0.0000
     19 C           2.5252    0.3723   18.0773 C.ar    1  UNL1        0.0000
     20 C           1.2138    0.4388   18.8023 C.ar    1  UNL1        0.0000
     21 C           1.0323   -0.3023   20.0937 C.ar    1  UNL1        0.0000
     22 C           2.1623   -1.1099   20.6601 C.ar    1  UNL1        0.0000
     23 S           7.0223   -5.0469   30.0259 S.O2    1  UNL1        0.0054
     24 O           7.5619   -6.1291   29.1384 O.2     1  UNL1       -0.1689
     25 O           6.4826   -3.9647   30.9134 O.2     1  UNL1       -0.1689
     26 C           8.6707   -6.5194   31.3914 C.3     1  UNL1        0.0276
     27 C           7.3195   -5.8878   31.2320 C.3     1  UNL1        0.1556
@<TRIPOS>BOND
     1    26    27    1
     2    27    23    1
     3    23    24    2
     4    23    25    2
     5    23     1    1
     6     1     2    2
     7     2     3    1
     8     3     4    2
     9     4     5    1
    10     5     6    2
    11     6    10    1
    12    10    11   ar
    13    11    12   ar
    14    12    17    1
    15    17    18   ar
    16    18    19   ar
    17    19    20   ar
    18    20    21   ar
    19    21    22   ar
    20    12    13   ar
    21    13    14   ar
    22    14    15   ar
    23    15    16    1
    24     6     7    1
    25     7     8    2
    26     8     9    1
    27     9     1    1
    28     8     4    1
    29    15    10   ar
    30    22    17   ar
@<TRIPOS>MOLECULE
*****
 27 30 0 0 0
SMALL
GASTEIGER

@<TRIPOS>ATOM
      1 C           1.2327    0.6397   21.3742 C.2     1  UNL1        0.0919
      2 C           0.9216   -0.1576   20.1423 C.2     1  UNL1        0.0183
      3 C           1.8206   -1.2862   19.7324 C.2     1  UNL1        0.0511
      4 C           3.0307   -1.6176   20.5544 C.2     1  UNL1        0.2322
      5 N           4.0927   -2.6656   20.4000 N.2     1  UNL1       -0.0308
      6 C           5.0602   -2.5161   21.5365 C.2     1  UNL1        0.3760
      7 N           4.5962   -1.3757   22.3932 N.2     1  UNL1       -0.0347
      8 C           3.3419   -0.8204   21.7862 C.2     1  UNL1        0.2191
      9 C           2.4429    0.3083   22.1961 C.3     1  UNL1        0.1226
     10 C           6.2779   -3.3591   21.7744 C.ar    1  UNL1        0.0989
     11 C           6.3787   -4.1984   23.0135 C.ar    1  UNL1        0.0085
     12 C           7.5963   -5.0414   23.2514 C.ar    1  UNL1        0.0003
     13 C           8.7133   -5.0451   22.2502 C.ar    1  UNL1        0.0009
     14 C           8.6125   -4.2058   21.0111 C.ar    1  UNL1        0.0116
     15 C           7.3948   -3.3628   20.7732 C.ar    1  UNL1        0.0651
     16 CL          7.2941   -2.5235   19.5340 Cl      1  UNL1       -0.0820
     17 C           7.6971   -5.8807   24.4905 C.ar    1  UNL1        0.0000
     18 C           7.0843   -5.4013   25.7730 C.ar    1  UNL1        0.0000
     19 C           7.1850   -6.2406   27.0121 C.ar    1  UNL1        0.0000
     20 C           7.8986   -7.5593   26.9688 C.ar    1  UNL1        0.0000
     21 C           8.5114   -8.0386   25.6864 C.ar    1  UNL1        0.0000
     22 C           8.4107   -7.1993   24.4473 C.ar    1  UNL1        0.0000
     23 S           0.3338    1.7683   21.7841 S.O2    1  UNL1        0.0054
     24 O          -0.5886    1.4471   20.6457 O.2     1  UNL1       -0.1689
     25 O           1.2562    2.0895   22.9225 O.2     1  UNL1       -0.1689
     26 C          -0.7702    3.2023   23.6482 C.3     1  UNL1        0.0276
     27 C          -0.5652    2.8969   22.1940 C.3     1  UNL1        0.1556
@<TRIPOS>BOND
     1    26    27    1
     2    27    23    1
     3    23    24    2
     4    23    25    2
     5    23     1    1
     6     1     2    2
     7     2     3    1
     8     3     4    2
     9     4     5    1
    10     5     6    2
    11     6    10    1
    12    10    11   ar
    13    11    12   ar
    14    12    17    1
    15    17    18   ar
    16    18    19   ar
    17    19    20   ar
    18    20    21   ar
    19    21    22   ar
    20    12    13   ar
    21    13    14   ar
    22    14    15   ar
    23    15    16    1
    24     6     7    1
    25     7     8    2
    26     8     9    1
    27     9     1    1
    28     8     4    1
    29    15    10   ar
    30    22    17   ar
@<TRIPOS>MOLECULE
*****
 27 30 0 0 0
SMALL
GASTEIGER

@<TRIPOS>ATOM
      1 C           3.2081   -0.9046   19.1279 C.2     1  UNL1        0.0919
      2 C           3.4976    0.2678   18.2382 C.2     1  UNL1        0.0183
      3 C           2.6711    1.5148   18.3481 C.2     1  UNL1        0.0511
      4 C           1.5552    1.5893   19.3476 C.2     1  UNL1        0.2322
      5 N           0.5781    2.6772   19.6819 N.2     1  UNL1       -0.0308
      6 C          -0.3153    2.1771   20.7782 C.2     1  UNL1        0.3760
      7 N           0.1097    0.7802   21.1215 N.2     1  UNL1       -0.0347
      8 C           1.2657    0.4169   20.2373 C.2     1  UNL1        0.2191
      9 C           2.0922   -0.8301   20.1274 C.3     1  UNL1        0.1226
     10 C          -1.4367    2.9402   21.4187 C.ar    1  UNL1        0.0989
     11 C          -2.6973    3.2066   20.6506 C.ar    1  UNL1        0.0085
     12 C          -3.8187    3.9696   21.2911 C.ar    1  UNL1        0.0003
     13 C          -3.6796    4.4661   22.6996 C.ar    1  UNL1        0.0009
     14 C          -2.4190    4.1997   23.4677 C.ar    1  UNL1        0.0116
     15 C          -1.2976    3.4367   22.8272 C.ar    1  UNL1        0.0651
     16 CL         -0.0370    3.1702   23.5953 Cl      1  UNL1       -0.0820
     17 C          -5.0793    4.2360   20.5230 C.ar    1  UNL1        0.0000
     18 C          -5.4849    3.3203   19.4064 C.ar    1  UNL1        0.0000
     19 C          -6.7455    3.5867   18.6383 C.ar    1  UNL1        0.0000
     20 C          -7.6004    4.7689   18.9868 C.ar    1  UNL1        0.0000
     21 C          -7.1948    5.6847   20.1034 C.ar    1  UNL1        0.0000
     22 C          -5.9342    5.4182   20.8715 C.ar    1  UNL1        0.0000
     23 S           4.0345   -2.1516   19.0180 S.O2    1  UNL1        0.0054
     24 O           5.1818   -1.3444   18.4866 O.2     1  UNL1       -0.1689
     25 O           2.8873   -2.9588   19.5494 O.2     1  UNL1       -0.1689
     26 C           5.6413   -3.8879   20.0920 C.3     1  UNL1        0.0276
     27 C           4.8610   -3.3986   18.9081 C.3     1  UNL1        0.1556
@<TRIPOS>BOND
     1    26    27    1
     2    27    23    1
     3    23    24    2
     4    23    25    2
     5    23     1    1
     6     1     2    2
     7     2     3    1
     8     3     4    2
     9     4     5    1
    10     5     6    2
    11     6    10    1
    12    10    11   ar
    13    11    12   ar
    14    12    17    1
    15    17    18   ar
    16    18    19   ar
    17    19    20   ar
    18    20    21   ar
    19    21    22   ar
    20    12    13   ar
    21    13    14   ar
    22    14    15   ar
    23    15    16    1
    24     6     7    1
    25     7     8    2
    26     8     9    1
    27     9     1    1
    28     8     4    1
    29    15    10   ar
    30    22    17   ar
@<TRIPOS>MOLECULE
*****
 27 30 0 0 0
SMALL
GASTEIGER

@<TRIPOS>ATOM
      1 C           1.3366    0.9904   29.3863 C.2     1  UNL1        0.0919
      2 C          -0.1633    1.0071   29.3867 C.2     1  UNL1        0.0183
      3 C          -0.9121    1.1526   28.0951 C.2     1  UNL1        0.0511
      4 C          -0.1610    1.2813   26.8031 C.2     1  UNL1        0.2322
      5 N          -0.6231    1.4371   25.3847 N.2     1  UNL1       -0.0308
      6 C           0.5911    1.5167   24.5076 C.2     1  UNL1        0.3760
      7 N           1.8038    1.4101   25.3840 N.2     1  UNL1       -0.0347
      8 C           1.3389    1.2646   26.8028 C.2     1  UNL1        0.2191
      9 C           2.0877    1.1191   28.0943 C.3     1  UNL1        0.1226
     10 C           0.5925    1.6750   23.0159 C.ar    1  UNL1        0.0989
     11 C           1.4354    0.7706   22.1665 C.ar    1  UNL1        0.0085
     12 C           1.4368    0.9289   20.6749 C.ar    1  UNL1        0.0003
     13 C           0.5952    1.9916   20.0327 C.ar    1  UNL1        0.0009
     14 C          -0.2477    2.8960   20.8822 C.ar    1  UNL1        0.0116
     15 C          -0.2491    2.7377   22.3737 C.ar    1  UNL1        0.0651
     16 CL         -1.0920    3.6421   23.2232 Cl      1  UNL1       -0.0820
     17 C           2.2798    0.0246   19.8254 C.ar    1  UNL1        0.0000
     18 C           2.7253    0.4734   18.4653 C.ar    1  UNL1        0.0000
     19 C           3.5683   -0.4309   17.6159 C.ar    1  UNL1        0.0000
     20 C           3.9657   -1.7842   18.1265 C.ar    1  UNL1        0.0000
     21 C           3.5201   -2.2330   19.4867 C.ar    1  UNL1        0.0000
     22 C           2.6771   -1.3287   20.3361 C.ar    1  UNL1        0.0000
     23 S           2.0853    0.8449   30.6779 S.O2    1  UNL1        0.0054
     24 O           2.0479   -0.6475   30.5315 O.2     1  UNL1       -0.1689
     25 O           2.1228    2.3372   30.8243 O.2     1  UNL1       -0.1689
     26 C           2.6170    1.6867   33.0776 C.3     1  UNL1        0.0276
     27 C           2.8341    0.6994   31.9695 C.3     1  UNL1        0.1556
@<TRIPOS>BOND
     1    26    27    1
     2    27    23    1
     3    23    24    2
     4    23    25    2
     5    23     1    1
     6     1     2    2
     7     2     3    1
     8     3     4    2
     9     4     5    1
    10     5     6    2
    11     6    10    1
    12    10    11   ar
    13    11    12   ar
    14    12    17    1
    15    17    18   ar
    16    18    19   ar
    17    19    20   ar
    18    20    21   ar
    19    21    22   ar
    20    12    13   ar
    21    13    14   ar
    22    14    15   ar
    23    15    16    1
    24     6     7    1
    25     7     8    2
    26     8     9    1
    27     9     1    1
    28     8     4    1
    29    15    10   ar
    30    22    17   ar
