@<TRIPOS>MOLECULE
*****
 32 36 0 0 0
SMALL
GASTEIGER

@<TRIPOS>ATOM
      1 C          -4.6407  -19.5725   21.7854 C.3     1  UNL1        0.0731
      2 N          -6.0337  -19.5349   21.2302 N.3     1  UNL1       -0.2712
      3 C          -6.4142  -19.7144   19.7905 C.3     1  UNL1        0.0738
      4 C          -7.9065  -19.6015   19.6879 C.3     1  UNL1        0.0372
      5 C          -9.0639  -19.6427   18.7347 C.3     1  UNL1        0.0245
      6 C         -10.3210  -19.4189   19.5219 C.3     1  UNL1        0.0909
      7 N          -9.9404  -19.2394   20.9617 N.pl3   1  UNL1       -0.3060
      8 C          -8.4482  -19.3523   21.0643 C.3     1  UNL1        0.0901
      9 C          -7.2908  -19.3111   22.0175 C.3     1  UNL1        0.0921
     10 C         -10.8861  -18.9907   22.0992 C.ar    1  UNL1        0.0758
     11 C         -10.6401  -19.6317   23.4328 C.ar    1  UNL1        0.0191
     12 C         -11.5858  -19.3830   24.5703 C.ar    1  UNL1        0.0311
     13 C         -12.7774  -18.4933   24.3742 C.ar    1  UNL1        0.1425
     14 F         -13.7231  -18.2447   25.5117 F       1  UNL1       -0.2041
     15 C         -13.0234  -17.8523   23.0405 C.ar    1  UNL1        0.0605
     16 C         -12.0777  -18.1010   21.9030 C.ar    1  UNL1        0.1556
     17 F         -12.3237  -17.4600   20.5694 F       1  UNL1       -0.2028
     18 C          -3.4973  -19.0310   20.9795 C.3     1  UNL1        0.0294
     19 C          -2.1916  -18.7163   21.6474 C.3     1  UNL1        0.0666
     20 S          -1.9188  -17.3274   22.1439 S.3     1  UNL1       -0.0756
     21 C          -3.8733  -17.9997   24.6693 C.3     1  UNL1        0.1340
     22 N          -3.9463  -16.7810   23.7979 N.ar    1  UNL1       -0.2872
     23 C          -3.0479  -16.4720   22.6371 C.ar    1  UNL1        0.1933
     24 N          -3.4769  -15.1573   22.0560 N.ar    1  UNL1       -0.1221
     25 N          -4.6404  -14.6538   22.8577 N.ar    1  UNL1       -0.1266
     26 C          -4.9306  -15.6573   23.9343 C.ar    1  UNL1        0.1862
     27 C          -6.0146  -15.5550   24.9660 C.ar    1  UNL1        0.1362
     28 C          -5.6644  -15.2669   26.3958 C.ar    1  UNL1        0.1211
     29 N          -6.7485  -15.1647   27.4275 N.ar    1  UNL1       -0.2390
     30 C          -8.1827  -15.3505   27.0293 C.ar    1  UNL1        0.1195
     31 C          -8.5329  -15.6385   25.5995 C.ar    1  UNL1        0.1196
     32 N          -7.4488  -15.7408   24.5678 N.ar    1  UNL1       -0.2375
@<TRIPOS>BOND
     1    21    22    1
     2    22    23   ar
     3    23    20    1
     4    20    19    1
     5    19    18    1
     6    18     1    1
     7     1     2    1
     8     2     3    1
     9     3     4    1
    10     4     5    1
    11     5     6    1
    12     6     7    1
    13     7    10    1
    14    10    11   ar
    15    11    12   ar
    16    12    13   ar
    17    13    14    1
    18    13    15   ar
    19    15    16   ar
    20    16    17    1
    21     7     8    1
    22     8     9    1
    23    23    24   ar
    24    24    25   ar
    25    25    26   ar
    26    26    27    1
    27    27    28   ar
    28    28    29   ar
    29    29    30   ar
    30    30    31   ar
    31    31    32   ar
    32    26    22   ar
    33    32    27   ar
    34     9     2    1
    35     8     4    1
    36    16    10   ar
@<TRIPOS>MOLECULE
*****
 32 36 0 0 0
SMALL
GASTEIGER

@<TRIPOS>ATOM
      1 C         -10.4908  -16.1877   22.4830 C.3     1  UNL1        0.0731
      2 N          -9.2456  -16.0816   23.3127 N.3     1  UNL1       -0.2712
      3 C          -9.1732  -15.6243   24.7395 C.3     1  UNL1        0.0738
      4 C          -7.7371  -15.6742   25.1698 C.3     1  UNL1        0.0372
      5 C          -6.8048  -15.4225   26.3176 C.3     1  UNL1        0.0245
      6 C          -5.4135  -15.7549   25.8662 C.3     1  UNL1        0.0909
      7 N          -5.4859  -16.2121   24.4393 N.pl3   1  UNL1       -0.3060
      8 C          -6.9220  -16.1622   24.0090 C.3     1  UNL1        0.0901
      9 C          -7.8543  -16.4140   22.8612 C.3     1  UNL1        0.0921
     10 C          -4.3260  -16.6435   23.5917 C.ar    1  UNL1        0.0758
     11 C          -3.8517  -18.0657   23.6373 C.ar    1  UNL1        0.0191
     12 C          -2.6917  -18.4971   22.7897 C.ar    1  UNL1        0.0311
     13 C          -2.0061  -17.5061   21.8965 C.ar    1  UNL1        0.1425
     14 F          -0.8461  -17.9375   21.0489 F       1  UNL1       -0.2041
     15 C          -2.4804  -16.0838   21.8508 C.ar    1  UNL1        0.0605
     16 C          -3.6403  -15.6524   22.6984 C.ar    1  UNL1        0.1556
     17 F          -4.1147  -14.2302   22.6528 F       1  UNL1       -0.2028
     18 C         -11.6517  -17.0011   22.9734 C.3     1  UNL1        0.0294
     19 C         -11.4429  -18.4227   23.4042 C.3     1  UNL1        0.0666
     20 S         -11.3180  -19.5074   22.3757 S.3     1  UNL1       -0.0756
     21 C          -8.1406  -20.0138   22.9210 C.3     1  UNL1        0.1340
     22 N          -8.7659  -19.6778   21.5995 N.ar    1  UNL1       -0.2872
     23 C         -10.2263  -19.4451   21.3489 C.ar    1  UNL1        0.1933
     24 N         -10.4035  -19.1391   19.8911 N.ar    1  UNL1       -0.1221
     25 N          -9.0525  -19.1827   19.2408 N.ar    1  UNL1       -0.1266
     26 C          -8.0403  -19.5157   20.2967 C.ar    1  UNL1        0.1862
     27 C          -6.5622  -19.6610   20.0865 C.ar    1  UNL1        0.1362
     28 C          -5.9089  -21.0007   20.2548 C.ar    1  UNL1        0.1211
     29 N          -4.4308  -21.1460   20.0446 N.ar    1  UNL1       -0.2390
     30 C          -3.6061  -19.9515   19.6662 C.ar    1  UNL1        0.1195
     31 C          -4.2595  -18.6118   19.4979 C.ar    1  UNL1        0.1196
     32 N          -5.7376  -18.4666   19.7081 N.ar    1  UNL1       -0.2375
@<TRIPOS>BOND
     1    21    22    1
     2    22    23   ar
     3    23    20    1
     4    20    19    1
     5    19    18    1
     6    18     1    1
     7     1     2    1
     8     2     3    1
     9     3     4    1
    10     4     5    1
    11     5     6    1
    12     6     7    1
    13     7    10    1
    14    10    11   ar
    15    11    12   ar
    16    12    13   ar
    17    13    14    1
    18    13    15   ar
    19    15    16   ar
    20    16    17    1
    21     7     8    1
    22     8     9    1
    23    23    24   ar
    24    24    25   ar
    25    25    26   ar
    26    26    27    1
    27    27    28   ar
    28    28    29   ar
    29    29    30   ar
    30    30    31   ar
    31    31    32   ar
    32    26    22   ar
    33    32    27   ar
    34     9     2    1
    35     8     4    1
    36    16    10   ar
@<TRIPOS>MOLECULE
*****
 32 36 0 0 0
SMALL
GASTEIGER

@<TRIPOS>ATOM
      1 C          -4.4104  -15.8692   24.5098 C.3     1  UNL1        0.0731
      2 N          -4.7108  -16.9756   23.5425 N.3     1  UNL1       -0.2712
      3 C          -3.6990  -17.8335   22.8424 C.3     1  UNL1        0.0738
      4 C          -4.4386  -18.8065   21.9727 C.3     1  UNL1        0.0372
      5 C          -4.2703  -19.9380   21.0025 C.3     1  UNL1        0.0245
      6 C          -5.6353  -20.3808   20.5655 C.3     1  UNL1        0.0909
      7 N          -6.6471  -19.5228   21.2657 N.pl3   1  UNL1       -0.3060
      8 C          -5.9075  -18.5499   22.1354 C.3     1  UNL1        0.0901
      9 C          -6.0757  -17.4183   23.1056 C.3     1  UNL1        0.0921
     10 C          -8.1370  -19.6207   21.1215 C.ar    1  UNL1        0.0758
     11 C          -8.9922  -19.8730   22.3277 C.ar    1  UNL1        0.0191
     12 C         -10.4821  -19.9709   22.1835 C.ar    1  UNL1        0.0311
     13 C         -11.1166  -19.8165   20.8331 C.ar    1  UNL1        0.1425
     14 F         -12.6065  -19.9144   20.6889 F       1  UNL1       -0.2041
     15 C         -10.2614  -19.5642   19.6269 C.ar    1  UNL1        0.0605
     16 C          -8.7715  -19.4663   19.7711 C.ar    1  UNL1        0.1556
     17 F          -7.9162  -19.2141   18.5650 F       1  UNL1       -0.2028
     18 C          -4.8081  -16.0034   25.9499 C.3     1  UNL1        0.0294
     19 C          -5.8957  -15.1365   26.5117 C.3     1  UNL1        0.0666
     20 S          -7.1318  -15.7621   27.0866 S.3     1  UNL1       -0.0756
     21 C          -8.0873  -14.5504   24.2111 C.3     1  UNL1        0.1340
     22 N          -8.6013  -15.8044   24.8541 N.ar    1  UNL1       -0.2872
     23 C          -8.1621  -16.3613   26.1758 C.ar    1  UNL1        0.1933
     24 N          -8.9340  -17.6227   26.4269 N.ar    1  UNL1       -0.1221
     25 N          -9.8503  -17.8454   25.2604 N.ar    1  UNL1       -0.1266
     26 C          -9.6447  -16.7216   24.2883 C.ar    1  UNL1        0.1862
     27 C         -10.3574  -16.5458   22.9801 C.ar    1  UNL1        0.1362
     28 C          -9.5774  -16.2369   21.7367 C.ar    1  UNL1        0.1211
     29 N         -10.2900  -16.0612   20.4286 N.ar    1  UNL1       -0.2390
     30 C         -11.7828  -16.1944   20.3640 C.ar    1  UNL1        0.1195
     31 C         -12.5628  -16.5033   21.6074 C.ar    1  UNL1        0.1196
     32 N         -11.8500  -16.6791   22.9155 N.ar    1  UNL1       -0.2375
@<TRIPOS>BOND
     1    21    22    1
     2    22    23   ar
     3    23    20    1
     4    20    19    1
     5    19    18    1
     6    18     1    1
     7     1     2    1
     8     2     3    1
     9     3     4    1
    10     4     5    1
    11     5     6    1
    12     6     7    1
    13     7    10    1
    14    10    11   ar
    15    11    12   ar
    16    12    13   ar
    17    13    14    1
    18    13    15   ar
    19    15    16   ar
    20    16    17    1
    21     7     8    1
    22     8     9    1
    23    23    24   ar
    24    24    25   ar
    25    25    26   ar
    26    26    27    1
    27    27    28   ar
    28    28    29   ar
    29    29    30   ar
    30    30    31   ar
    31    31    32   ar
    32    26    22   ar
    33    32    27   ar
    34     9     2    1
    35     8     4    1
    36    16    10   ar
@<TRIPOS>MOLECULE
*****
 32 36 0 0 0
SMALL
GASTEIGER

@<TRIPOS>ATOM
      1 C         -10.0208  -18.6606   19.7884 C.3     1  UNL1        0.0731
      2 N          -8.6627  -19.2915   19.8746 N.3     1  UNL1       -0.2712
      3 C          -8.3532  -20.7471   19.6867 C.3     1  UNL1        0.0738
      4 C          -6.8748  -20.9327   19.8598 C.3     1  UNL1        0.0372
      5 C          -5.7698  -21.9470   19.8507 C.3     1  UNL1        0.0245
      6 C          -4.4827  -21.2331   20.1399 C.3     1  UNL1        0.0909
      7 N          -4.7922  -19.7774   20.3278 N.pl3   1  UNL1       -0.3060
      8 C          -6.2706  -19.5918   20.1547 C.3     1  UNL1        0.0901
      9 C          -7.3756  -18.5774   20.1638 C.3     1  UNL1        0.0921
     10 C          -3.7980  -18.6970   20.6348 C.ar    1  UNL1        0.0758
     11 C          -3.0456  -18.0315   19.5209 C.ar    1  UNL1        0.0191
     12 C          -2.0513  -16.9512   19.8279 C.ar    1  UNL1        0.0311
     13 C          -1.8094  -16.5363   21.2489 C.ar    1  UNL1        0.1425
     14 F          -0.8152  -15.4560   21.5560 F       1  UNL1       -0.2041
     15 C          -2.5618  -17.2019   22.3630 C.ar    1  UNL1        0.0605
     16 C          -3.5561  -18.2822   22.0559 C.ar    1  UNL1        0.1556
     17 F          -4.3084  -18.9477   23.1699 F       1  UNL1       -0.2028
     18 C         -11.0949  -19.0572   20.7574 C.3     1  UNL1        0.0294
     19 C         -12.1391  -18.0618   21.1684 C.3     1  UNL1        0.0666
     20 S         -11.8470  -16.5927   21.0900 S.3     1  UNL1       -0.0756
     21 C         -10.3015  -17.1863   23.9022 C.3     1  UNL1        0.1340
     22 N          -9.7833  -16.3482   22.7712 N.ar    1  UNL1       -0.2872
     23 C         -10.4937  -16.0753   21.4786 C.ar    1  UNL1        0.1933
     24 N          -9.6133  -15.1944   20.6427 N.ar    1  UNL1       -0.1221
     25 N          -8.3587  -14.9227   21.4188 N.ar    1  UNL1       -0.1266
     26 C          -8.4637  -15.6358   22.7343 C.ar    1  UNL1        0.1862
     27 C          -7.4307  -15.6364   23.8218 C.ar    1  UNL1        0.1362
     28 C          -7.8415  -15.4104   25.2466 C.ar    1  UNL1        0.1211
     29 N          -6.8084  -15.4110   26.3342 N.ar    1  UNL1       -0.2390
     30 C          -5.3645  -15.6376   25.9968 C.ar    1  UNL1        0.1195
     31 C          -4.9536  -15.8636   24.5720 C.ar    1  UNL1        0.1196
     32 N          -5.9868  -15.8630   23.4845 N.ar    1  UNL1       -0.2375
@<TRIPOS>BOND
     1    21    22    1
     2    22    23   ar
     3    23    20    1
     4    20    19    1
     5    19    18    1
     6    18     1    1
     7     1     2    1
     8     2     3    1
     9     3     4    1
    10     4     5    1
    11     5     6    1
    12     6     7    1
    13     7    10    1
    14    10    11   ar
    15    11    12   ar
    16    12    13   ar
    17    13    14    1
    18    13    15   ar
    19    15    16   ar
    20    16    17    1
    21     7     8    1
    22     8     9    1
    23    23    24   ar
    24    24    25   ar
    25    25    26   ar
    26    26    27    1
    27    27    28   ar
    28    28    29   ar
    29    29    30   ar
    30    30    31   ar
    31    31    32   ar
    32    26    22   ar
    33    32    27   ar
    34     9     2    1
    35     8     4    1
    36    16    10   ar
@<TRIPOS>MOLECULE
*****
 32 36 0 0 0
SMALL
GASTEIGER

@<TRIPOS>ATOM
      1 C         -11.1564  -16.9498   20.2363 C.3     1  UNL1        0.0731
      2 N         -10.1671  -18.0438   19.9635 N.3     1  UNL1       -0.2712
      3 C         -10.4216  -19.2811   19.1547 C.3     1  UNL1        0.0738
      4 C          -9.1613  -20.0945   19.1430 C.3     1  UNL1        0.0372
      5 C          -8.5397  -21.3620   18.6359 C.3     1  UNL1        0.0245
      6 C          -7.1221  -21.4107   19.1240 C.3     1  UNL1        0.0909
      7 N          -6.8677  -20.1733   19.9328 N.pl3   1  UNL1       -0.3060
      8 C          -8.1279  -19.3599   19.9446 C.3     1  UNL1        0.0901
      9 C          -8.7495  -18.0924   20.4517 C.3     1  UNL1        0.0921
     10 C          -5.5792  -19.8126   20.6109 C.ar    1  UNL1        0.0758
     11 C          -4.2810  -19.9386   19.8701 C.ar    1  UNL1        0.0191
     12 C          -2.9925  -19.5780   20.5481 C.ar    1  UNL1        0.0311
     13 C          -3.0022  -19.0913   21.9669 C.ar    1  UNL1        0.1425
     14 F          -1.7137  -18.7307   22.6449 F       1  UNL1       -0.2041
     15 C          -4.3004  -18.9653   22.7078 C.ar    1  UNL1        0.0605
     16 C          -5.5889  -19.3259   22.0297 C.ar    1  UNL1        0.1556
     17 F          -6.8871  -19.1999   22.7705 F       1  UNL1       -0.2028
     18 C         -12.5117  -17.2840   20.7852 C.3     1  UNL1        0.0294
     19 C         -12.6630  -18.3883   21.7891 C.3     1  UNL1        0.0666
     20 S         -12.6565  -18.0746   23.2559 S.3     1  UNL1       -0.0756
     21 C         -10.4457  -15.6749   23.3118 C.3     1  UNL1        0.1340
     22 N         -10.3489  -16.9801   24.0446 N.ar    1  UNL1       -0.2872
     23 C         -11.3651  -18.0832   24.0188 C.ar    1  UNL1        0.1933
     24 N         -10.8631  -19.1963   24.8900 N.ar    1  UNL1       -0.1221
     25 N          -9.5367  -18.7813   25.4542 N.ar    1  UNL1       -0.1266
     26 C          -9.2188  -17.4116   24.9317 C.ar    1  UNL1        0.1862
     27 C          -7.9872  -16.6135   25.2418 C.ar    1  UNL1        0.1362
     28 C          -7.7353  -16.1364   26.6415 C.ar    1  UNL1        0.1211
     29 N          -6.5037  -15.3383   26.9516 N.ar    1  UNL1       -0.2390
     30 C          -5.5239  -15.0174   25.8620 C.ar    1  UNL1        0.1195
     31 C          -5.7758  -15.4944   24.4624 C.ar    1  UNL1        0.1196
     32 N          -7.0075  -16.2925   24.1523 N.ar    1  UNL1       -0.2375
@<TRIPOS>BOND
     1    21    22    1
     2    22    23   ar
     3    23    20    1
     4    20    19    1
     5    19    18    1
     6    18     1    1
     7     1     2    1
     8     2     3    1
     9     3     4    1
    10     4     5    1
    11     5     6    1
    12     6     7    1
    13     7    10    1
    14    10    11   ar
    15    11    12   ar
    16    12    13   ar
    17    13    14    1
    18    13    15   ar
    19    15    16   ar
    20    16    17    1
    21     7     8    1
    22     8     9    1
    23    23    24   ar
    24    24    25   ar
    25    25    26   ar
    26    26    27    1
    27    27    28   ar
    28    28    29   ar
    29    29    30   ar
    30    30    31   ar
    31    31    32   ar
    32    26    22   ar
    33    32    27   ar
    34     9     2    1
    35     8     4    1
    36    16    10   ar
@<TRIPOS>MOLECULE
*****
 32 36 0 0 0
SMALL
GASTEIGER

@<TRIPOS>ATOM
      1 C          -8.9794  -15.5530   25.8144 C.3     1  UNL1        0.0731
      2 N          -9.2035  -16.2738   24.5181 N.3     1  UNL1       -0.2712
      3 C         -10.4686  -16.2663   23.7123 C.3     1  UNL1        0.0738
      4 C         -10.2487  -17.1165   22.4963 C.3     1  UNL1        0.0372
      5 C         -10.8947  -17.6373   21.2468 C.3     1  UNL1        0.0245
      6 C          -9.8929  -18.4923   20.5287 C.3     1  UNL1        0.0909
      7 N          -8.6277  -18.4998   21.3345 N.pl3   1  UNL1       -0.3060
      8 C          -8.8476  -17.6495   22.5506 C.3     1  UNL1        0.0901
      9 C          -8.2016  -17.1287   23.8001 C.3     1  UNL1        0.0921
     10 C          -7.3644  -19.2294   20.9856 C.ar    1  UNL1        0.0758
     11 C          -6.5624  -18.8105   19.7893 C.ar    1  UNL1        0.0191
     12 C          -5.2991  -19.5402   19.4403 C.ar    1  UNL1        0.0311
     13 C          -4.8379  -20.6887   20.2877 C.ar    1  UNL1        0.1425
     14 F          -3.5747  -21.4184   19.9387 F       1  UNL1       -0.2041
     15 C          -5.6400  -21.1077   21.4841 C.ar    1  UNL1        0.0605
     16 C          -6.9032  -20.3780   21.8330 C.ar    1  UNL1        0.1556
     17 F          -7.7053  -20.7969   23.0293 F       1  UNL1       -0.2028
     18 C          -8.5634  -16.3179   27.0357 C.3     1  UNL1        0.0294
     19 C          -7.1210  -16.3484   27.4465 C.3     1  UNL1        0.0666
     20 S          -6.1706  -15.3118   26.9251 S.3     1  UNL1       -0.0756
     21 C          -3.8814  -17.3997   25.9004 C.3     1  UNL1        0.1340
     22 N          -4.5849  -16.3786   25.0563 N.ar    1  UNL1       -0.2872
     23 C          -5.6371  -15.4189   25.5272 C.ar    1  UNL1        0.1933
     24 N          -6.0622  -14.5852   24.3550 N.ar    1  UNL1       -0.1221
     25 N          -5.2727  -15.0296   23.1595 N.ar    1  UNL1       -0.1266
     26 C          -4.3596  -16.1380   23.5929 C.ar    1  UNL1        0.1862
     27 C          -3.3914  -16.8762   22.7167 C.ar    1  UNL1        0.1362
     28 C          -3.3117  -18.3727   22.7815 C.ar    1  UNL1        0.1211
     29 N          -2.3434  -19.1108   21.9054 N.ar    1  UNL1       -0.2390
     30 C          -1.4549  -18.3524   20.9644 C.ar    1  UNL1        0.1195
     31 C          -1.5346  -16.8559   20.8996 C.ar    1  UNL1        0.1196
     32 N          -2.5029  -16.1178   21.7758 N.ar    1  UNL1       -0.2375
@<TRIPOS>BOND
     1    21    22    1
     2    22    23   ar
     3    23    20    1
     4    20    19    1
     5    19    18    1
     6    18     1    1
     7     1     2    1
     8     2     3    1
     9     3     4    1
    10     4     5    1
    11     5     6    1
    12     6     7    1
    13     7    10    1
    14    10    11   ar
    15    11    12   ar
    16    12    13   ar
    17    13    14    1
    18    13    15   ar
    19    15    16   ar
    20    16    17    1
    21     7     8    1
    22     8     9    1
    23    23    24   ar
    24    24    25   ar
    25    25    26   ar
    26    26    27    1
    27    27    28   ar
    28    28    29   ar
    29    29    30   ar
    30    30    31   ar
    31    31    32   ar
    32    26    22   ar
    33    32    27   ar
    34     9     2    1
    35     8     4    1
    36    16    10   ar
@<TRIPOS>MOLECULE
*****
 32 36 0 0 0
SMALL
GASTEIGER

@<TRIPOS>ATOM
      1 C         -10.0876  -17.9023   20.1390 C.3     1  UNL1        0.0731
      2 N          -8.8790  -18.5651   20.7306 N.3     1  UNL1       -0.2712
      3 C          -8.8768  -19.8118   21.5648 C.3     1  UNL1        0.0738
      4 C          -7.4569  -20.1147   21.9416 C.3     1  UNL1        0.0372
      5 C          -6.5779  -21.0725   22.6901 C.3     1  UNL1        0.0245
      6 C          -5.1593  -20.6050   22.5515 C.3     1  UNL1        0.0909
      7 N          -5.1616  -19.3583   21.7173 N.pl3   1  UNL1       -0.3060
      8 C          -6.5815  -19.0553   21.3404 C.3     1  UNL1        0.0901
      9 C          -7.4605  -18.0976   20.5920 C.3     1  UNL1        0.0921
     10 C          -3.9557  -18.5555   21.3283 C.ar    1  UNL1        0.0758
     11 C          -3.4019  -17.5290   22.2714 C.ar    1  UNL1        0.0191
     12 C          -2.1960  -16.7262   21.8824 C.ar    1  UNL1        0.0311
     13 C          -1.5438  -16.9500   20.5503 C.ar    1  UNL1        0.1425
     14 F          -0.3379  -16.1472   20.1613 F       1  UNL1       -0.2041
     15 C          -2.0976  -17.9766   19.6071 C.ar    1  UNL1        0.0605
     16 C          -3.3035  -18.7793   19.9961 C.ar    1  UNL1        0.1556
     17 F          -3.8573  -19.8059   19.0530 F       1  UNL1       -0.2028
     18 C         -11.4536  -18.4659   20.3966 C.3     1  UNL1        0.0294
     19 C         -12.4820  -17.6420   21.1134 C.3     1  UNL1        0.0666
     20 S         -12.6838  -17.8129   22.5899 S.3     1  UNL1       -0.0756
     21 C         -10.2873  -15.6040   22.7540 C.3     1  UNL1        0.1340
     22 N         -10.3970  -16.8492   23.5832 N.ar    1  UNL1       -0.2872
     23 C         -11.4986  -17.8645   23.5078 C.ar    1  UNL1        0.1933
     24 N         -11.2068  -18.9405   24.5114 N.ar    1  UNL1       -0.1221
     25 N          -9.9250  -18.5901   25.2071 N.ar    1  UNL1       -0.1266
     26 C          -9.4244  -17.2976   24.6335 C.ar    1  UNL1        0.1862
     27 C          -8.1713  -16.5797   25.0390 C.ar    1  UNL1        0.1362
     28 C          -7.1188  -16.2717   24.0156 C.ar    1  UNL1        0.1211
     29 N          -5.8658  -15.5537   24.4210 N.ar    1  UNL1       -0.2390
     30 C          -5.6653  -15.1438   25.8500 C.ar    1  UNL1        0.1195
     31 C          -6.7178  -15.4518   26.8734 C.ar    1  UNL1        0.1196
     32 N          -7.9709  -16.1698   26.4679 N.ar    1  UNL1       -0.2375
@<TRIPOS>BOND
     1    21    22    1
     2    22    23   ar
     3    23    20    1
     4    20    19    1
     5    19    18    1
     6    18     1    1
     7     1     2    1
     8     2     3    1
     9     3     4    1
    10     4     5    1
    11     5     6    1
    12     6     7    1
    13     7    10    1
    14    10    11   ar
    15    11    12   ar
    16    12    13   ar
    17    13    14    1
    18    13    15   ar
    19    15    16   ar
    20    16    17    1
    21     7     8    1
    22     8     9    1
    23    23    24   ar
    24    24    25   ar
    25    25    26   ar
    26    26    27    1
    27    27    28   ar
    28    28    29   ar
    29    29    30   ar
    30    30    31   ar
    31    31    32   ar
    32    26    22   ar
    33    32    27   ar
    34     9     2    1
    35     8     4    1
    36    16    10   ar
@<TRIPOS>MOLECULE
*****
 32 36 0 0 0
SMALL
GASTEIGER

@<TRIPOS>ATOM
      1 C          -9.0643  -19.6688   19.1221 C.3     1  UNL1        0.0731
      2 N          -7.9454  -19.3663   20.0742 N.3     1  UNL1       -0.2712
      3 C          -8.0541  -19.2963   21.5686 C.3     1  UNL1        0.0738
      4 C          -6.6973  -18.9674   22.1171 C.3     1  UNL1        0.0372
      5 C          -5.9258  -18.7209   23.3797 C.3     1  UNL1        0.0245
      6 C          -4.5018  -18.4352   23.0046 C.3     1  UNL1        0.0909
      7 N          -4.3932  -18.5052   21.5101 N.pl3   1  UNL1       -0.3060
      8 C          -5.7500  -18.8341   20.9616 C.3     1  UNL1        0.0901
      9 C          -6.5215  -19.0807   19.6991 C.3     1  UNL1        0.0921
     10 C          -3.1466  -18.2850   20.7054 C.ar    1  UNL1        0.0758
     11 C          -3.2380  -18.0760   19.2229 C.ar    1  UNL1        0.0191
     12 C          -1.9914  -17.8558   18.4182 C.ar    1  UNL1        0.0311
     13 C          -0.6534  -17.8445   19.0961 C.ar    1  UNL1        0.1425
     14 F           0.5932  -17.6242   18.2914 F       1  UNL1       -0.2041
     15 C          -0.5619  -18.0534   20.5787 C.ar    1  UNL1        0.0605
     16 C          -1.8085  -18.2736   21.3834 C.ar    1  UNL1        0.1556
     17 F          -1.7171  -18.4825   22.8659 F       1  UNL1       -0.2028
     18 C         -10.4889  -19.5366   19.5726 C.3     1  UNL1        0.0294
     19 C         -11.1419  -18.1866   19.6090 C.3     1  UNL1        0.0666
     20 S         -11.3316  -17.4803   20.9186 S.3     1  UNL1       -0.0756
     21 C         -10.3849  -17.6566   24.0367 C.3     1  UNL1        0.1340
     22 N          -9.7554  -16.8096   22.9706 N.ar    1  UNL1       -0.2872
     23 C         -10.1905  -16.7286   21.5374 C.ar    1  UNL1        0.1933
     24 N          -9.2843  -15.7639   20.8316 N.ar    1  UNL1       -0.1221
     25 N          -8.2890  -15.2487   21.8287 N.ar    1  UNL1       -0.1266
     26 C          -8.5801  -15.8950   23.1507 C.ar    1  UNL1        0.1862
     27 C          -7.8281  -15.6666   24.4283 C.ar    1  UNL1        0.1362
     28 C          -6.3865  -15.2545   24.3866 C.ar    1  UNL1        0.1211
     29 N          -5.6344  -15.0262   25.6643 N.ar    1  UNL1       -0.2390
     30 C          -6.3242  -15.2101   26.9836 C.ar    1  UNL1        0.1195
     31 C          -7.7658  -15.6222   27.0253 C.ar    1  UNL1        0.1196
     32 N          -8.5178  -15.8505   25.7475 N.ar    1  UNL1       -0.2375
@<TRIPOS>BOND
     1    21    22    1
     2    22    23   ar
     3    23    20    1
     4    20    19    1
     5    19    18    1
     6    18     1    1
     7     1     2    1
     8     2     3    1
     9     3     4    1
    10     4     5    1
    11     5     6    1
    12     6     7    1
    13     7    10    1
    14    10    11   ar
    15    11    12   ar
    16    12    13   ar
    17    13    14    1
    18    13    15   ar
    19    15    16   ar
    20    16    17    1
    21     7     8    1
    22     8     9    1
    23    23    24   ar
    24    24    25   ar
    25    25    26   ar
    26    26    27    1
    27    27    28   ar
    28    28    29   ar
    29    29    30   ar
    30    30    31   ar
    31    31    32   ar
    32    26    22   ar
    33    32    27   ar
    34     9     2    1
    35     8     4    1
    36    16    10   ar
@<TRIPOS>MOLECULE
*****
 32 36 0 0 0
SMALL
GASTEIGER

@<TRIPOS>ATOM
      1 C          -8.5521  -15.2445   25.9411 C.3     1  UNL1        0.0731
      2 N          -8.9739  -16.5789   25.4013 N.3     1  UNL1       -0.2712
      3 C          -9.6417  -17.6737   26.1794 C.3     1  UNL1        0.0738
      4 C          -9.8825  -18.8242   25.2476 C.3     1  UNL1        0.0372
      5 C         -10.4440  -20.2119   25.1526 C.3     1  UNL1        0.0245
      6 C         -10.2721  -20.6859   23.7399 C.3     1  UNL1        0.0909
      7 N          -9.6043  -19.5911   22.9617 N.pl3   1  UNL1       -0.3060
      8 C          -9.3635  -18.4405   23.8936 C.3     1  UNL1        0.0901
      9 C          -8.8019  -17.0529   23.9885 C.3     1  UNL1        0.0921
     10 C          -9.2410  -19.6385   21.5071 C.ar    1  UNL1        0.0758
     11 C         -10.3197  -19.6653   20.4652 C.ar    1  UNL1        0.0191
     12 C          -9.9565  -19.7128   19.0106 C.ar    1  UNL1        0.0311
     13 C          -8.5145  -19.7334   18.5980 C.ar    1  UNL1        0.1425
     14 F          -8.1513  -19.7808   17.1434 F       1  UNL1       -0.2041
     15 C          -7.4357  -19.7066   19.6399 C.ar    1  UNL1        0.0605
     16 C          -7.7990  -19.6591   21.0945 C.ar    1  UNL1        0.1556
     17 F          -6.7203  -19.6323   22.1364 F       1  UNL1       -0.2028
     18 C          -7.7052  -15.1690   27.1768 C.3     1  UNL1        0.0294
     19 C          -6.2814  -15.6397   27.1403 C.3     1  UNL1        0.0666
     20 S          -5.3720  -15.1933   26.0342 S.3     1  UNL1       -0.0756
     21 C          -4.8262  -14.9435   22.8264 C.3     1  UNL1        0.1340
     22 N          -4.4291  -16.0954   23.7013 N.ar    1  UNL1       -0.2872
     23 C          -4.6800  -16.2102   25.1757 C.ar    1  UNL1        0.1933
     24 N          -4.1173  -17.5205   25.6411 N.ar    1  UNL1       -0.1221
     25 N          -3.5187  -18.2156   24.4542 N.ar    1  UNL1       -0.1266
     26 C          -3.7114  -17.3348   23.2554 C.ar    1  UNL1        0.1862
     27 C          -3.2647  -17.6399   21.8563 C.ar    1  UNL1        0.1362
     28 C          -2.0331  -16.9867   21.3029 C.ar    1  UNL1        0.1211
     29 N          -1.5864  -17.2918   19.9038 N.ar    1  UNL1       -0.2390
     30 C          -2.3716  -18.2502   19.0581 C.ar    1  UNL1        0.1195
     31 C          -3.6033  -18.9034   19.6115 C.ar    1  UNL1        0.1196
     32 N          -4.0499  -18.5982   21.0106 N.ar    1  UNL1       -0.2375
@<TRIPOS>BOND
     1    21    22    1
     2    22    23   ar
     3    23    20    1
     4    20    19    1
     5    19    18    1
     6    18     1    1
     7     1     2    1
     8     2     3    1
     9     3     4    1
    10     4     5    1
    11     5     6    1
    12     6     7    1
    13     7    10    1
    14    10    11   ar
    15    11    12   ar
    16    12    13   ar
    17    13    14    1
    18    13    15   ar
    19    15    16   ar
    20    16    17    1
    21     7     8    1
    22     8     9    1
    23    23    24   ar
    24    24    25   ar
    25    25    26   ar
    26    26    27    1
    27    27    28   ar
    28    28    29   ar
    29    29    30   ar
    30    30    31   ar
    31    31    32   ar
    32    26    22   ar
    33    32    27   ar
    34     9     2    1
    35     8     4    1
    36    16    10   ar
