@<TRIPOS>MOLECULE
*****
 35 39 0 0 0
SMALL
GASTEIGER

@<TRIPOS>ATOM
      1 C           1.1977    1.3418   20.6540 C.ar    1  UNL1        0.0291
      2 C           1.1211   -0.1382   20.4228 C.ar    1  UNL1        0.0036
      3 C           2.3017   -0.8713   19.8580 C.ar    1  UNL1        0.0152
      4 C           3.5589   -0.1242   19.5245 C.ar    1  UNL1        0.0593
      5 C           3.6355    1.3560   19.7557 C.ar    1  UNL1        0.0446
      6 C           2.4550    2.0889   20.3205 C.ar    1  UNL1        0.1414
      7 F           2.5316    3.5691   20.5517 F       1  UNL1       -0.2041
      8 C          -2.3439    3.5409   22.3483 C.ar    1  UNL1        0.1178
      9 C          -1.1511    3.2608   23.2134 C.ar    1  UNL1        0.0221
     10 C           0.0295    2.5278   22.6487 C.ar    1  UNL1        0.0033
     11 C           0.0171    2.0749   21.2187 C.ar    1  UNL1        0.0213
     12 C          -1.1757    2.3550   20.3536 C.ar    1  UNL1        0.0990
     13 N          -2.3563    3.0880   20.9183 N.ar    1  UNL1       -0.2409
     14 C          -3.5246    4.2739   22.9130 C.2     1  UNL1        0.2132
     15 O          -3.7982    5.6888   22.4966 O.2     1  UNL1       -0.2877
     16 C          -4.4315    3.5922   23.8941 C.3     1  UNL1        0.1778
     17 C          -7.1074    5.3733   24.4563 C.3     1  UNL1        0.0517
     18 C          -6.0147    5.0882   25.4435 C.ar    1  UNL1        0.0580
     19 C          -5.9600    5.5718   26.8623 C.ar    1  UNL1        0.1129
     20 N          -4.6962    5.0520   27.4809 N.ar    1  UNL1       -0.2297
     21 C          -3.9697    4.2471   26.4442 C.ar    1  UNL1        0.1209
     22 C          -2.6586    3.5434   26.6335 C.3     1  UNL1        0.0718
     23 N          -4.7847    4.2695   25.1851 N.ar    1  UNL1       -0.3109
     24 N           4.7395   -0.8571   18.9598 N.am    1  UNL1       -0.2212
     25 C           5.9284   -1.3434   19.7345 C.3     1  UNL1        0.1471
     26 C           6.8622   -2.0193   18.7747 C.3     1  UNL1        0.2149
     27 O           6.2504   -1.9508   17.4068 O.3     1  UNL1       -0.4342
     28 C           4.9385   -1.2325   17.5212 C.2     1  UNL1        0.4088
     29 O           3.9919   -0.9408   16.3948 O.2     1  UNL1       -0.2258
     30 C           8.1769   -2.6526   19.1218 C.3     1  UNL1        0.1745
     31 N           8.3049   -3.4818   20.3653 N.ar    1  UNL1       -0.2264
     32 C           9.3918   -3.3681   21.3927 C.ar    1  UNL1        0.1193
     33 C           9.1271   -4.3862   22.4620 C.ar    1  UNL1        0.1441
     34 N           7.8766   -5.1291   22.0954 N.ar    1  UNL1       -0.1271
     35 N           7.3684   -4.5701   20.7996 N.ar    1  UNL1       -0.0636
@<TRIPOS>BOND
     1    17    18    1
     2    18    19   ar
     3    19    20   ar
     4    20    21   ar
     5    21    22    1
     6    21    23   ar
     7    23    16    1
     8    16    14    1
     9    14    15    2
    10    14     8    1
    11     8     9   ar
    12     9    10   ar
    13    10    11   ar
    14    11     1    1
    15     1     2   ar
    16     2     3   ar
    17     3     4   ar
    18     4    24    1
    19    24    25    1
    20    25    26    1
    21    26    30    1
    22    30    31    1
    23    31    32   ar
    24    32    33   ar
    25    33    34   ar
    26    34    35   ar
    27    26    27    1
    28    27    28    1
    29    28    29    2
    30     4     5   ar
    31     5     6   ar
    32     6     7    1
    33    11    12   ar
    34    12    13   ar
    35    23    18   ar
    36    13     8   ar
    37     6     1   ar
    38    28    24   am
    39    35    31   ar
@<TRIPOS>MOLECULE
*****
 35 39 0 0 0
SMALL
GASTEIGER

@<TRIPOS>ATOM
      1 C           6.2693   -3.3895   24.2687 C.ar    1  UNL1        0.0291
      2 C           5.7968   -2.4197   25.3109 C.ar    1  UNL1        0.0036
      3 C           5.9572   -2.7457   26.7664 C.ar    1  UNL1        0.0152
      4 C           6.5901   -4.0414   27.1794 C.ar    1  UNL1        0.0593
      5 C           7.0626   -5.0111   26.1371 C.ar    1  UNL1        0.0446
      6 C           6.9022   -4.6851   24.6818 C.ar    1  UNL1        0.1414
      7 F           7.3748   -5.6549   23.6394 F       1  UNL1       -0.2041
      8 C           5.7882   -2.4117   19.9027 C.ar    1  UNL1        0.1178
      9 C           4.7559   -3.2449   20.6028 C.ar    1  UNL1        0.0221
     10 C           4.9163   -3.5708   22.0581 C.ar    1  UNL1        0.0033
     11 C           6.1090   -3.0635   22.8133 C.ar    1  UNL1        0.0213
     12 C           7.1412   -2.2303   22.1132 C.ar    1  UNL1        0.0990
     13 N           6.9808   -1.9044   20.6578 N.ar    1  UNL1       -0.2409
     14 C           5.6278   -2.0858   18.4473 C.2     1  UNL1        0.2132
     15 O           6.7377   -2.3875   17.4844 O.2     1  UNL1       -0.2877
     16 C           4.3576   -1.4581   17.9548 C.3     1  UNL1        0.1778
     17 C           5.6838    1.4631   17.3573 C.3     1  UNL1        0.0517
     18 C           4.5081    1.1944   18.2492 C.ar    1  UNL1        0.0580
     19 C           3.7356    2.2213   19.0230 C.ar    1  UNL1        0.1129
     20 N           2.6485    1.5132   19.7759 N.ar    1  UNL1       -0.2297
     21 C           2.7492    0.0486   19.4674 C.ar    1  UNL1        0.1209
     22 C           1.8572   -1.0296   20.0076 C.3     1  UNL1        0.0718
     23 N           3.8985   -0.1483   18.5238 N.ar    1  UNL1       -0.3109
     24 N           6.7504   -4.3673   28.6347 N.am    1  UNL1       -0.2212
     25 C           6.4145   -3.4627   29.7831 C.3     1  UNL1        0.1471
     26 C           6.7314   -4.1914   31.0554 C.3     1  UNL1        0.2149
     27 O           7.2631   -5.5465   30.6932 O.3     1  UNL1       -0.4342
     28 C           7.2749   -5.6552   29.1972 C.2     1  UNL1        0.4088
     29 O           7.7311   -6.8431   28.4031 O.2     1  UNL1       -0.2258
     30 C           6.5485   -3.6587   32.4456 C.3     1  UNL1        0.1745
     31 N           5.6603   -2.4737   32.6839 N.ar    1  UNL1       -0.2264
     32 C           6.0778   -1.0340   32.6307 C.ar    1  UNL1        0.1193
     33 C           4.8741   -0.1909   32.9312 C.ar    1  UNL1        0.1441
     34 N           3.7126   -1.1096   33.1702 N.ar    1  UNL1       -0.1271
     35 N           4.1985   -2.5205   33.0173 N.ar    1  UNL1       -0.0636
@<TRIPOS>BOND
     1    17    18    1
     2    18    19   ar
     3    19    20   ar
     4    20    21   ar
     5    21    22    1
     6    21    23   ar
     7    23    16    1
     8    16    14    1
     9    14    15    2
    10    14     8    1
    11     8     9   ar
    12     9    10   ar
    13    10    11   ar
    14    11     1    1
    15     1     2   ar
    16     2     3   ar
    17     3     4   ar
    18     4    24    1
    19    24    25    1
    20    25    26    1
    21    26    30    1
    22    30    31    1
    23    31    32   ar
    24    32    33   ar
    25    33    34   ar
    26    34    35   ar
    27    26    27    1
    28    27    28    1
    29    28    29    2
    30     4     5   ar
    31     5     6   ar
    32     6     7    1
    33    11    12   ar
    34    12    13   ar
    35    23    18   ar
    36    13     8   ar
    37     6     1   ar
    38    28    24   am
    39    35    31   ar
@<TRIPOS>MOLECULE
*****
 35 39 0 0 0
SMALL
GASTEIGER

@<TRIPOS>ATOM
      1 C           3.2650    0.1191   24.7014 C.ar    1  UNL1        0.0291
      2 C           2.7478    1.1666   25.6422 C.ar    1  UNL1        0.0036
      3 C           2.7705    0.9226   27.1221 C.ar    1  UNL1        0.0152
      4 C           3.3104   -0.3689   27.6611 C.ar    1  UNL1        0.0593
      5 C           3.8276   -1.4164   26.7201 C.ar    1  UNL1        0.0446
      6 C           3.8049   -1.1724   25.2403 C.ar    1  UNL1        0.1414
      7 F           4.3221   -2.2199   24.2994 F       1  UNL1       -0.2041
      8 C           3.1967    0.8512   20.2619 C.ar    1  UNL1        0.1178
      9 C           2.0277    0.1914   20.9312 C.ar    1  UNL1        0.0221
     10 C           2.0505   -0.0526   22.4110 C.ar    1  UNL1        0.0033
     11 C           3.2423    0.3632   23.2215 C.ar    1  UNL1        0.0213
     12 C           4.4113    1.0229   22.5521 C.ar    1  UNL1        0.0990
     13 N           4.3885    1.2669   21.0723 N.ar    1  UNL1       -0.2409
     14 C           3.1740    1.0952   18.7820 C.2     1  UNL1        0.2132
     15 O           2.9886    2.4869   18.2541 O.2     1  UNL1       -0.2877
     16 C           3.3367   -0.0525   17.8300 C.3     1  UNL1        0.1778
     17 C           3.5979   -2.9816   19.2448 C.3     1  UNL1        0.0517
     18 C           4.6935   -2.2462   18.5315 C.ar    1  UNL1        0.0580
     19 C           6.1015   -2.7280   18.3431 C.ar    1  UNL1        0.1129
     20 N           6.8516   -1.6795   17.5764 N.ar    1  UNL1       -0.2297
     21 C           5.9071   -0.5495   17.2908 C.ar    1  UNL1        0.1209
     22 C           6.2384    0.7095   16.5458 C.3     1  UNL1        0.0718
     23 N           4.5734   -0.8999   17.8811 N.ar    1  UNL1       -0.3109
     24 N           3.3332   -0.6130   29.1409 N.am    1  UNL1       -0.2212
     25 C           4.5428   -0.9536   29.9598 C.3     1  UNL1        0.1471
     26 C           4.1075   -1.1104   31.3867 C.3     1  UNL1        0.2149
     27 O           2.6287   -0.8667   31.4496 O.3     1  UNL1       -0.4342
     28 C           2.1502   -0.5593   30.0616 C.2     1  UNL1        0.4088
     29 O           0.7368   -0.2521   29.6641 O.2     1  UNL1       -0.2258
     30 C           4.9951   -1.4511   32.5469 C.3     1  UNL1        0.1745
     31 N           6.2777   -2.1942   32.3172 N.ar    1  UNL1       -0.2264
     32 C           7.6592   -1.6674   32.5696 C.ar    1  UNL1        0.1193
     33 C           8.6393   -2.7422   32.2031 C.ar    1  UNL1        0.1441
     34 N           7.8634   -3.9333   31.7242 N.ar    1  UNL1       -0.1271
     35 N           6.4039   -3.5946   31.7947 N.ar    1  UNL1       -0.0636
@<TRIPOS>BOND
     1    17    18    1
     2    18    19   ar
     3    19    20   ar
     4    20    21   ar
     5    21    22    1
     6    21    23   ar
     7    23    16    1
     8    16    14    1
     9    14    15    2
    10    14     8    1
    11     8     9   ar
    12     9    10   ar
    13    10    11   ar
    14    11     1    1
    15     1     2   ar
    16     2     3   ar
    17     3     4   ar
    18     4    24    1
    19    24    25    1
    20    25    26    1
    21    26    30    1
    22    30    31    1
    23    31    32   ar
    24    32    33   ar
    25    33    34   ar
    26    34    35   ar
    27    26    27    1
    28    27    28    1
    29    28    29    2
    30     4     5   ar
    31     5     6   ar
    32     6     7    1
    33    11    12   ar
    34    12    13   ar
    35    23    18   ar
    36    13     8   ar
    37     6     1   ar
    38    28    24   am
    39    35    31   ar
@<TRIPOS>MOLECULE
*****
 35 39 0 0 0
SMALL
GASTEIGER

@<TRIPOS>ATOM
      1 C           3.0821   -0.0357   24.1261 C.ar    1  UNL1        0.0291
      2 C           2.0804    1.0022   24.5374 C.ar    1  UNL1        0.0036
      3 C           1.7330    1.1765   25.9862 C.ar    1  UNL1        0.0152
      4 C           2.3873    0.3129   27.0236 C.ar    1  UNL1        0.0593
      5 C           3.3890   -0.7250   26.6121 C.ar    1  UNL1        0.0446
      6 C           3.7365   -0.8993   25.1634 C.ar    1  UNL1        0.1414
      7 F           4.7382   -1.9373   24.7520 F       1  UNL1       -0.2041
      8 C           4.1246   -0.5587   19.7798 C.ar    1  UNL1        0.1178
      9 C           5.0629    0.1727   20.6934 C.ar    1  UNL1        0.0221
     10 C           4.7154    0.3470   22.1421 C.ar    1  UNL1        0.0033
     11 C           3.4296   -0.2101   22.6772 C.ar    1  UNL1        0.0213
     12 C           2.4913   -0.9415   21.7637 C.ar    1  UNL1        0.0990
     13 N           2.8388   -1.1158   20.3150 N.ar    1  UNL1       -0.2409
     14 C           4.4721   -0.7331   18.3310 C.2     1  UNL1        0.2132
     15 O           3.9397    0.2293   17.3110 O.2     1  UNL1       -0.2877
     16 C           5.3518   -1.8698   17.9023 C.3     1  UNL1        0.1778
     17 C           8.2714   -1.5173   19.3168 C.3     1  UNL1        0.0517
     18 C           7.2918   -2.6223   19.5802 C.ar    1  UNL1        0.0580
     19 C           7.4822   -3.7592   20.5399 C.ar    1  UNL1        0.1129
     20 N           6.2578   -4.6239   20.4829 N.ar    1  UNL1       -0.2297
     21 C           5.3107   -4.0213   19.4879 C.ar    1  UNL1        0.1209
     22 C           3.9615   -4.5611   19.1161 C.3     1  UNL1        0.0718
     23 N           5.9498   -2.7843   18.9300 N.ar    1  UNL1       -0.3109
     24 N           2.0399    0.4873   28.4723 N.am    1  UNL1       -0.2212
     25 C           2.9941    0.8546   29.5698 C.3     1  UNL1        0.1471
     26 C           2.2212    0.9192   30.8538 C.3     1  UNL1        0.2149
     27 O           0.7892    0.5918   30.5497 O.3     1  UNL1       -0.4342
     28 C           0.6772    0.3248   29.0779 C.2     1  UNL1        0.4088
     29 O          -0.5773   -0.0404   28.3411 O.2     1  UNL1       -0.2258
     30 C           2.7818    1.2526   32.2045 C.3     1  UNL1        0.1745
     31 N           3.4490    0.1876   33.0234 N.ar    1  UNL1       -0.2264
     32 C           4.1690    0.3959   34.3227 C.ar    1  UNL1        0.1193
     33 C           4.6783   -0.9357   34.7890 C.ar    1  UNL1        0.1441
     34 N           4.2731   -1.9670   33.7779 N.ar    1  UNL1       -0.1271
     35 N           3.5133   -1.2728   32.6867 N.ar    1  UNL1       -0.0636
@<TRIPOS>BOND
     1    17    18    1
     2    18    19   ar
     3    19    20   ar
     4    20    21   ar
     5    21    22    1
     6    21    23   ar
     7    23    16    1
     8    16    14    1
     9    14    15    2
    10    14     8    1
    11     8     9   ar
    12     9    10   ar
    13    10    11   ar
    14    11     1    1
    15     1     2   ar
    16     2     3   ar
    17     3     4   ar
    18     4    24    1
    19    24    25    1
    20    25    26    1
    21    26    30    1
    22    30    31    1
    23    31    32   ar
    24    32    33   ar
    25    33    34   ar
    26    34    35   ar
    27    26    27    1
    28    27    28    1
    29    28    29    2
    30     4     5   ar
    31     5     6   ar
    32     6     7    1
    33    11    12   ar
    34    12    13   ar
    35    23    18   ar
    36    13     8   ar
    37     6     1   ar
    38    28    24   am
    39    35    31   ar
@<TRIPOS>MOLECULE
*****
 35 39 0 0 0
SMALL
GASTEIGER

@<TRIPOS>ATOM
      1 C           3.6916   -0.1692   28.5255 C.ar    1  UNL1        0.0291
      2 C           5.0261    0.1182   29.1472 C.ar    1  UNL1        0.0036
      3 C           5.1736    0.1188   30.6400 C.ar    1  UNL1        0.0152
      4 C           3.9866   -0.1681   31.5110 C.ar    1  UNL1        0.0593
      5 C           2.6521   -0.4556   30.8893 C.ar    1  UNL1        0.0446
      6 C           2.5046   -0.4561   29.3966 C.ar    1  UNL1        0.1414
      7 F           1.1700   -0.7435   28.7748 F       1  UNL1       -0.2041
      8 C           3.2490   -0.1709   24.0474 C.ar    1  UNL1        0.1178
      9 C           3.8956   -1.3352   24.7375 C.ar    1  UNL1        0.0221
     10 C           4.0431   -1.3346   26.2302 C.ar    1  UNL1        0.0033
     11 C           3.5440   -0.1697   27.0327 C.ar    1  UNL1        0.0213
     12 C           2.8975    0.9945   26.3426 C.ar    1  UNL1        0.0990
     13 N           2.7500    0.9940   24.8499 N.ar    1  UNL1       -0.2409
     14 C           3.1015   -0.1714   22.5546 C.2     1  UNL1        0.2132
     15 O           1.7825    0.1774   21.9312 O.2     1  UNL1       -0.2877
     16 C           4.2729   -0.5208   21.6853 C.3     1  UNL1        0.1778
     17 C           4.6730   -3.7167   22.2097 C.3     1  UNL1        0.0517
     18 C           4.3306   -3.0746   20.8980 C.ar    1  UNL1        0.0580
     19 C           4.1120   -3.7887   19.5972 C.ar    1  UNL1        0.1129
     20 N           3.7930   -2.7610   18.5521 N.ar    1  UNL1       -0.2297
     21 C           3.8144   -1.4117   19.2072 C.ar    1  UNL1        0.1209
     22 C           3.5500   -0.0991   18.5310 C.3     1  UNL1        0.0718
     23 N           4.1467   -1.6056   20.6570 N.ar    1  UNL1       -0.3109
     24 N           4.1341   -0.1676   33.0037 N.am    1  UNL1       -0.2212
     25 C           4.2101    1.0462   33.8818 C.3     1  UNL1        0.1471
     26 C           4.3544    0.5832   35.3012 C.3     1  UNL1        0.2149
     27 O           4.3676   -0.9168   35.3004 O.3     1  UNL1       -0.4342
     28 C           4.2314   -1.3808   33.8805 C.2     1  UNL1        0.4088
     29 O           4.1984   -2.8074   33.4185 O.2     1  UNL1       -0.2258
     30 C           4.4660    1.4652   36.5093 C.3     1  UNL1        0.1745
     31 N           3.2464    1.7784   37.3245 N.ar    1  UNL1       -0.2264
     32 C           2.8783    1.1520   38.6368 C.ar    1  UNL1        0.1193
     33 C           1.5852    1.7594   39.0938 C.ar    1  UNL1        0.1441
     34 N           1.1541    2.7612   38.0640 N.ar    1  UNL1       -0.1271
     35 N           2.1808    2.7730   36.9705 N.ar    1  UNL1       -0.0636
@<TRIPOS>BOND
     1    17    18    1
     2    18    19   ar
     3    19    20   ar
     4    20    21   ar
     5    21    22    1
     6    21    23   ar
     7    23    16    1
     8    16    14    1
     9    14    15    2
    10    14     8    1
    11     8     9   ar
    12     9    10   ar
    13    10    11   ar
    14    11     1    1
    15     1     2   ar
    16     2     3   ar
    17     3     4   ar
    18     4    24    1
    19    24    25    1
    20    25    26    1
    21    26    30    1
    22    30    31    1
    23    31    32   ar
    24    32    33   ar
    25    33    34   ar
    26    34    35   ar
    27    26    27    1
    28    27    28    1
    29    28    29    2
    30     4     5   ar
    31     5     6   ar
    32     6     7    1
    33    11    12   ar
    34    12    13   ar
    35    23    18   ar
    36    13     8   ar
    37     6     1   ar
    38    28    24   am
    39    35    31   ar
@<TRIPOS>MOLECULE
*****
 35 39 0 0 0
SMALL
GASTEIGER

@<TRIPOS>ATOM
      1 C           6.1755   -3.3911   22.3840 C.ar    1  UNL1        0.0291
      2 C           7.3919   -4.2417   22.1673 C.ar    1  UNL1        0.0036
      3 C           8.0361   -4.9391   23.3287 C.ar    1  UNL1        0.0152
      4 C           7.4639   -4.7858   24.7068 C.ar    1  UNL1        0.0593
      5 C           6.2475   -3.9352   24.9235 C.ar    1  UNL1        0.0446
      6 C           5.6034   -3.2379   23.7621 C.ar    1  UNL1        0.1414
      7 F           4.3869   -2.3873   23.9788 F       1  UNL1       -0.2041
      8 C           4.2428   -1.2992   18.9000 C.ar    1  UNL1        0.1178
      9 C           3.6790   -2.5948   19.4036 C.ar    1  UNL1        0.0221
     10 C           4.3232   -3.2921   20.5649 C.ar    1  UNL1        0.0033
     11 C           5.5313   -2.6938   21.2227 C.ar    1  UNL1        0.0213
     12 C           6.0951   -1.3982   20.7191 C.ar    1  UNL1        0.0990
     13 N           5.4508   -0.7009   19.5578 N.ar    1  UNL1       -0.2409
     14 C           3.5985   -0.6019   17.7387 C.2     1  UNL1        0.2132
     15 O           3.8759   -1.0638   16.3388 O.2     1  UNL1       -0.2877
     16 C           2.6770    0.5573   17.9772 C.3     1  UNL1        0.1778
     17 C           4.5214    3.0316   19.0382 C.3     1  UNL1        0.0517
     18 C           3.4532    2.3288   19.8224 C.ar    1  UNL1        0.0580
     19 C           3.0451    2.6399   21.2319 C.ar    1  UNL1        0.1129
     20 N           1.9451    1.6949   21.6154 N.ar    1  UNL1       -0.2297
     21 C           1.6733    0.7997   20.4427 C.ar    1  UNL1        0.1209
     22 C           0.6493   -0.2950   20.3879 C.3     1  UNL1        0.0718
     23 N           2.6054    1.1916   19.3347 N.ar    1  UNL1       -0.3109
     24 N           8.1081   -5.4831   25.8681 N.am    1  UNL1       -0.2212
     25 C           8.3345   -4.9000   27.2315 C.3     1  UNL1        0.1471
     26 C           9.0053   -5.9424   28.0760 C.3     1  UNL1        0.2149
     27 O           9.1935   -7.1699   27.2345 O.3     1  UNL1       -0.4342
     28 C           8.6391   -6.8860   25.8700 C.2     1  UNL1        0.4088
     29 O           8.6191   -7.8378   24.7109 O.2     1  UNL1       -0.2258
     30 C           9.4158   -5.7851   29.5101 C.3     1  UNL1        0.1745
     31 N           8.5300   -5.0434   30.4668 N.ar    1  UNL1       -0.2264
     32 C           8.7594   -3.6545   30.9848 C.ar    1  UNL1        0.1193
     33 C           7.6305   -3.3131   31.9115 C.ar    1  UNL1        0.1441
     34 N           6.7032   -4.4909   31.9662 N.ar    1  UNL1       -0.1271
     35 N           7.2591   -5.5603   31.0733 N.ar    1  UNL1       -0.0636
@<TRIPOS>BOND
     1    17    18    1
     2    18    19   ar
     3    19    20   ar
     4    20    21   ar
     5    21    22    1
     6    21    23   ar
     7    23    16    1
     8    16    14    1
     9    14    15    2
    10    14     8    1
    11     8     9   ar
    12     9    10   ar
    13    10    11   ar
    14    11     1    1
    15     1     2   ar
    16     2     3   ar
    17     3     4   ar
    18     4    24    1
    19    24    25    1
    20    25    26    1
    21    26    30    1
    22    30    31    1
    23    31    32   ar
    24    32    33   ar
    25    33    34   ar
    26    34    35   ar
    27    26    27    1
    28    27    28    1
    29    28    29    2
    30     4     5   ar
    31     5     6   ar
    32     6     7    1
    33    11    12   ar
    34    12    13   ar
    35    23    18   ar
    36    13     8   ar
    37     6     1   ar
    38    28    24   am
    39    35    31   ar
@<TRIPOS>MOLECULE
*****
 35 39 0 0 0
SMALL
GASTEIGER

@<TRIPOS>ATOM
      1 C           3.3952   -0.4131   23.9429 C.ar    1  UNL1        0.0291
      2 C           3.9320   -1.3037   25.0238 C.ar    1  UNL1        0.0036
      3 C           3.5444   -1.0656   26.4533 C.ar    1  UNL1        0.0152
      4 C           2.6200    0.0631   26.8016 C.ar    1  UNL1        0.0593
      5 C           2.0832    0.9538   25.7205 C.ar    1  UNL1        0.0446
      6 C           2.4708    0.7157   24.2912 C.ar    1  UNL1        0.1414
      7 F           1.9340    1.6064   23.2102 F       1  UNL1       -0.2041
      8 C           4.5580   -1.1273   19.6548 C.ar    1  UNL1        0.1178
      9 C           3.1905   -1.5132   20.1353 C.ar    1  UNL1        0.0221
     10 C           2.8029   -1.2751   21.5646 C.ar    1  UNL1        0.0033
     11 C           3.7829   -0.6512   22.5135 C.ar    1  UNL1        0.0213
     12 C           5.1504   -0.2653   22.0330 C.ar    1  UNL1        0.0990
     13 N           5.5379   -0.5033   20.6036 N.ar    1  UNL1       -0.2409
     14 C           4.9456   -1.3654   18.2254 C.2     1  UNL1        0.2132
     15 O           5.5590   -2.6737   17.8226 O.2     1  UNL1       -0.2877
     16 C           4.7198   -0.2953   17.1988 C.3     1  UNL1        0.1778
     17 C           7.5364    1.2676   16.6757 C.3     1  UNL1        0.0517
     18 C           6.3029    1.8565   17.2933 C.ar    1  UNL1        0.0580
     19 C           6.1474    3.2672   17.7789 C.ar    1  UNL1        0.1129
     20 N           4.7566    3.4207   18.3196 N.ar    1  UNL1       -0.2297
     21 C           4.0525    2.1048   18.1680 C.ar    1  UNL1        0.1209
     22 C           2.6407    1.8079   18.5786 C.3     1  UNL1        0.0718
     23 N           5.0082    1.1382   17.5338 N.ar    1  UNL1       -0.3109
     24 N           2.2324    0.3012   28.2309 N.am    1  UNL1       -0.2212
     25 C           3.1760    0.5363   29.3730 C.3     1  UNL1        0.1471
     26 C           2.3599    0.7264   30.6171 C.3     1  UNL1        0.2149
     27 O           0.9118    0.6089   30.2439 O.3     1  UNL1       -0.4342
     28 C           0.8330    0.3461   28.7692 C.2     1  UNL1        0.4088
     29 O          -0.4244    0.1607   27.9726 O.2     1  UNL1       -0.2258
     30 C           2.8974    0.9882   31.9927 C.3     1  UNL1        0.1745
     31 N           3.5069   -0.1302   32.7852 N.ar    1  UNL1       -0.2264
     32 C           4.2360    0.0082   34.0887 C.ar    1  UNL1        0.1193
     33 C           4.6740   -1.3593   34.5223 C.ar    1  UNL1        0.1441
     34 N           4.2155   -2.3429   33.4867 N.ar    1  UNL1       -0.1271
     35 N           3.4942   -1.5833   32.4131 N.ar    1  UNL1       -0.0636
@<TRIPOS>BOND
     1    17    18    1
     2    18    19   ar
     3    19    20   ar
     4    20    21   ar
     5    21    22    1
     6    21    23   ar
     7    23    16    1
     8    16    14    1
     9    14    15    2
    10    14     8    1
    11     8     9   ar
    12     9    10   ar
    13    10    11   ar
    14    11     1    1
    15     1     2   ar
    16     2     3   ar
    17     3     4   ar
    18     4    24    1
    19    24    25    1
    20    25    26    1
    21    26    30    1
    22    30    31    1
    23    31    32   ar
    24    32    33   ar
    25    33    34   ar
    26    34    35   ar
    27    26    27    1
    28    27    28    1
    29    28    29    2
    30     4     5   ar
    31     5     6   ar
    32     6     7    1
    33    11    12   ar
    34    12    13   ar
    35    23    18   ar
    36    13     8   ar
    37     6     1   ar
    38    28    24   am
    39    35    31   ar
@<TRIPOS>MOLECULE
*****
 35 39 0 0 0
SMALL
GASTEIGER

@<TRIPOS>ATOM
      1 C          -0.1959    2.6495   27.9323 C.ar    1  UNL1        0.0291
      2 C           0.7884    3.6324   28.4934 C.ar    1  UNL1        0.0036
      3 C           1.5751    3.2874   29.7231 C.ar    1  UNL1        0.0152
      4 C           1.3773    1.9593   30.3918 C.ar    1  UNL1        0.0593
      5 C           0.3930    0.9763   29.8307 C.ar    1  UNL1        0.0446
      6 C          -0.3936    1.3214   28.6010 C.ar    1  UNL1        0.1414
      7 F          -1.3780    0.3384   28.0398 F       1  UNL1       -0.2041
      8 C          -2.5557    3.6847   24.2433 C.ar    1  UNL1        0.1178
      9 C          -3.2135    3.7266   25.5907 C.ar    1  UNL1        0.0221
     10 C          -2.4269    3.3816   26.8203 C.ar    1  UNL1        0.0033
     11 C          -0.9825    2.9945   26.7026 C.ar    1  UNL1        0.0213
     12 C          -0.3247    2.9526   25.3552 C.ar    1  UNL1        0.0990
     13 N          -1.1113    3.2976   24.1255 N.ar    1  UNL1       -0.2409
     14 C          -3.3424    4.0297   23.0135 C.2     1  UNL1        0.2132
     15 O          -3.3357    3.1027   21.8343 O.2     1  UNL1       -0.2877
     16 C          -4.1356    5.3018   22.9630 C.3     1  UNL1        0.1778
     17 C          -5.5986    6.1913   25.7411 C.3     1  UNL1        0.0517
     18 C          -6.2840    5.6853   24.5065 C.ar    1  UNL1        0.0580
     19 C          -7.7622    5.4993   24.3322 C.ar    1  UNL1        0.1129
     20 N          -8.0033    4.9755   22.9474 N.ar    1  UNL1       -0.2297
     21 C          -6.6740    4.8377   22.2659 C.ar    1  UNL1        0.1209
     22 C          -6.4473    4.3474   20.8666 C.3     1  UNL1        0.0718
     23 N          -5.6115    5.2765   23.2296 N.ar    1  UNL1       -0.3109
     24 N           2.1639    1.6142   31.6215 N.am    1  UNL1       -0.2212
     25 C           2.5202    2.5559   32.7334 C.3     1  UNL1        0.1471
     26 C           3.3088    1.7905   33.7543 C.3     1  UNL1        0.2149
     27 O           3.4399    0.3757   33.2733 O.3     1  UNL1       -0.4342
     28 C           2.7323    0.2668   31.9552 C.2     1  UNL1        0.4088
     29 O           2.6140   -0.9721   31.1178 O.2     1  UNL1       -0.2258
     30 C           3.8680    2.3428   35.0318 C.3     1  UNL1        0.1745
     31 N           3.0246    2.3652   36.2720 N.ar    1  UNL1       -0.2264
     32 C           3.1651    1.4479   37.4505 C.ar    1  UNL1        0.1193
     33 C           2.1199    1.8246   38.4582 C.ar    1  UNL1        0.1441
     34 N           1.3333    2.9747   37.9026 N.ar    1  UNL1       -0.1271
     35 N           1.8925    3.3088   36.5514 N.ar    1  UNL1       -0.0636
@<TRIPOS>BOND
     1    17    18    1
     2    18    19   ar
     3    19    20   ar
     4    20    21   ar
     5    21    22    1
     6    21    23   ar
     7    23    16    1
     8    16    14    1
     9    14    15    2
    10    14     8    1
    11     8     9   ar
    12     9    10   ar
    13    10    11   ar
    14    11     1    1
    15     1     2   ar
    16     2     3   ar
    17     3     4   ar
    18     4    24    1
    19    24    25    1
    20    25    26    1
    21    26    30    1
    22    30    31    1
    23    31    32   ar
    24    32    33   ar
    25    33    34   ar
    26    34    35   ar
    27    26    27    1
    28    27    28    1
    29    28    29    2
    30     4     5   ar
    31     5     6   ar
    32     6     7    1
    33    11    12   ar
    34    12    13   ar
    35    23    18   ar
    36    13     8   ar
    37     6     1   ar
    38    28    24   am
    39    35    31   ar
@<TRIPOS>MOLECULE
*****
 35 39 0 0 0
SMALL
GASTEIGER

@<TRIPOS>ATOM
      1 C           1.7612    1.4470   29.3103 C.ar    1  UNL1        0.0291
      2 C           2.8055    0.3705   29.3297 C.ar    1  UNL1        0.0036
      3 C           3.4190   -0.0559   30.6304 C.ar    1  UNL1        0.0152
      4 C           2.9883    0.5943   31.9117 C.ar    1  UNL1        0.0593
      5 C           1.9439    1.6710   31.8922 C.ar    1  UNL1        0.0446
      6 C           1.3304    2.0973   30.5915 C.ar    1  UNL1        0.1414
      7 F           0.2861    3.1739   30.5721 F       1  UNL1       -0.2041
      8 C          -0.0794    2.7262   25.4082 C.ar    1  UNL1        0.1178
      9 C           1.0859    3.4839   25.9718 C.ar    1  UNL1        0.0221
     10 C           1.6994    3.0576   27.2725 C.ar    1  UNL1        0.0033
     11 C           1.1476    1.8734   28.0095 C.ar    1  UNL1        0.0213
     12 C          -0.0177    1.1156   27.4459 C.ar    1  UNL1        0.0990
     13 N          -0.6312    1.5420   26.1453 N.ar    1  UNL1       -0.2409
     14 C          -0.6930    3.1525   24.1075 C.2     1  UNL1        0.2132
     15 O          -0.3074    2.4604   22.8338 O.2     1  UNL1       -0.2877
     16 C          -1.6921    4.2710   24.0805 C.3     1  UNL1        0.1778
     17 C          -1.9794    5.2951   27.1656 C.3     1  UNL1        0.0517
     18 C          -3.0618    4.6623   26.3424 C.ar    1  UNL1        0.0580
     19 C          -4.4663    4.3892   26.7926 C.ar    1  UNL1        0.1129
     20 N          -5.2024    3.7496   25.6528 N.ar    1  UNL1       -0.2297
     21 C          -4.2527    3.6274   24.4980 C.ar    1  UNL1        0.1209
     22 C          -4.5702    3.0437   23.1533 C.3     1  UNL1        0.0718
     23 N          -2.9298    4.1916   24.9243 N.ar    1  UNL1       -0.3109
     24 N           3.6018    0.1680   33.2124 N.am    1  UNL1       -0.2212
     25 C           3.8682    1.0533   34.3937 C.3     1  UNL1        0.1471
     26 C           4.4877    0.2140   35.4715 C.3     1  UNL1        0.2149
     27 O           4.6042   -1.1900   34.9563 O.3     1  UNL1       -0.4342
     28 C           4.0567   -1.2184   33.5601 C.2     1  UNL1        0.4088
     29 O           3.9779   -2.4219   32.6683 O.2     1  UNL1       -0.2258
     30 C           4.9155    0.6943   36.8266 C.3     1  UNL1        0.1745
     31 N           3.9633    1.4794   37.6792 N.ar    1  UNL1       -0.2264
     32 C           3.3463    2.7999   37.3251 C.ar    1  UNL1        0.1193
     33 C           2.4626    3.2185   38.4627 C.ar    1  UNL1        0.1441
     34 N           2.5336    2.1567   39.5198 N.ar    1  UNL1       -0.1271
     35 N           3.4611    1.0818   39.0356 N.ar    1  UNL1       -0.0636
@<TRIPOS>BOND
     1    17    18    1
     2    18    19   ar
     3    19    20   ar
     4    20    21   ar
     5    21    22    1
     6    21    23   ar
     7    23    16    1
     8    16    14    1
     9    14    15    2
    10    14     8    1
    11     8     9   ar
    12     9    10   ar
    13    10    11   ar
    14    11     1    1
    15     1     2   ar
    16     2     3   ar
    17     3     4   ar
    18     4    24    1
    19    24    25    1
    20    25    26    1
    21    26    30    1
    22    30    31    1
    23    31    32   ar
    24    32    33   ar
    25    33    34   ar
    26    34    35   ar
    27    26    27    1
    28    27    28    1
    29    28    29    2
    30     4     5   ar
    31     5     6   ar
    32     6     7    1
    33    11    12   ar
    34    12    13   ar
    35    23    18   ar
    36    13     8   ar
    37     6     1   ar
    38    28    24   am
    39    35    31   ar
