@<TRIPOS>MOLECULE
*****
 28 32 0 0 0
SMALL
GASTEIGER

@<TRIPOS>ATOM
      1 C          -8.5282  -18.4237   22.7788 C.3     1  UNL1        0.1689
      2 C          -8.8151  -19.3419   21.6279 C.3     1  UNL1        0.2354
      3 O          -7.5565  -19.4857   20.8247 O.2     1  UNL1       -0.4576
      4 C          -6.4916  -18.6564   21.4791 C.2     1  UNL1        0.2269
      5 N          -7.0922  -18.0000   22.6868 N.2     1  UNL1       -0.2313
      6 C          -5.0750  -18.5092   21.0085 C.ar    1  UNL1        0.0823
      7 C          -4.6060  -18.5864   19.5858 C.ar    1  UNL1        0.0116
      8 C          -3.1197  -18.3839   19.5760 C.ar    1  UNL1        0.0067
      9 C          -2.1177  -18.3577   18.4601 C.ar    1  UNL1        0.0014
     10 C          -0.6661  -18.1291   18.7609 C.ar    1  UNL1        0.0114
     11 C          -0.2165  -17.9268   20.1776 C.ar    1  UNL1        0.0582
     12 CL          1.2352  -17.6983   20.4784 Cl      1  UNL1       -0.0822
     13 C          -1.2185  -17.9531   21.2935 C.ar    1  UNL1        0.0179
     14 C          -2.6701  -18.1817   20.9927 C.ar    1  UNL1        0.0304
     15 S          -3.8785  -18.2591   21.8780 S.2     1  UNL1       -0.0823
     16 CL         -8.5833  -14.9533   27.6730 Cl      1  UNL1       -0.0822
     17 C          -8.5695  -15.8209   26.4494 C.ar    1  UNL1        0.0577
     18 C          -7.9801  -15.3044   25.1704 C.ar    1  UNL1        0.0111
     19 C          -7.9664  -16.1721   23.9468 C.ar    1  UNL1       -0.0014
     20 C          -8.5420  -17.5562   24.0023 C.ar    1  UNL1        0.0033
     21 C          -9.1313  -18.0726   25.2813 C.ar    1  UNL1       -0.0014
     22 C          -9.1451  -17.2050   26.5049 C.ar    1  UNL1        0.0111
     23 C          -9.9670  -18.6660   23.1264 C.3     1  UNL1        0.1595
     24 N         -11.0526  -18.0024   22.3321 N.ar    1  UNL1       -0.2277
     25 C         -12.4250  -18.5537   22.0821 C.ar    1  UNL1        0.1973
     26 N         -13.1771  -17.5629   21.2438 N.ar    1  UNL1       -0.2007
     27 C         -12.2693  -16.3992   20.9756 C.ar    1  UNL1        0.2210
     28 N         -10.9564  -16.6709   21.6483 N.ar    1  UNL1       -0.1451
@<TRIPOS>BOND
     1    16    17    1
     2    17    18   ar
     3    18    19   ar
     4    19    20   ar
     5    20     1    1
     6     1    23    1
     7    23    24    1
     8    24    25   ar
     9    25    26   ar
    10    26    27   ar
    11    27    28   ar
    12     1     2    1
    13     2     3    1
    14     3     4    1
    15     4     6    1
    16     6     7   ar
    17     7     8   ar
    18     8     9   ar
    19     9    10   ar
    20    10    11   ar
    21    11    12    1
    22    11    13   ar
    23    13    14   ar
    24    14    15   ar
    25     4     5    2
    26    20    21   ar
    27    21    22   ar
    28    22    17   ar
    29     5     1    1
    30    28    24   ar
    31    15     6   ar
    32    14     8   ar
@<TRIPOS>MOLECULE
*****
 28 32 0 0 0
SMALL
GASTEIGER

@<TRIPOS>ATOM
      1 C          -0.1347    2.8657   24.5711 C.3     1  UNL1        0.1689
      2 C          -0.4035    3.3974   23.1945 C.3     1  UNL1        0.2354
      3 O           0.2917    2.5053   22.2092 O.2     1  UNL1       -0.4576
      4 C           0.9902    1.4223   22.9768 C.2     1  UNL1        0.2269
      5 N           0.7267    1.6451   24.4365 N.2     1  UNL1       -0.2313
      6 C           1.8086    0.3116   22.3880 C.ar    1  UNL1        0.0823
      7 C           2.7874   -0.5505   23.1286 C.ar    1  UNL1        0.0116
      8 C           3.3756   -1.5269   22.1536 C.ar    1  UNL1        0.0067
      9 C           4.3919   -2.6181   22.3153 C.ar    1  UNL1        0.0014
     10 C           4.7930   -3.4506   21.1338 C.ar    1  UNL1        0.0114
     11 C           4.1776   -3.1919   19.7905 C.ar    1  UNL1        0.0582
     12 CL          4.5787   -4.0245   18.6089 Cl      1  UNL1       -0.0822
     13 C           3.1613   -2.1007   19.6287 C.ar    1  UNL1        0.0179
     14 C           2.7602   -1.2682   20.8103 C.ar    1  UNL1        0.0304
     15 S           1.7918   -0.1319   20.9552 S.2     1  UNL1       -0.0823
     16 CL          0.2367    1.7089   30.4468 Cl      1  UNL1       -0.0822
     17 C           0.1438    1.9980   28.9779 C.ar    1  UNL1        0.0577
     18 C          -0.4492    0.9804   28.0491 C.ar    1  UNL1        0.0111
     19 C          -0.5421    1.2696   26.5801 C.ar    1  UNL1       -0.0014
     20 C          -0.0418    2.5765   26.0400 C.ar    1  UNL1        0.0033
     21 C           0.5512    3.5942   26.9688 C.ar    1  UNL1       -0.0014
     22 C           0.6440    3.3050   28.4377 C.ar    1  UNL1        0.0111
     23 C          -0.9766    4.0258   25.0127 C.3     1  UNL1        0.1595
     24 N          -2.4636    3.8702   25.1346 N.ar    1  UNL1       -0.2277
     25 C          -3.2626    3.9946   26.3979 C.ar    1  UNL1        0.1973
     26 N          -4.7054    3.7640   26.0584 N.ar    1  UNL1       -0.2007
     27 C          -4.7980    3.4971   24.5852 C.ar    1  UNL1        0.2210
     28 N          -3.4125    3.5627   24.0143 N.ar    1  UNL1       -0.1451
@<TRIPOS>BOND
     1    16    17    1
     2    17    18   ar
     3    18    19   ar
     4    19    20   ar
     5    20     1    1
     6     1    23    1
     7    23    24    1
     8    24    25   ar
     9    25    26   ar
    10    26    27   ar
    11    27    28   ar
    12     1     2    1
    13     2     3    1
    14     3     4    1
    15     4     6    1
    16     6     7   ar
    17     7     8   ar
    18     8     9   ar
    19     9    10   ar
    20    10    11   ar
    21    11    12    1
    22    11    13   ar
    23    13    14   ar
    24    14    15   ar
    25     4     5    2
    26    20    21   ar
    27    21    22   ar
    28    22    17   ar
    29     5     1    1
    30    28    24   ar
    31    15     6   ar
    32    14     8   ar
@<TRIPOS>MOLECULE
*****
 28 32 0 0 0
SMALL
GASTEIGER

@<TRIPOS>ATOM
      1 C           5.4069   -2.3782   20.3436 C.3     1  UNL1        0.1689
      2 C           6.5993   -3.0438   19.7231 C.3     1  UNL1        0.2354
      3 O           7.2822   -3.8544   20.7845 O.2     1  UNL1       -0.4576
      4 C           6.5119   -3.6897   22.0610 C.2     1  UNL1        0.2269
      5 N           5.3529   -2.7774   21.7885 N.2     1  UNL1       -0.2313
      6 C           6.8425   -4.3258   23.3786 C.ar    1  UNL1        0.0823
      7 C           7.7416   -5.5084   23.5859 C.ar    1  UNL1        0.0116
      8 C           7.7869   -5.8044   25.0557 C.ar    1  UNL1        0.0067
      9 C           8.5088   -6.8550   25.8462 C.ar    1  UNL1        0.0014
     10 C           8.3595   -6.9060   27.3379 C.ar    1  UNL1        0.0114
     11 C           7.4884   -5.9063   28.0390 C.ar    1  UNL1        0.0582
     12 CL          7.3391   -5.9573   29.5308 Cl      1  UNL1       -0.0822
     13 C           6.7664   -4.8556   27.2485 C.ar    1  UNL1        0.0179
     14 C           6.9157   -4.8047   25.7569 C.ar    1  UNL1        0.0304
     15 S           6.3321   -3.8909   24.7204 S.2     1  UNL1       -0.0823
     16 CL          0.4664    0.7550   21.6760 Cl      1  UNL1       -0.0822
     17 C           1.7015   -0.0283   21.3429 C.ar    1  UNL1        0.0577
     18 C           2.9130    0.0719   22.2218 C.ar    1  UNL1        0.0111
     19 C           4.1481   -0.7114   21.8886 C.ar    1  UNL1       -0.0014
     20 C           4.1718   -1.5949   20.6766 C.ar    1  UNL1        0.0033
     21 C           2.9604   -1.6951   19.7978 C.ar    1  UNL1       -0.0014
     22 C           1.7253   -0.9118   20.1309 C.ar    1  UNL1        0.0111
     23 C           5.2027   -1.8153   18.9684 C.3     1  UNL1        0.1595
     24 N           6.0470   -0.6698   18.4938 N.ar    1  UNL1       -0.2277
     25 C           6.4847    0.5041   19.3186 C.ar    1  UNL1        0.1973
     26 N           7.3101    1.4021   18.4455 N.ar    1  UNL1       -0.2007
     27 C           7.3825    0.7832   17.0810 C.ar    1  UNL1        0.2210
     28 N           6.6019   -0.4973   17.1109 N.ar    1  UNL1       -0.1451
@<TRIPOS>BOND
     1    16    17    1
     2    17    18   ar
     3    18    19   ar
     4    19    20   ar
     5    20     1    1
     6     1    23    1
     7    23    24    1
     8    24    25   ar
     9    25    26   ar
    10    26    27   ar
    11    27    28   ar
    12     1     2    1
    13     2     3    1
    14     3     4    1
    15     4     6    1
    16     6     7   ar
    17     7     8   ar
    18     8     9   ar
    19     9    10   ar
    20    10    11   ar
    21    11    12    1
    22    11    13   ar
    23    13    14   ar
    24    14    15   ar
    25     4     5    2
    26    20    21   ar
    27    21    22   ar
    28    22    17   ar
    29     5     1    1
    30    28    24   ar
    31    15     6   ar
    32    14     8   ar
@<TRIPOS>MOLECULE
*****
 28 32 0 0 0
SMALL
GASTEIGER

@<TRIPOS>ATOM
      1 C           2.7624    1.1149   26.8647 C.3     1  UNL1        0.1689
      2 C           4.0768    0.5108   27.2613 C.3     1  UNL1        0.2354
      3 O           4.5518   -0.3503   26.1286 O.2     1  UNL1       -0.4576
      4 C           3.5310   -0.2783   25.0319 C.2     1  UNL1        0.2269
      5 N           2.4251    0.6272   25.4869 N.2     1  UNL1       -0.2313
      6 C           3.6033   -0.9873   23.7121 C.ar    1  UNL1        0.0823
      7 C           2.9441   -0.5485   22.4381 C.ar    1  UNL1        0.0116
      8 C           3.2809   -1.5496   21.3731 C.ar    1  UNL1        0.0067
      9 C           2.9099   -1.6349   19.9223 C.ar    1  UNL1        0.0014
     10 C           3.4063   -2.7777   19.0871 C.ar    1  UNL1        0.0114
     11 C           4.2737   -3.8353   19.7028 C.ar    1  UNL1        0.0582
     12 CL          4.7700   -4.9782   18.8676 Cl      1  UNL1       -0.0822
     13 C           4.6447   -3.7501   21.1537 C.ar    1  UNL1        0.0179
     14 C           4.1484   -2.6072   21.9888 C.ar    1  UNL1        0.0304
     15 S           4.3476   -2.2597   23.4343 S.2     1  UNL1       -0.0823
     16 CL         -2.4407    4.0682   26.4102 Cl      1  UNL1       -0.0822
     17 C          -1.1399    3.3298   26.5238 C.ar    1  UNL1        0.0577
     18 C          -0.9314    2.0559   25.7599 C.ar    1  UNL1        0.0111
     19 C           0.3695    1.3176   25.8735 C.ar    1  UNL1       -0.0014
     20 C           1.4617    1.8532   26.7511 C.ar    1  UNL1        0.0033
     21 C           1.2531    3.1271   27.5151 C.ar    1  UNL1       -0.0014
     22 C          -0.0477    3.8654   27.4014 C.ar    1  UNL1        0.0111
     23 C           2.8279    1.7569   28.2187 C.3     1  UNL1        0.1595
     24 N           2.8579    0.9042   29.4525 N.ar    1  UNL1       -0.2277
     25 C           2.0023   -0.2999   29.7132 C.ar    1  UNL1        0.1973
     26 N           2.3645   -0.8423   31.0640 N.ar    1  UNL1       -0.2007
     27 C           3.4441    0.0267   31.6381 C.ar    1  UNL1        0.2210
     28 N           3.7490    1.1061   30.6421 N.ar    1  UNL1       -0.1451
@<TRIPOS>BOND
     1    16    17    1
     2    17    18   ar
     3    18    19   ar
     4    19    20   ar
     5    20     1    1
     6     1    23    1
     7    23    24    1
     8    24    25   ar
     9    25    26   ar
    10    26    27   ar
    11    27    28   ar
    12     1     2    1
    13     2     3    1
    14     3     4    1
    15     4     6    1
    16     6     7   ar
    17     7     8   ar
    18     8     9   ar
    19     9    10   ar
    20    10    11   ar
    21    11    12    1
    22    11    13   ar
    23    13    14   ar
    24    14    15   ar
    25     4     5    2
    26    20    21   ar
    27    21    22   ar
    28    22    17   ar
    29     5     1    1
    30    28    24   ar
    31    15     6   ar
    32    14     8   ar
@<TRIPOS>MOLECULE
*****
 28 32 0 0 0
SMALL
GASTEIGER

@<TRIPOS>ATOM
      1 C          -2.4462    3.8512   21.1888 C.3     1  UNL1        0.1689
      2 C          -2.1272    3.9493   19.7264 C.3     1  UNL1        0.2354
      3 O          -1.0156    2.9871   19.4289 O.2     1  UNL1       -0.4576
      4 C          -0.6475    2.2943   20.7075 C.2     1  UNL1        0.2269
      5 N          -1.5317    2.8284   21.7951 N.2     1  UNL1       -0.2313
      6 C           0.4177    1.2508   20.8698 C.ar    1  UNL1        0.0823
      7 C           1.1894    0.9663   22.1242 C.ar    1  UNL1        0.0116
      8 C           2.1468   -0.1518   21.8359 C.ar    1  UNL1        0.0067
      9 C           3.1593   -0.8522   22.6928 C.ar    1  UNL1        0.0014
     10 C           3.9917   -1.9593   22.1172 C.ar    1  UNL1        0.0114
     11 C           3.8117   -2.3660   20.6846 C.ar    1  UNL1        0.0582
     12 CL          4.6442   -3.4731   20.1089 Cl      1  UNL1       -0.0822
     13 C           2.7992   -1.6656   19.8277 C.ar    1  UNL1        0.0179
     14 C           1.9668   -0.5585   20.4034 C.ar    1  UNL1        0.0304
     15 S           0.8981    0.3084   19.8063 S.2     1  UNL1       -0.0823
     16 CL         -4.5800    4.3352   26.7756 Cl      1  UNL1       -0.0822
     17 C          -4.0466    4.2142   25.3790 C.ar    1  UNL1        0.0577
     18 C          -4.7458    3.3380   24.3823 C.ar    1  UNL1        0.0111
     19 C          -4.2123    3.2170   22.9855 C.ar    1  UNL1       -0.0014
     20 C          -2.9796    3.9722   22.5855 C.ar    1  UNL1        0.0033
     21 C          -2.2803    4.8484   23.5822 C.ar    1  UNL1       -0.0014
     22 C          -2.8138    4.9694   24.9788 C.ar    1  UNL1        0.0111
     23 C          -3.4721    4.8993   20.8745 C.3     1  UNL1        0.1595
     24 N          -4.5796    4.5989   19.9083 N.ar    1  UNL1       -0.2277
     25 C          -5.0823    5.5138   18.8312 C.ar    1  UNL1        0.1973
     26 N          -6.1921    4.8112   18.1069 N.ar    1  UNL1       -0.2007
     27 C          -6.3754    3.4620   18.7365 C.ar    1  UNL1        0.2210
     28 N          -5.3787    3.3309   19.8498 N.ar    1  UNL1       -0.1451
@<TRIPOS>BOND
     1    16    17    1
     2    17    18   ar
     3    18    19   ar
     4    19    20   ar
     5    20     1    1
     6     1    23    1
     7    23    24    1
     8    24    25   ar
     9    25    26   ar
    10    26    27   ar
    11    27    28   ar
    12     1     2    1
    13     2     3    1
    14     3     4    1
    15     4     6    1
    16     6     7   ar
    17     7     8   ar
    18     8     9   ar
    19     9    10   ar
    20    10    11   ar
    21    11    12    1
    22    11    13   ar
    23    13    14   ar
    24    14    15   ar
    25     4     5    2
    26    20    21   ar
    27    21    22   ar
    28    22    17   ar
    29     5     1    1
    30    28    24   ar
    31    15     6   ar
    32    14     8   ar
@<TRIPOS>MOLECULE
*****
 28 32 0 0 0
SMALL
GASTEIGER

@<TRIPOS>ATOM
      1 C           6.0408   -1.6408   30.8311 C.3     1  UNL1        0.1689
      2 C           6.4041   -2.1484   29.4671 C.3     1  UNL1        0.2354
      3 O           5.3446   -1.6957   28.5067 O.2     1  UNL1       -0.4576
      4 C           4.3264   -0.9083   29.2771 C.2     1  UNL1        0.2269
      5 N           4.7567   -0.8744   30.7136 N.2     1  UNL1       -0.2313
      6 C           3.0943   -0.2674   28.7104 C.ar    1  UNL1        0.0823
      7 C           1.7575   -0.1774   29.3849 C.ar    1  UNL1        0.0116
      8 C           0.8196    0.5416   28.4611 C.ar    1  UNL1        0.0067
      9 C          -0.6259    0.9194   28.5930 C.ar    1  UNL1        0.0014
     10 C          -1.3144    1.6516   27.4796 C.ar    1  UNL1        0.0114
     11 C          -0.5573    2.0060   26.2341 C.ar    1  UNL1        0.0582
     12 CL         -1.2458    2.7382   25.1206 Cl      1  UNL1       -0.0822
     13 C           0.8883    1.6282   26.1021 C.ar    1  UNL1        0.0179
     14 C           1.5768    0.8960   27.2156 C.ar    1  UNL1        0.0304
     15 S           2.9826    0.3959   27.3697 S.2     1  UNL1       -0.0823
     16 CL          5.6440   -0.1876   36.6389 Cl      1  UNL1       -0.0822
     17 C           5.7433   -0.5509   35.1870 C.ar    1  UNL1        0.0577
     18 C           6.9846   -0.2178   34.4136 C.ar    1  UNL1        0.0111
     19 C           7.0838   -0.5811   32.9616 C.ar    1  UNL1       -0.0014
     20 C           5.9416   -1.2775   32.2830 C.ar    1  UNL1        0.0033
     21 C           4.7003   -1.6106   33.0564 C.ar    1  UNL1       -0.0014
     22 C           4.6011   -1.2473   34.5083 C.ar    1  UNL1        0.0111
     23 C           7.3041   -2.3312   31.2521 C.3     1  UNL1        0.1595
     24 N           7.3724   -3.8296   31.2623 N.ar    1  UNL1       -0.2277
     25 C           6.5343   -4.7448   32.1049 C.ar    1  UNL1        0.1973
     26 N           6.9348   -6.1567   31.7950 N.ar    1  UNL1       -0.2007
     27 C           8.0205   -6.1142   30.7608 C.ar    1  UNL1        0.2210
     28 N           8.2909   -4.6759   30.4316 N.ar    1  UNL1       -0.1451
@<TRIPOS>BOND
     1    16    17    1
     2    17    18   ar
     3    18    19   ar
     4    19    20   ar
     5    20     1    1
     6     1    23    1
     7    23    24    1
     8    24    25   ar
     9    25    26   ar
    10    26    27   ar
    11    27    28   ar
    12     1     2    1
    13     2     3    1
    14     3     4    1
    15     4     6    1
    16     6     7   ar
    17     7     8   ar
    18     8     9   ar
    19     9    10   ar
    20    10    11   ar
    21    11    12    1
    22    11    13   ar
    23    13    14   ar
    24    14    15   ar
    25     4     5    2
    26    20    21   ar
    27    21    22   ar
    28    22    17   ar
    29     5     1    1
    30    28    24   ar
    31    15     6   ar
    32    14     8   ar
@<TRIPOS>MOLECULE
*****
 28 32 0 0 0
SMALL
GASTEIGER

@<TRIPOS>ATOM
      1 C           4.9088   -2.9014   21.9900 C.3     1  UNL1        0.1689
      2 C           5.8250   -3.9582   21.4481 C.3     1  UNL1        0.2354
      3 O           6.5462   -4.5839   22.6049 O.2     1  UNL1       -0.4576
      4 C           6.0758   -3.9139   23.8618 C.2     1  UNL1        0.2269
      5 N           5.0637   -2.8740   23.4817 N.2     1  UNL1       -0.2313
      6 C           6.5364   -4.2285   25.2542 C.ar    1  UNL1        0.0823
      7 C           7.0483   -5.5538   25.7352 C.ar    1  UNL1        0.0116
      8 C           7.3943   -5.4174   27.1884 C.ar    1  UNL1        0.0067
      9 C           7.9423   -6.3947   28.1857 C.ar    1  UNL1        0.0014
     10 C           8.1922   -5.9623   29.6001 C.ar    1  UNL1        0.0114
     11 C           7.8941   -4.5526   30.0171 C.ar    1  UNL1        0.0582
     12 CL          8.1441   -4.1202   31.4316 Cl      1  UNL1       -0.0822
     13 C           7.3462   -3.5754   29.0199 C.ar    1  UNL1        0.0179
     14 C           7.0963   -4.0078   27.6055 C.ar    1  UNL1        0.0304
     15 S           6.5661   -3.2730   26.4101 S.2     1  UNL1       -0.0823
     16 CL          0.9407    1.4950   22.9522 Cl      1  UNL1       -0.0822
     17 C           1.9327    0.3960   22.7116 C.ar    1  UNL1        0.0577
     18 C           2.0825   -0.1922   21.3399 C.ar    1  UNL1        0.0111
     19 C           3.0746   -1.2914   21.0994 C.ar    1  UNL1       -0.0014
     20 C           3.9168   -1.8023   22.2306 C.ar    1  UNL1        0.0033
     21 C           3.7670   -1.2141   23.6023 C.ar    1  UNL1       -0.0014
     22 C           2.7750   -0.1150   23.8428 C.ar    1  UNL1        0.0111
     23 C           4.5464   -2.6990   20.5486 C.3     1  UNL1        0.1595
     24 N           5.5913   -2.2567   19.5675 N.ar    1  UNL1       -0.2277
     25 C           5.7393   -2.7449   18.1569 C.ar    1  UNL1        0.1973
     26 N           6.9112   -2.0384   17.5424 N.ar    1  UNL1       -0.2007
     27 C           7.4875   -1.1135   18.5732 C.ar    1  UNL1        0.2210
     28 N           6.6717   -1.2485   19.8248 N.ar    1  UNL1       -0.1451
@<TRIPOS>BOND
     1    16    17    1
     2    17    18   ar
     3    18    19   ar
     4    19    20   ar
     5    20     1    1
     6     1    23    1
     7    23    24    1
     8    24    25   ar
     9    25    26   ar
    10    26    27   ar
    11    27    28   ar
    12     1     2    1
    13     2     3    1
    14     3     4    1
    15     4     6    1
    16     6     7   ar
    17     7     8   ar
    18     8     9   ar
    19     9    10   ar
    20    10    11   ar
    21    11    12    1
    22    11    13   ar
    23    13    14   ar
    24    14    15   ar
    25     4     5    2
    26    20    21   ar
    27    21    22   ar
    28    22    17   ar
    29     5     1    1
    30    28    24   ar
    31    15     6   ar
    32    14     8   ar
@<TRIPOS>MOLECULE
*****
 28 32 0 0 0
SMALL
GASTEIGER

@<TRIPOS>ATOM
      1 C           3.7422   -1.7581   21.4659 C.3     1  UNL1        0.1689
      2 C           4.6533   -2.9487   21.5148 C.3     1  UNL1        0.2354
      3 O           5.1086   -3.1260   22.9330 O.2     1  UNL1       -0.4576
      4 C           4.4789   -2.0450   23.7606 C.2     1  UNL1        0.2269
      5 N           3.6345   -1.1996   22.8539 N.2     1  UNL1       -0.2313
      6 C           4.6616   -1.8446   25.2359 C.ar    1  UNL1        0.0823
      7 C           5.8091   -2.3503   26.0590 C.ar    1  UNL1        0.0116
      8 C           5.5856   -1.9215   27.4789 C.ar    1  UNL1        0.0067
      9 C           6.3867   -2.1334   28.7292 C.ar    1  UNL1        0.0014
     10 C           5.9020   -1.5744   30.0341 C.ar    1  UNL1        0.0114
     11 C           4.6164   -0.8037   30.0886 C.ar    1  UNL1        0.0582
     12 CL          4.1318   -0.2447   31.3935 Cl      1  UNL1       -0.0822
     13 C           3.8153   -0.5919   28.8383 C.ar    1  UNL1        0.0179
     14 C           4.2999   -1.1508   27.5334 C.ar    1  UNL1        0.0304
     15 S           3.7289   -1.1032   26.1472 S.2     1  UNL1       -0.0823
     16 CL          0.0256    2.7336   20.0477 Cl      1  UNL1       -0.0822
     17 C           0.9547    1.6107   20.4022 C.ar    1  UNL1        0.0577
     18 C           0.6234    0.2058   19.9942 C.ar    1  UNL1        0.0111
     19 C           1.5526   -0.9172   20.3488 C.ar    1  UNL1       -0.0014
     20 C           2.8131   -0.6352   21.1114 C.ar    1  UNL1        0.0033
     21 C           3.1445    0.7697   21.5194 C.ar    1  UNL1       -0.0014
     22 C           2.2153    1.8926   21.1649 C.ar    1  UNL1        0.0111
     23 C           3.6558   -2.0819   20.0039 C.3     1  UNL1        0.1595
     24 N           4.8433   -1.8594   19.1148 N.ar    1  UNL1       -0.2277
     25 C           5.4190   -2.8512   18.1479 C.ar    1  UNL1        0.1973
     26 N           6.5951   -2.2107   17.4721 N.ar    1  UNL1       -0.2007
     27 C           6.7463   -0.8231   18.0215 C.ar    1  UNL1        0.2210
     28 N           5.6636   -0.6061   19.0367 N.ar    1  UNL1       -0.1451
@<TRIPOS>BOND
     1    16    17    1
     2    17    18   ar
     3    18    19   ar
     4    19    20   ar
     5    20     1    1
     6     1    23    1
     7    23    24    1
     8    24    25   ar
     9    25    26   ar
    10    26    27   ar
    11    27    28   ar
    12     1     2    1
    13     2     3    1
    14     3     4    1
    15     4     6    1
    16     6     7   ar
    17     7     8   ar
    18     8     9   ar
    19     9    10   ar
    20    10    11   ar
    21    11    12    1
    22    11    13   ar
    23    13    14   ar
    24    14    15   ar
    25     4     5    2
    26    20    21   ar
    27    21    22   ar
    28    22    17   ar
    29     5     1    1
    30    28    24   ar
    31    15     6   ar
    32    14     8   ar
@<TRIPOS>MOLECULE
*****
 28 32 0 0 0
SMALL
GASTEIGER

@<TRIPOS>ATOM
      1 C          -8.5918  -19.6268   21.7949 C.3     1  UNL1        0.1689
      2 C          -7.9618  -20.7637   22.5436 C.3     1  UNL1        0.2354
      3 O          -6.4795  -20.6993   22.3227 O.2     1  UNL1       -0.4576
      4 C          -6.1934  -19.5227   21.4376 C.2     1  UNL1        0.2269
      5 N          -7.4988  -18.8598   21.1113 N.2     1  UNL1       -0.2313
      6 C          -4.8395  -19.0856   20.9621 C.ar    1  UNL1        0.0823
      7 C          -4.4532  -18.8028   19.5405 C.ar    1  UNL1        0.0116
      8 C          -3.0092  -18.3971   19.5245 C.ar    1  UNL1        0.0067
      9 C          -2.0899  -18.0026   18.4069 C.ar    1  UNL1        0.0014
     10 C          -0.6644  -17.6401   18.7010 C.ar    1  UNL1        0.0114
     11 C          -0.1582  -17.6722   20.1126 C.ar    1  UNL1        0.0582
     12 CL          1.2674  -17.3097   20.4067 Cl      1  UNL1       -0.0822
     13 C          -1.0776  -18.0667   21.2302 C.ar    1  UNL1        0.0179
     14 C          -2.5031  -18.4291   20.9362 C.ar    1  UNL1        0.0304
     15 S          -3.6343  -18.8547   21.8246 S.2     1  UNL1       -0.0823
     16 CL        -12.1822  -15.5417   19.2610 Cl      1  UNL1       -0.0822
     17 C         -11.2846  -16.5629   19.8945 C.ar    1  UNL1        0.0577
     18 C         -10.3614  -16.1630   21.0070 C.ar    1  UNL1        0.0111
     19 C          -9.4637  -17.1843   21.6405 C.ar    1  UNL1       -0.0014
     20 C          -9.4894  -18.6056   21.1614 C.ar    1  UNL1        0.0033
     21 C         -10.4126  -19.0055   20.0490 C.ar    1  UNL1       -0.0014
     22 C         -11.3102  -17.9842   19.4155 C.ar    1  UNL1        0.0111
     23 C          -9.8723  -20.1802   22.3460 C.3     1  UNL1        0.1595
     24 N         -10.5775  -19.4694   23.4629 N.ar    1  UNL1       -0.2277
     25 C         -10.0151  -19.1917   24.8255 C.ar    1  UNL1        0.1973
     26 N         -11.0590  -18.4621   25.6180 N.ar    1  UNL1       -0.2007
     27 C         -12.2666  -18.2888   24.7451 C.ar    1  UNL1        0.2210
     28 N         -11.9689  -18.9113   23.4132 N.ar    1  UNL1       -0.1451
@<TRIPOS>BOND
     1    16    17    1
     2    17    18   ar
     3    18    19   ar
     4    19    20   ar
     5    20     1    1
     6     1    23    1
     7    23    24    1
     8    24    25   ar
     9    25    26   ar
    10    26    27   ar
    11    27    28   ar
    12     1     2    1
    13     2     3    1
    14     3     4    1
    15     4     6    1
    16     6     7   ar
    17     7     8   ar
    18     8     9   ar
    19     9    10   ar
    20    10    11   ar
    21    11    12    1
    22    11    13   ar
    23    13    14   ar
    24    14    15   ar
    25     4     5    2
    26    20    21   ar
    27    21    22   ar
    28    22    17   ar
    29     5     1    1
    30    28    24   ar
    31    15     6   ar
    32    14     8   ar
