@<TRIPOS>MOLECULE
*****
 29 31 0 0 0
SMALL
GASTEIGER

@<TRIPOS>ATOM
      1 N          -9.7194  -20.2628   22.7370 N.am    1  UNL1       -0.2573
      2 C          -8.4572  -19.8708   22.0277 C.2     1  UNL1        0.3080
      3 O          -8.5240  -19.2713   20.6544 O.2     1  UNL1       -0.2522
      4 N          -7.1283  -20.0785   22.6917 N.am    1  UNL1       -0.2681
      5 H          -7.0845  -20.4720   23.5930 H       1  UNL1        0.1564
      6 C          -5.8661  -19.6865   21.9823 C.ar    1  UNL1        0.0516
      7 C          -5.5157  -20.3213   20.6691 C.ar    1  UNL1        0.0147
      8 C          -4.2535  -19.9294   19.9597 C.ar    1  UNL1        0.0011
      9 C          -3.3417  -18.9027   20.5635 C.ar    1  UNL1       -0.0004
     10 C          -3.6921  -18.2679   21.8766 C.ar    1  UNL1        0.0011
     11 C          -4.9543  -18.6599   22.5860 C.ar    1  UNL1        0.0147
     12 C          -2.0795  -18.5107   19.8541 C.2     1  UNL1        0.0249
     13 C          -1.9848  -17.9622   18.4612 C.2     1  UNL1        0.1194
     14 N          -0.5372  -17.7110   18.1593 N.2     1  UNL1       -0.1510
     15 N           0.2629  -18.1042   19.3656 N.2     1  UNL1       -0.1695
     16 C          -0.6902  -18.5985   20.4131 C.3     1  UNL1        0.1771
     17 C         -11.0484  -20.0551   22.0731 C.3     1  UNL1        0.1219
     18 C         -12.2920  -16.5452   20.7006 C.ar    1  UNL1        0.1385
     19 C         -12.8815  -15.9475   21.9436 C.ar    1  UNL1        0.0369
     20 C         -12.8601  -16.7190   23.2298 C.ar    1  UNL1        0.0028
     21 C         -12.2490  -18.0882   23.2730 C.ar    1  UNL1       -0.0024
     22 C         -11.6594  -18.6859   22.0300 C.ar    1  UNL1        0.0007
     23 C         -11.6809  -17.9144   20.7438 C.ar    1  UNL1        0.0343
     24 C         -11.0481  -15.1707   18.8803 C.3     1  UNL1        0.2525
     25 O         -12.3134  -15.7737   19.4144 O.3     1  UNL1       -0.4714
     26 C          -9.6527  -20.8624   24.1104 C.3     1  UNL1        0.1269
     27 C         -10.2744  -20.1461   25.2725 C.3     1  UNL1        0.1586
     28 O          -9.7398  -18.8130   25.7048 O.3     1  UNL1       -0.3802
     29 H          -8.8377  -18.9211   26.0445 H       1  UNL1        0.2105
@<TRIPOS>BOND
     1    24    25    1
     2    25    18    1
     3    18    19   ar
     4    19    20   ar
     5    20    21   ar
     6    21    22   ar
     7    22    17    1
     8    17     1    1
     9     1    26    1
    10    26    27    1
    11    27    28    1
    12     1     2   am
    13     2     3    2
    14     2     4   am
    15     4     6    1
    16     6     7   ar
    17     7     8   ar
    18     8     9   ar
    19     9    12    1
    20    12    13    2
    21    13    14    1
    22    14    15    2
    23    15    16    1
    24     9    10   ar
    25    10    11   ar
    26    22    23   ar
    27    23    18   ar
    28    11     6   ar
    29    16    12    1
    30    28    29    1
    31     4     5    1
@<TRIPOS>MOLECULE
*****
 29 31 0 0 0
SMALL
GASTEIGER

@<TRIPOS>ATOM
      1 N          -8.5249  -16.1013   24.8495 N.am    1  UNL1       -0.2573
      2 C          -7.4232  -16.3683   23.8672 C.2     1  UNL1        0.3080
      3 O          -7.6595  -16.1611   22.4006 O.2     1  UNL1       -0.2522
      4 N          -6.0851  -16.8427   24.3517 N.am    1  UNL1       -0.2681
      5 H          -5.9301  -16.9788   25.3144 H       1  UNL1        0.1564
      6 C          -4.9834  -17.1098   23.3694 C.ar    1  UNL1        0.0516
      7 C          -3.9061  -16.0882   23.1547 C.ar    1  UNL1        0.0147
      8 C          -2.8044  -16.3553   22.1724 C.ar    1  UNL1        0.0011
      9 C          -2.7799  -17.6439   21.4049 C.ar    1  UNL1       -0.0004
     10 C          -3.8571  -18.6653   21.6197 C.ar    1  UNL1        0.0011
     11 C          -4.9589  -18.3983   22.6019 C.ar    1  UNL1        0.0147
     12 C          -1.6782  -17.9109   20.4226 C.2     1  UNL1        0.0249
     13 C          -0.3349  -18.4970   20.7422 C.2     1  UNL1        0.1194
     14 N           0.4472  -18.5871   19.4654 N.2     1  UNL1       -0.1510
     15 N          -0.4127  -18.0566   18.3567 N.2     1  UNL1       -0.1695
     16 C          -1.7263  -17.6387   18.9483 C.3     1  UNL1        0.1771
     17 C          -9.8629  -15.6270   24.3651 C.3     1  UNL1        0.1219
     18 C         -12.0859  -16.8521   21.3143 C.ar    1  UNL1        0.1385
     19 C         -12.3638  -18.2699   21.7174 C.ar    1  UNL1        0.0369
     20 C         -11.8080  -18.8068   23.0030 C.ar    1  UNL1        0.0028
     21 C         -10.9744  -17.9258   23.8856 C.ar    1  UNL1       -0.0024
     22 C         -10.6966  -16.5080   23.4825 C.ar    1  UNL1        0.0007
     23 C         -11.2523  -15.9711   22.1969 C.ar    1  UNL1        0.0343
     24 C         -11.7515  -15.5670   19.0813 C.3     1  UNL1        0.2525
     25 O         -12.6417  -16.3152   20.0286 O.3     1  UNL1       -0.4714
     26 C          -8.2886  -16.3086   26.3163 C.3     1  UNL1        0.1269
     27 C          -7.6417  -15.2286   27.1317 C.3     1  UNL1        0.1586
     28 O          -6.2501  -14.7739   26.8050 O.3     1  UNL1       -0.3802
     29 H          -5.6262  -15.4980   26.9704 H       1  UNL1        0.2105
@<TRIPOS>BOND
     1    24    25    1
     2    25    18    1
     3    18    19   ar
     4    19    20   ar
     5    20    21   ar
     6    21    22   ar
     7    22    17    1
     8    17     1    1
     9     1    26    1
    10    26    27    1
    11    27    28    1
    12     1     2   am
    13     2     3    2
    14     2     4   am
    15     4     6    1
    16     6     7   ar
    17     7     8   ar
    18     8     9   ar
    19     9    12    1
    20    12    13    2
    21    13    14    1
    22    14    15    2
    23    15    16    1
    24     9    10   ar
    25    10    11   ar
    26    22    23   ar
    27    23    18   ar
    28    11     6   ar
    29    16    12    1
    30    28    29    1
    31     4     5    1
@<TRIPOS>MOLECULE
*****
 29 31 0 0 0
SMALL
GASTEIGER

@<TRIPOS>ATOM
      1 N           5.4504   -2.5542   20.6973 N.am    1  UNL1       -0.2573
      2 C           5.4710   -2.9577   22.1418 C.2     1  UNL1        0.3080
      3 O           4.2736   -3.6245   22.7514 O.2     1  UNL1       -0.2522
      4 N           6.6890   -2.6945   22.9768 N.am    1  UNL1       -0.2681
      5 H           7.4749   -2.2568   22.5767 H       1  UNL1        0.1564
      6 C           6.7097   -3.0980   24.4213 C.ar    1  UNL1        0.0516
      7 C           6.5447   -2.0607   25.4923 C.ar    1  UNL1        0.0147
      8 C           6.5653   -2.4643   26.9368 C.ar    1  UNL1        0.0011
      9 C           6.7509   -3.9051   27.3104 C.ar    1  UNL1       -0.0004
     10 C           6.9158   -4.9424   26.2395 C.ar    1  UNL1        0.0011
     11 C           6.8952   -4.5388   24.7950 C.ar    1  UNL1        0.0147
     12 C           6.7715   -4.3087   28.7550 C.2     1  UNL1        0.0249
     13 C           6.6260   -3.3877   29.9299 C.2     1  UNL1        0.1194
     14 N           6.7058   -4.2139   31.1793 N.2     1  UNL1       -0.1510
     15 N           6.9007   -5.6456   30.7765 N.2     1  UNL1       -0.1695
     16 C           6.9413   -5.7043   29.2782 C.3     1  UNL1        0.1771
     17 C           4.2324   -2.8174   19.8623 C.3     1  UNL1        0.1219
     18 C           1.2839   -0.1611   19.8356 C.ar    1  UNL1        0.1385
     19 C           1.6000    0.6006   18.5826 C.ar    1  UNL1        0.0369
     20 C           2.7934    0.2229   17.7562 C.ar    1  UNL1        0.0028
     21 C           3.6709   -0.9164   18.1828 C.ar    1  UNL1       -0.0024
     22 C           3.3549   -1.6780   19.4357 C.ar    1  UNL1        0.0007
     23 C           2.1614   -1.3004   20.2621 C.ar    1  UNL1        0.0343
     24 C          -0.2552    1.6622   20.8636 C.3     1  UNL1        0.2525
     25 O           0.0904    0.2166   20.6620 O.3     1  UNL1       -0.4714
     26 C           6.6478   -1.8873   20.0877 C.3     1  UNL1        0.1269
     27 C           7.3264   -2.5040   18.9006 C.3     1  UNL1        0.1586
     28 O           6.8754   -2.1543   17.5135 O.3     1  UNL1       -0.3802
     29 H           5.9737   -2.4834   17.3741 H       1  UNL1        0.2105
@<TRIPOS>BOND
     1    24    25    1
     2    25    18    1
     3    18    19   ar
     4    19    20   ar
     5    20    21   ar
     6    21    22   ar
     7    22    17    1
     8    17     1    1
     9     1    26    1
    10    26    27    1
    11    27    28    1
    12     1     2   am
    13     2     3    2
    14     2     4   am
    15     4     6    1
    16     6     7   ar
    17     7     8   ar
    18     8     9   ar
    19     9    12    1
    20    12    13    2
    21    13    14    1
    22    14    15    2
    23    15    16    1
    24     9    10   ar
    25    10    11   ar
    26    22    23   ar
    27    23    18   ar
    28    11     6   ar
    29    16    12    1
    30    28    29    1
    31     4     5    1
@<TRIPOS>MOLECULE
*****
 29 31 0 0 0
SMALL
GASTEIGER

@<TRIPOS>ATOM
      1 N          -2.0101    3.5108   21.6959 N.am    1  UNL1       -0.2573
      2 C          -0.7623    2.8124   21.2430 C.2     1  UNL1        0.3080
      3 O           0.5602    3.1671   21.8553 O.2     1  UNL1       -0.2522
      4 N          -0.8372    1.7590   20.1775 N.am    1  UNL1       -0.2681
      5 H          -1.7052    1.5262   19.7756 H       1  UNL1        0.1564
      6 C           0.4106    1.0605   19.7246 C.ar    1  UNL1        0.0516
      7 C           0.8256   -0.2279   20.3709 C.ar    1  UNL1        0.0147
      8 C           2.0733   -0.9264   19.9179 C.ar    1  UNL1        0.0011
      9 C           2.9061   -0.3364   18.8186 C.ar    1  UNL1       -0.0004
     10 C           2.4911    0.9520   18.1723 C.ar    1  UNL1        0.0011
     11 C           1.2434    1.6505   18.6253 C.ar    1  UNL1        0.0147
     12 C           4.1539   -1.0349   18.3656 C.2     1  UNL1        0.0249
     13 C           4.4285   -2.5058   18.4704 C.2     1  UNL1        0.1194
     14 N           5.7904   -2.7652   17.8978 N.2     1  UNL1       -0.1510
     15 N           6.3576   -1.4545   17.4391 N.2     1  UNL1       -0.1695
     16 C           5.3462   -0.3851   17.7281 C.3     1  UNL1        0.1771
     17 C          -1.9353    4.5641   22.7613 C.3     1  UNL1        0.1219
     18 C          -4.6920    4.6517   25.6150 C.ar    1  UNL1        0.1385
     19 C          -3.9854    3.9155   26.7143 C.ar    1  UNL1        0.0369
     20 C          -2.5954    3.3955   26.4961 C.ar    1  UNL1        0.0028
     21 C          -1.9121    3.6117   25.1784 C.ar    1  UNL1       -0.0024
     22 C          -2.6187    4.3479   24.0790 C.ar    1  UNL1        0.0007
     23 C          -4.0086    4.8679   24.2973 C.ar    1  UNL1        0.0343
     24 C          -6.7341    6.0299   24.7901 C.3     1  UNL1        0.2525
     25 O          -6.0819    5.1718   25.8332 O.3     1  UNL1       -0.4714
     26 C          -3.3327    3.1560   21.0835 C.3     1  UNL1        0.1269
     27 C          -3.7328    3.7509   19.7660 C.3     1  UNL1        0.1586
     28 O          -2.7347    3.8413   18.6499 O.3     1  UNL1       -0.3802
     29 H          -2.0274    4.4570   18.8979 H       1  UNL1        0.2105
@<TRIPOS>BOND
     1    24    25    1
     2    25    18    1
     3    18    19   ar
     4    19    20   ar
     5    20    21   ar
     6    21    22   ar
     7    22    17    1
     8    17     1    1
     9     1    26    1
    10    26    27    1
    11    27    28    1
    12     1     2   am
    13     2     3    2
    14     2     4   am
    15     4     6    1
    16     6     7   ar
    17     7     8   ar
    18     8     9   ar
    19     9    12    1
    20    12    13    2
    21    13    14    1
    22    14    15    2
    23    15    16    1
    24     9    10   ar
    25    10    11   ar
    26    22    23   ar
    27    23    18   ar
    28    11     6   ar
    29    16    12    1
    30    28    29    1
    31     4     5    1
@<TRIPOS>MOLECULE
*****
 29 31 0 0 0
SMALL
GASTEIGER

@<TRIPOS>ATOM
      1 N          -1.9065    3.4925   21.6078 N.am    1  UNL1       -0.2573
      2 C          -0.6641    2.7742   21.1714 C.2     1  UNL1        0.3080
      3 O           0.6560    3.1098   21.7995 O.2     1  UNL1       -0.2522
      4 N          -0.7419    1.7202   20.1069 N.am    1  UNL1       -0.2681
      5 H          -1.6084    1.5000   19.6946 H       1  UNL1        0.1564
      6 C           0.5005    1.0019   19.6704 C.ar    1  UNL1        0.0516
      7 C           0.9070   -0.2730   20.3483 C.ar    1  UNL1        0.0147
      8 C           2.1494   -0.9913   19.9119 C.ar    1  UNL1        0.0011
      9 C           2.9853   -0.4347   18.7976 C.ar    1  UNL1       -0.0004
     10 C           2.5787    0.8402   18.1197 C.ar    1  UNL1        0.0011
     11 C           1.3363    1.5585   18.5562 C.ar    1  UNL1        0.0147
     12 C           4.2277   -1.1529   18.3611 C.2     1  UNL1        0.0249
     13 C           5.3843   -0.5457   17.6240 C.2     1  UNL1        0.1194
     14 N           6.4031   -1.6220   17.3925 N.2     1  UNL1       -0.1510
     15 N           5.8761   -2.8946   17.9865 N.2     1  UNL1       -0.1695
     16 C           4.5316   -2.6047   18.5852 C.3     1  UNL1        0.1771
     17 C          -1.8288    4.5464   22.6723 C.3     1  UNL1        0.1219
     18 C          -2.1148    3.2453   26.4107 C.ar    1  UNL1        0.1385
     19 C          -3.4877    3.7277   26.7745 C.ar    1  UNL1        0.0369
     20 C          -4.3076    4.4830   25.7709 C.ar    1  UNL1        0.0028
     21 C          -3.7547    4.7559   24.4036 C.ar    1  UNL1       -0.0024
     22 C          -2.3818    4.2735   24.0398 C.ar    1  UNL1        0.0007
     23 C          -1.5618    3.5182   25.0434 C.ar    1  UNL1        0.0343
     24 C          -0.4709    1.3150   26.9779 C.3     1  UNL1        0.2525
     25 O          -1.2948    2.4901   27.4143 O.3     1  UNL1       -0.4714
     26 C          -3.2268    3.1568   20.9797 C.3     1  UNL1        0.1269
     27 C          -3.5930    3.7395   19.6469 C.3     1  UNL1        0.1586
     28 O          -2.5553    3.8601   18.5706 O.3     1  UNL1       -0.3802
     29 H          -1.8770    4.4968   18.8453 H       1  UNL1        0.2105
@<TRIPOS>BOND
     1    24    25    1
     2    25    18    1
     3    18    19   ar
     4    19    20   ar
     5    20    21   ar
     6    21    22   ar
     7    22    17    1
     8    17     1    1
     9     1    26    1
    10    26    27    1
    11    27    28    1
    12     1     2   am
    13     2     3    2
    14     2     4   am
    15     4     6    1
    16     6     7   ar
    17     7     8   ar
    18     8     9   ar
    19     9    12    1
    20    12    13    2
    21    13    14    1
    22    14    15    2
    23    15    16    1
    24     9    10   ar
    25    10    11   ar
    26    22    23   ar
    27    23    18   ar
    28    11     6   ar
    29    16    12    1
    30    28    29    1
    31     4     5    1
@<TRIPOS>MOLECULE
*****
 29 31 0 0 0
SMALL
GASTEIGER

@<TRIPOS>ATOM
      1 N           5.2290   -2.4021   20.1926 N.am    1  UNL1       -0.2573
      2 C           5.5519   -3.3206   21.3337 C.2     1  UNL1        0.3080
      3 O           4.5495   -4.3434   21.7800 O.2     1  UNL1       -0.2522
      4 N           6.8772   -3.2163   22.0286 N.am    1  UNL1       -0.2681
      5 H           7.5351   -2.5451   21.7357 H       1  UNL1        0.1564
      6 C           7.2000   -4.1349   23.1697 C.ar    1  UNL1        0.0516
      7 C           6.5958   -3.8931   24.5212 C.ar    1  UNL1        0.0147
      8 C           6.9186   -4.8116   25.6623 C.ar    1  UNL1        0.0011
      9 C           7.8457   -5.9719   25.4519 C.ar    1  UNL1       -0.0004
     10 C           8.4499   -6.2137   24.1004 C.ar    1  UNL1        0.0011
     11 C           8.1271   -5.2951   22.9593 C.ar    1  UNL1        0.0147
     12 C           8.1686   -6.8904   26.5929 C.2     1  UNL1        0.0249
     13 C           8.6329   -6.4728   27.9568 C.2     1  UNL1        0.1194
     14 N           8.8351   -7.7121   28.7773 N.2     1  UNL1       -0.1510
     15 N           8.4958   -8.8957   27.9206 N.2     1  UNL1       -0.1695
     16 C           8.0838   -8.3879   26.5705 C.3     1  UNL1        0.1771
     17 C           3.9038   -2.5063   19.4978 C.3     1  UNL1        0.1219
     18 C           1.1246    0.2365   20.2072 C.ar    1  UNL1        0.1385
     19 C           1.3157    1.1450   19.0290 C.ar    1  UNL1        0.0369
     20 C           2.3694    0.8363   18.0070 C.ar    1  UNL1        0.0028
     21 C           3.2321   -0.3808   18.1633 C.ar    1  UNL1       -0.0024
     22 C           3.0411   -1.2892   19.3415 C.ar    1  UNL1        0.0007
     23 C           1.9873   -0.9805   20.3634 C.ar    1  UNL1        0.0343
     24 C           0.0345    1.8936   21.8852 C.3     1  UNL1        0.2525
     25 O           0.0709    0.5452   21.2291 O.3     1  UNL1       -0.4714
     26 C           6.2315   -1.3793   19.7464 C.3     1  UNL1        0.1269
     27 C           7.1976   -1.7061   18.6466 C.3     1  UNL1        0.1586
     28 O           6.7025   -2.3230   17.3721 O.3     1  UNL1       -0.3802
     29 H           6.3584   -3.2113   17.5552 H       1  UNL1        0.2105
@<TRIPOS>BOND
     1    24    25    1
     2    25    18    1
     3    18    19   ar
     4    19    20   ar
     5    20    21   ar
     6    21    22   ar
     7    22    17    1
     8    17     1    1
     9     1    26    1
    10    26    27    1
    11    27    28    1
    12     1     2   am
    13     2     3    2
    14     2     4   am
    15     4     6    1
    16     6     7   ar
    17     7     8   ar
    18     8     9   ar
    19     9    12    1
    20    12    13    2
    21    13    14    1
    22    14    15    2
    23    15    16    1
    24     9    10   ar
    25    10    11   ar
    26    22    23   ar
    27    23    18   ar
    28    11     6   ar
    29    16    12    1
    30    28    29    1
    31     4     5    1
@<TRIPOS>MOLECULE
*****
 29 31 0 0 0
SMALL
GASTEIGER

@<TRIPOS>ATOM
      1 N           2.4733   -0.1558   21.5885 N.am    1  UNL1       -0.2573
      2 C           1.3996    0.6205   22.2918 C.2     1  UNL1        0.3080
      3 O           0.0816    0.8586   21.6165 O.2     1  UNL1       -0.2522
      4 N           1.6441    1.1588   23.6704 N.am    1  UNL1       -0.2681
      5 H           2.5092    1.0025   24.1137 H       1  UNL1        0.1564
      6 C           0.5704    1.9351   24.3737 C.ar    1  UNL1        0.0516
      7 C          -0.0364    1.4005   25.6371 C.ar    1  UNL1        0.0147
      8 C          -1.1101    2.1768   26.3404 C.ar    1  UNL1        0.0011
      9 C          -1.5769    3.4877   25.7803 C.ar    1  UNL1       -0.0004
     10 C          -0.9700    4.0223   24.5170 C.ar    1  UNL1        0.0011
     11 C           0.1036    3.2460   23.8137 C.ar    1  UNL1        0.0147
     12 C          -2.6505    4.2640   26.4836 C.2     1  UNL1        0.0249
     13 C          -2.4588    5.5402   27.2481 C.2     1  UNL1        0.1194
     14 N          -3.7942    5.9654   27.7829 N.2     1  UNL1       -0.1510
     15 N          -4.8113    4.9520   27.3488 N.2     1  UNL1       -0.1695
     16 C          -4.1045    3.9004   26.5458 C.3     1  UNL1        0.1771
     17 C           2.2289   -0.6940   20.2099 C.3     1  UNL1        0.1219
     18 C           5.3910   -1.6502   18.0106 C.ar    1  UNL1        0.1385
     19 C           5.3968   -3.1430   18.1564 C.ar    1  UNL1        0.0369
     20 C           4.3466   -3.8196   18.9867 C.ar    1  UNL1        0.0028
     21 C           3.2907   -3.0033   19.6712 C.ar    1  UNL1       -0.0024
     22 C           3.2849   -1.5104   19.5254 C.ar    1  UNL1        0.0007
     23 C           4.3351   -0.8339   18.6951 C.ar    1  UNL1        0.0343
     24 C           6.3208    0.4877   16.8638 C.3     1  UNL1        0.2525
     25 O           6.4412   -0.9736   17.1803 O.3     1  UNL1       -0.4714
     26 C           3.7914   -0.3939   22.2639 C.3     1  UNL1        0.1269
     27 C           3.9001   -1.4143   23.3579 C.3     1  UNL1        0.1586
     28 O           3.2644   -1.1546   24.6915 O.3     1  UNL1       -0.3802
     29 H           3.7090   -0.4075   25.1216 H       1  UNL1        0.2105
@<TRIPOS>BOND
     1    24    25    1
     2    25    18    1
     3    18    19   ar
     4    19    20   ar
     5    20    21   ar
     6    21    22   ar
     7    22    17    1
     8    17     1    1
     9     1    26    1
    10    26    27    1
    11    27    28    1
    12     1     2   am
    13     2     3    2
    14     2     4   am
    15     4     6    1
    16     6     7   ar
    17     7     8   ar
    18     8     9   ar
    19     9    12    1
    20    12    13    2
    21    13    14    1
    22    14    15    2
    23    15    16    1
    24     9    10   ar
    25    10    11   ar
    26    22    23   ar
    27    23    18   ar
    28    11     6   ar
    29    16    12    1
    30    28    29    1
    31     4     5    1
@<TRIPOS>MOLECULE
*****
 29 31 0 0 0
SMALL
GASTEIGER

@<TRIPOS>ATOM
      1 N          -8.3191  -15.7932   24.9310 N.am    1  UNL1       -0.2573
      2 C          -7.2477  -16.1305   23.9369 C.2     1  UNL1        0.3080
      3 O          -7.5589  -16.1302   22.4696 O.2     1  UNL1       -0.2522
      4 N          -5.8649  -16.4682   24.4102 N.am    1  UNL1       -0.2681
      5 H          -5.6606  -16.4684   25.3733 H       1  UNL1        0.1564
      6 C          -4.7934  -16.8054   23.4161 C.ar    1  UNL1        0.0516
      7 C          -3.7997  -15.7612   23.0012 C.ar    1  UNL1        0.0147
      8 C          -2.7282  -16.0985   22.0071 C.ar    1  UNL1        0.0011
      9 C          -2.6505  -17.4800   21.4280 C.ar    1  UNL1       -0.0004
     10 C          -3.6441  -18.5242   21.8429 C.ar    1  UNL1        0.0011
     11 C          -4.7156  -18.1869   22.8370 C.ar    1  UNL1        0.0147
     12 C          -1.5790  -17.8173   20.4339 C.2     1  UNL1        0.0249
     13 C          -1.6654  -17.6330   18.9478 C.2     1  UNL1        0.1194
     14 N          -0.3728  -18.0999   18.3468 N.2     1  UNL1       -0.1510
     15 N           0.5125  -18.5728   19.4615 N.2     1  UNL1       -0.1695
     16 C          -0.2329  -18.3982   20.7515 C.3     1  UNL1        0.1771
     17 C          -9.7019  -15.4556   24.4577 C.3     1  UNL1        0.1219
     18 C         -11.0670  -18.9468   23.1547 C.ar    1  UNL1        0.1385
     19 C         -12.1004  -18.4958   22.1656 C.ar    1  UNL1        0.0369
     20 C         -12.3344  -17.0314   21.9404 C.ar    1  UNL1        0.0028
     21 C         -11.5349  -16.0180   22.7045 C.ar    1  UNL1       -0.0024
     22 C         -10.5014  -16.4690   23.6936 C.ar    1  UNL1        0.0007
     23 C         -10.2675  -17.9334   23.9187 C.ar    1  UNL1        0.0343
     24 C          -9.6675  -20.8661   24.2072 C.3     1  UNL1        0.2525
     25 O         -10.8330  -20.4113   23.3798 O.3     1  UNL1       -0.4714
     26 C          -8.0078  -15.7936   26.3984 C.3     1  UNL1        0.1269
     27 C          -6.7404  -15.1645   26.8963 C.3     1  UNL1        0.1586
     28 O          -6.7939  -14.1179   27.9694 O.3     1  UNL1       -0.3802
     29 H          -7.2440  -13.3288   27.6292 H       1  UNL1        0.2105
@<TRIPOS>BOND
     1    24    25    1
     2    25    18    1
     3    18    19   ar
     4    19    20   ar
     5    20    21   ar
     6    21    22   ar
     7    22    17    1
     8    17     1    1
     9     1    26    1
    10    26    27    1
    11    27    28    1
    12     1     2   am
    13     2     3    2
    14     2     4   am
    15     4     6    1
    16     6     7   ar
    17     7     8   ar
    18     8     9   ar
    19     9    12    1
    20    12    13    2
    21    13    14    1
    22    14    15    2
    23    15    16    1
    24     9    10   ar
    25    10    11   ar
    26    22    23   ar
    27    23    18   ar
    28    11     6   ar
    29    16    12    1
    30    28    29    1
    31     4     5    1
@<TRIPOS>MOLECULE
*****
 29 31 0 0 0
SMALL
GASTEIGER

@<TRIPOS>ATOM
      1 N           6.6755   -3.5946   27.9956 N.am    1  UNL1       -0.2573
      2 C           6.6439   -3.2168   26.5443 C.2     1  UNL1        0.3080
      3 O           6.9974   -1.8207   26.1249 O.2     1  UNL1       -0.2522
      4 N           6.2588   -4.2352   25.5124 N.am    1  UNL1       -0.2681
      5 H           6.0268   -5.1515   25.7877 H       1  UNL1        0.1564
      6 C           6.2272   -3.8574   24.0611 C.ar    1  UNL1        0.0516
      7 C           5.0380   -3.1357   23.4997 C.ar    1  UNL1        0.0147
      8 C           5.0065   -2.7579   22.0484 C.ar    1  UNL1        0.0011
      9 C           6.1641   -3.1017   21.1585 C.ar    1  UNL1       -0.0004
     10 C           7.3532   -3.8234   21.7200 C.ar    1  UNL1        0.0011
     11 C           7.3847   -4.2012   23.1712 C.ar    1  UNL1        0.0147
     12 C           6.1325   -2.7239   19.7072 C.2     1  UNL1        0.0249
     13 C           7.3191   -2.3600   18.8648 C.2     1  UNL1        0.1194
     14 N           6.8287   -2.0549   17.4805 N.2     1  UNL1       -0.1510
     15 N           5.3391   -2.2302   17.4672 N.2     1  UNL1       -0.1695
     16 C           4.9087   -2.6437   18.8434 C.3     1  UNL1        0.1771
     17 C           7.0605   -2.5764   29.0275 C.3     1  UNL1        0.1219
     18 C           4.1223   -1.1947   31.3095 C.ar    1  UNL1        0.1385
     19 C           4.4194   -1.8890   32.6054 C.ar    1  UNL1        0.0369
     20 C           5.5970   -2.8124   32.7088 C.ar    1  UNL1        0.0028
     21 C           6.4773   -3.0415   31.5162 C.ar    1  UNL1       -0.0024
     22 C           6.1802   -2.3472   30.2202 C.ar    1  UNL1        0.0007
     23 C           5.0026   -1.4238   30.1168 C.ar    1  UNL1        0.0343
     24 C           2.0966   -0.2729   29.9690 C.3     1  UNL1        0.2525
     25 O           2.9447   -0.2712   31.2061 O.3     1  UNL1       -0.4714
     26 C           6.3219   -4.9908   28.4150 C.3     1  UNL1        0.1269
     27 C           7.4040   -5.9529   28.8066 C.3     1  UNL1        0.1586
     28 O           7.9407   -5.9484   30.2073 O.3     1  UNL1       -0.3802
     29 H           8.4000   -5.1106   30.3748 H       1  UNL1        0.2105
@<TRIPOS>BOND
     1    24    25    1
     2    25    18    1
     3    18    19   ar
     4    19    20   ar
     5    20    21   ar
     6    21    22   ar
     7    22    17    1
     8    17     1    1
     9     1    26    1
    10    26    27    1
    11    27    28    1
    12     1     2   am
    13     2     3    2
    14     2     4   am
    15     4     6    1
    16     6     7   ar
    17     7     8   ar
    18     8     9   ar
    19     9    12    1
    20    12    13    2
    21    13    14    1
    22    14    15    2
    23    15    16    1
    24     9    10   ar
    25    10    11   ar
    26    22    23   ar
    27    23    18   ar
    28    11     6   ar
    29    16    12    1
    30    28    29    1
    31     4     5    1
