@<TRIPOS>MOLECULE
*****
 25 27 0 0 0
SMALL
GASTEIGER

@<TRIPOS>ATOM
      1 C         -14.1568   -7.5378   18.5658 C.ar    1  UNL1        0.0395
      2 C         -14.3908   -6.3814   19.4921 C.ar    1  UNL1        0.0063
      3 C         -13.3317   -5.3336   19.6660 C.ar    1  UNL1        0.0376
      4 C         -12.0386   -5.4421   18.9136 C.ar    1  UNL1        0.1453
      5 C         -11.8046   -6.5985   17.9874 C.ar    1  UNL1        0.0376
      6 C         -12.8637   -7.6463   17.8135 C.ar    1  UNL1        0.0063
      7 N         -17.3460   -9.6649   17.9574 N.ar    1  UNL1       -0.1509
      8 N         -16.3455  -10.7316   18.2911 N.ar    1  UNL1       -0.0451
      9 N         -15.0291  -10.0645   18.5597 N.ar    1  UNL1       -0.1077
     10 C         -15.2160   -8.5857   18.3919 C.ar    1  UNL1        0.2058
     11 N         -16.6479   -8.3387   18.0197 N.ar    1  UNL1       -0.1297
     12 C         -18.7909   -9.8857   17.6205 C.3     1  UNL1        0.1527
     13 C         -19.8562   -9.5221   18.6118 C.3     1  UNL1        0.0452
     14 N         -18.8533   -7.8138   20.2930 N.3     1  UNL1       -0.3211
     15 C         -19.4791   -9.1483   20.0148 C.3     1  UNL1        0.0673
     16 H         -18.6640   -7.7287   21.2916 H       1  UNL1        0.1189
     17 H         -19.4910   -7.0723   20.0033 H       1  UNL1        0.1189
     18 O         -10.9794   -4.3942   19.0876 O.3     1  UNL1       -0.4535
     19 C         -11.1733   -3.0273   18.5010 C.ar    1  UNL1        0.1454
     20 C         -10.4175   -2.6257   17.2692 C.ar    1  UNL1        0.0384
     21 C         -10.6114   -1.2588   16.6826 C.ar    1  UNL1        0.0145
     22 C         -11.5610   -0.2935   17.3280 C.ar    1  UNL1        0.0579
     23 CL        -11.7548    1.0733   16.7415 Cl      1  UNL1       -0.0822
     24 C         -12.3167   -0.6951   18.5599 C.ar    1  UNL1        0.0145
     25 C         -12.1229   -2.0620   19.1464 C.ar    1  UNL1        0.0384
@<TRIPOS>BOND
     1    14    15    1
     2    15    13    1
     3    13    12    1
     4    12     7    1
     5     7     8   ar
     6     8     9   ar
     7     9    10   ar
     8    10     1    1
     9     1     2   ar
    10     2     3   ar
    11     3     4   ar
    12     4    18    1
    13    18    19    1
    14    19    20   ar
    15    20    21   ar
    16    21    22   ar
    17    22    23    1
    18    22    24   ar
    19    24    25   ar
    20     4     5   ar
    21     5     6   ar
    22    10    11   ar
    23    11     7   ar
    24     6     1   ar
    25    25    19   ar
    26    14    16    1
    27    14    17    1
@<TRIPOS>MOLECULE
*****
 25 27 0 0 0
SMALL
GASTEIGER

@<TRIPOS>ATOM
      1 C         -15.1650   -1.1374   19.6738 C.ar    1  UNL1        0.0395
      2 C         -14.6030   -2.4208   20.2094 C.ar    1  UNL1        0.0063
      3 C         -13.2425   -2.8817   19.7775 C.ar    1  UNL1        0.0376
      4 C         -12.4441   -2.0593   18.8100 C.ar    1  UNL1        0.1453
      5 C         -13.0061   -0.7759   18.2744 C.ar    1  UNL1        0.0376
      6 C         -14.3666   -0.3149   18.7063 C.ar    1  UNL1        0.0063
      7 N         -18.3311    0.6961   20.9700 N.ar    1  UNL1       -0.1509
      8 N         -18.9072   -0.6300   20.5707 N.ar    1  UNL1       -0.0451
      9 N         -17.7913   -1.4782   20.0365 N.ar    1  UNL1       -0.1077
     10 C         -16.5255   -0.6763   20.1057 C.ar    1  UNL1        0.2058
     11 N         -16.8591    0.6675   20.6826 N.ar    1  UNL1       -0.1297
     12 C         -19.0931    1.8486   21.5541 C.3     1  UNL1        0.1527
     13 C         -18.3714    2.9053   22.3368 C.3     1  UNL1        0.0452
     14 N         -18.9166    1.6919   24.5684 N.3     1  UNL1       -0.3211
     15 C         -18.4498    2.9140   23.8347 C.3     1  UNL1        0.0673
     16 H         -18.9077    1.8737   25.5721 H       1  UNL1        0.1189
     17 H         -18.2946    0.9112   24.3588 H       1  UNL1        0.1189
     18 O         -11.0835   -2.5203   18.3781 O.3     1  UNL1       -0.4535
     19 C         -10.8043   -3.9852   18.2166 C.ar    1  UNL1        0.1454
     20 C         -11.4241   -4.7463   17.0823 C.ar    1  UNL1        0.0384
     21 C         -11.1448   -6.2113   16.9209 C.ar    1  UNL1        0.0145
     22 C         -10.2457   -6.9150   17.8937 C.ar    1  UNL1        0.0579
     23 CL         -9.9665   -8.3799   17.7322 Cl      1  UNL1       -0.0822
     24 C          -9.6259   -6.1539   19.0279 C.ar    1  UNL1        0.0145
     25 C          -9.9052   -4.6890   19.1894 C.ar    1  UNL1        0.0384
@<TRIPOS>BOND
     1    14    15    1
     2    15    13    1
     3    13    12    1
     4    12     7    1
     5     7     8   ar
     6     8     9   ar
     7     9    10   ar
     8    10     1    1
     9     1     2   ar
    10     2     3   ar
    11     3     4   ar
    12     4    18    1
    13    18    19    1
    14    19    20   ar
    15    20    21   ar
    16    21    22   ar
    17    22    23    1
    18    22    24   ar
    19    24    25   ar
    20     4     5   ar
    21     5     6   ar
    22    10    11   ar
    23    11     7   ar
    24     6     1   ar
    25    25    19   ar
    26    14    16    1
    27    14    17    1
@<TRIPOS>MOLECULE
*****
 25 27 0 0 0
SMALL
GASTEIGER

@<TRIPOS>ATOM
      1 C         -13.1772   -1.2994   18.6324 C.ar    1  UNL1        0.0395
      2 C         -13.0941    0.1423   18.2267 C.ar    1  UNL1        0.0063
      3 C         -14.2343    1.0712   18.5215 C.ar    1  UNL1        0.0376
      4 C         -15.4576    0.5585   19.2220 C.ar    1  UNL1        0.1453
      5 C         -15.5407   -0.8832   19.6277 C.ar    1  UNL1        0.0376
      6 C         -14.4005   -1.8121   19.3329 C.ar    1  UNL1        0.0063
      7 N         -10.4311   -4.0399   18.5120 N.ar    1  UNL1       -0.1509
      8 N         -10.1337   -3.2761   17.2557 N.ar    1  UNL1       -0.0451
      9 N         -11.1262   -2.1566   17.1479 N.ar    1  UNL1       -0.1077
     10 C         -12.0370   -2.2285   18.3375 C.ar    1  UNL1        0.2058
     11 N         -11.6074   -3.3924   19.1806 N.ar    1  UNL1       -0.1297
     12 C          -9.6835   -5.2404   19.0119 C.3     1  UNL1        0.1527
     13 C         -10.3149   -6.5993   18.9432 C.3     1  UNL1        0.0452
     14 N          -9.7575   -8.7883   17.6596 N.3     1  UNL1       -0.3211
     15 C          -9.4572   -7.8165   18.7620 C.3     1  UNL1        0.0673
     16 H          -9.0795   -9.5500   17.6837 H       1  UNL1        0.1189
     17 H          -9.7003   -8.3105   16.7602 H       1  UNL1        0.1189
     18 O         -16.5978    1.4875   19.5169 O.3     1  UNL1       -0.4535
     19 C         -16.6102    2.2790   20.7910 C.ar    1  UNL1        0.1454
     20 C         -17.3461    1.7587   21.9900 C.ar    1  UNL1        0.0384
     21 C         -17.3585    2.5503   23.2642 C.ar    1  UNL1        0.0145
     22 C         -16.6349    3.8620   23.3392 C.ar    1  UNL1        0.0579
     23 CL        -16.6472    4.6535   24.6133 Cl      1  UNL1       -0.0822
     24 C         -15.8989    4.3823   22.1402 C.ar    1  UNL1        0.0145
     25 C         -15.8865    3.5908   20.8661 C.ar    1  UNL1        0.0384
@<TRIPOS>BOND
     1    14    15    1
     2    15    13    1
     3    13    12    1
     4    12     7    1
     5     7     8   ar
     6     8     9   ar
     7     9    10   ar
     8    10     1    1
     9     1     2   ar
    10     2     3   ar
    11     3     4   ar
    12     4    18    1
    13    18    19    1
    14    19    20   ar
    15    20    21   ar
    16    21    22   ar
    17    22    23    1
    18    22    24   ar
    19    24    25   ar
    20     4     5   ar
    21     5     6   ar
    22    10    11   ar
    23    11     7   ar
    24     6     1   ar
    25    25    19   ar
    26    14    16    1
    27    14    17    1
@<TRIPOS>MOLECULE
*****
 25 27 0 0 0
SMALL
GASTEIGER

@<TRIPOS>ATOM
      1 C           5.9517   -3.4504   20.6537 C.ar    1  UNL1        0.0395
      2 C           6.2629   -1.9893   20.5183 C.ar    1  UNL1        0.0063
      3 C           5.3724   -1.1060   19.6956 C.ar    1  UNL1        0.0376
      4 C           4.1709   -1.6837   19.0083 C.ar    1  UNL1        0.1453
      5 C           3.8597   -3.1448   19.1437 C.ar    1  UNL1        0.0376
      6 C           4.7501   -4.0281   19.9663 C.ar    1  UNL1        0.0063
      7 N           7.8188   -5.5180   23.3563 N.ar    1  UNL1       -0.1509
      8 N           8.6058   -5.8684   22.1283 N.ar    1  UNL1       -0.0451
      9 N           8.0022   -5.1365   20.9665 N.ar    1  UNL1       -0.1077
     10 C           6.8421   -4.3338   21.4764 C.ar    1  UNL1        0.2058
     11 N           6.7288   -4.5695   22.9534 N.ar    1  UNL1       -0.1297
     12 C           8.0767   -6.0267   24.7437 C.3     1  UNL1        0.1527
     13 C           8.2935   -7.4925   24.9768 C.3     1  UNL1        0.0452
     14 N           6.6486   -8.6121   26.6474 N.3     1  UNL1       -0.3211
     15 C           8.0162   -8.0864   26.3260 C.3     1  UNL1        0.0673
     16 H           6.6396   -8.9763   27.6001 H       1  UNL1        0.1189
     17 H           6.4097   -9.3592   25.9954 H       1  UNL1        0.1189
     18 O           3.2804   -0.8003   18.1856 O.3     1  UNL1       -0.4535
     19 C           2.2291    0.0355   18.8534 C.ar    1  UNL1        0.1454
     20 C           2.0317    1.4637   18.4398 C.ar    1  UNL1        0.0384
     21 C           0.9802    2.2995   19.1078 C.ar    1  UNL1        0.0145
     22 C           0.1262    1.7070   20.1892 C.ar    1  UNL1        0.0579
     23 CL         -0.9251    2.5427   20.8571 Cl      1  UNL1       -0.0822
     24 C           0.3236    0.2787   20.6028 C.ar    1  UNL1        0.0145
     25 C           1.3750   -0.5571   19.9349 C.ar    1  UNL1        0.0384
@<TRIPOS>BOND
     1    14    15    1
     2    15    13    1
     3    13    12    1
     4    12     7    1
     5     7     8   ar
     6     8     9   ar
     7     9    10   ar
     8    10     1    1
     9     1     2   ar
    10     2     3   ar
    11     3     4   ar
    12     4    18    1
    13    18    19    1
    14    19    20   ar
    15    20    21   ar
    16    21    22   ar
    17    22    23    1
    18    22    24   ar
    19    24    25   ar
    20     4     5   ar
    21     5     6   ar
    22    10    11   ar
    23    11     7   ar
    24     6     1   ar
    25    25    19   ar
    26    14    16    1
    27    14    17    1
@<TRIPOS>MOLECULE
*****
 25 27 0 0 0
SMALL
GASTEIGER

@<TRIPOS>ATOM
      1 C           2.0379    0.7232   19.0085 C.ar    1  UNL1        0.0395
      2 C           1.0496    0.2457   20.0308 C.ar    1  UNL1        0.0063
      3 C           0.0418    1.1987   20.6019 C.ar    1  UNL1        0.0376
      4 C           0.0224    2.6291   20.1507 C.ar    1  UNL1        0.1453
      5 C           1.0107    3.1065   19.1284 C.ar    1  UNL1        0.0376
      6 C           2.0185    2.1536   18.5573 C.ar    1  UNL1        0.0063
      7 N           4.5514   -2.1157   18.1785 N.ar    1  UNL1       -0.1509
      8 N           4.6420   -1.2766   16.9384 N.ar    1  UNL1       -0.0451
      9 N           3.7115   -0.1111   17.0984 N.ar    1  UNL1       -0.1077
     10 C           3.0458   -0.2298   18.4374 C.ar    1  UNL1        0.2058
     11 N           3.5649   -1.4687   19.1049 N.ar    1  UNL1       -0.1297
     12 C           5.3135   -3.3799   18.4453 C.3     1  UNL1        0.1527
     13 C           4.5757   -4.6580   18.7136 C.3     1  UNL1        0.0452
     14 N           4.2883   -4.0395   21.2206 N.3     1  UNL1       -0.3211
     15 C           3.8952   -4.8682   20.0338 C.3     1  UNL1        0.0673
     16 H           3.7281   -4.3140   22.0276 H       1  UNL1        0.1189
     17 H           4.1278   -3.0534   21.0149 H       1  UNL1        0.1189
     18 O          -0.9855    3.5820   20.7219 O.3     1  UNL1       -0.4535
     19 C          -2.4074    3.5443   20.2456 C.ar    1  UNL1        0.1454
     20 C          -3.5041    3.1480   21.1891 C.ar    1  UNL1        0.0384
     21 C          -4.9260    3.1103   20.7128 C.ar    1  UNL1        0.0145
     22 C          -5.2511    3.4688   19.2931 C.ar    1  UNL1        0.0579
     23 CL         -6.6730    3.4310   18.8168 Cl      1  UNL1       -0.0822
     24 C          -4.1544    3.8650   18.3496 C.ar    1  UNL1        0.0145
     25 C          -2.7326    3.9028   18.8258 C.ar    1  UNL1        0.0384
@<TRIPOS>BOND
     1    14    15    1
     2    15    13    1
     3    13    12    1
     4    12     7    1
     5     7     8   ar
     6     8     9   ar
     7     9    10   ar
     8    10     1    1
     9     1     2   ar
    10     2     3   ar
    11     3     4   ar
    12     4    18    1
    13    18    19    1
    14    19    20   ar
    15    20    21   ar
    16    21    22   ar
    17    22    23    1
    18    22    24   ar
    19    24    25   ar
    20     4     5   ar
    21     5     6   ar
    22    10    11   ar
    23    11     7   ar
    24     6     1   ar
    25    25    19   ar
    26    14    16    1
    27    14    17    1
@<TRIPOS>MOLECULE
*****
 25 27 0 0 0
SMALL
GASTEIGER

@<TRIPOS>ATOM
      1 C           5.8688   -3.3839   20.4657 C.ar    1  UNL1        0.0395
      2 C           6.4915   -2.8101   19.2276 C.ar    1  UNL1        0.0063
      3 C           5.6618   -1.9973   18.2784 C.ar    1  UNL1        0.0376
      4 C           4.2094   -1.7582   18.5674 C.ar    1  UNL1        0.1453
      5 C           3.5868   -2.3320   19.8055 C.ar    1  UNL1        0.0376
      6 C           4.4164   -3.1448   20.7547 C.ar    1  UNL1        0.0063
      7 N           7.5343   -5.2344   23.4435 N.ar    1  UNL1       -0.1509
      8 N           8.4163   -5.6607   22.3075 N.ar    1  UNL1       -0.0451
      9 N           7.8997   -5.0194   21.0538 N.ar    1  UNL1       -0.1077
     10 C           6.6985   -4.1967   21.4149 C.ar    1  UNL1        0.2058
     11 N           6.4727   -4.3296   22.8918 N.ar    1  UNL1       -0.1297
     12 C           7.6871   -5.6415   24.8791 C.3     1  UNL1        0.1527
     13 C           7.0285   -4.8376   25.9608 C.3     1  UNL1        0.0452
     14 N           5.5435   -5.8505   27.8367 N.3     1  UNL1       -0.3211
     15 C           6.8885   -5.4093   27.3405 C.3     1  UNL1        0.0673
     16 H           5.6329   -6.2104   28.7869 H       1  UNL1        0.1189
     17 H           5.1804   -6.5840   27.2280 H       1  UNL1        0.1189
     18 O           3.3797   -0.9454   17.6182 O.3     1  UNL1       -0.4535
     19 C           2.8395    0.3869   18.0461 C.ar    1  UNL1        0.1454
     20 C           1.3636    0.5698   18.2422 C.ar    1  UNL1        0.0384
     21 C           0.8234    1.9022   18.6702 C.ar    1  UNL1        0.0145
     22 C           1.7589    3.0515   18.9019 C.ar    1  UNL1        0.0579
     23 CL          1.2186    4.3837   19.3298 Cl      1  UNL1       -0.0822
     24 C           3.2347    2.8685   18.7058 C.ar    1  UNL1        0.0145
     25 C           3.7750    1.5363   18.2779 C.ar    1  UNL1        0.0384
@<TRIPOS>BOND
     1    14    15    1
     2    15    13    1
     3    13    12    1
     4    12     7    1
     5     7     8   ar
     6     8     9   ar
     7     9    10   ar
     8    10     1    1
     9     1     2   ar
    10     2     3   ar
    11     3     4   ar
    12     4    18    1
    13    18    19    1
    14    19    20   ar
    15    20    21   ar
    16    21    22   ar
    17    22    23    1
    18    22    24   ar
    19    24    25   ar
    20     4     5   ar
    21     5     6   ar
    22    10    11   ar
    23    11     7   ar
    24     6     1   ar
    25    25    19   ar
    26    14    16    1
    27    14    17    1
@<TRIPOS>MOLECULE
*****
 25 27 0 0 0
SMALL
GASTEIGER

@<TRIPOS>ATOM
      1 C           7.0087   -3.8347   20.4110 C.ar    1  UNL1        0.0395
      2 C           5.5582   -3.8706   20.0307 C.ar    1  UNL1        0.0063
      3 C           5.0340   -2.9329   18.9839 C.ar    1  UNL1        0.0376
      4 C           5.9602   -1.9593   18.3174 C.ar    1  UNL1        0.1453
      5 C           7.4107   -1.9235   18.6977 C.ar    1  UNL1        0.0376
      6 C           7.9350   -2.8612   19.7445 C.ar    1  UNL1        0.0063
      7 N           7.9087   -5.8817   23.5836 N.ar    1  UNL1       -0.1509
      8 N           8.7712   -6.5492   22.5536 N.ar    1  UNL1       -0.0451
      9 N           8.5390   -5.8637   21.2399 N.ar    1  UNL1       -0.1077
     10 C           7.5331   -4.7725   21.4578 C.ar    1  UNL1        0.2058
     11 N           7.1436   -4.7837   22.9063 N.ar    1  UNL1       -0.1297
     12 C           7.8260   -6.2480   25.0358 C.3     1  UNL1        0.1527
     13 C           7.7210   -7.6884   25.4412 C.3     1  UNL1        0.0452
     14 N           7.5338   -9.3328   27.4439 N.3     1  UNL1       -0.3211
     15 C           8.1411   -8.1128   26.8172 C.3     1  UNL1        0.0673
     16 H           7.9320   -9.4719   28.3726 H       1  UNL1        0.1189
     17 H           7.7321  -10.1477   26.8634 H       1  UNL1        0.1189
     18 O           5.4359   -1.0216   17.2705 O.3     1  UNL1       -0.4535
     19 C           4.5755    0.1410   17.6682 C.ar    1  UNL1        0.1454
     20 C           3.1090   -0.0596   17.9110 C.ar    1  UNL1        0.0384
     21 C           2.2486    1.1031   18.3086 C.ar    1  UNL1        0.0145
     22 C           2.8549    2.4663   18.4635 C.ar    1  UNL1        0.0579
     23 CL          1.9946    3.6289   18.8612 Cl      1  UNL1       -0.0822
     24 C           4.3214    2.6669   18.2207 C.ar    1  UNL1        0.0145
     25 C           5.1818    1.5043   17.8231 C.ar    1  UNL1        0.0384
@<TRIPOS>BOND
     1    14    15    1
     2    15    13    1
     3    13    12    1
     4    12     7    1
     5     7     8   ar
     6     8     9   ar
     7     9    10   ar
     8    10     1    1
     9     1     2   ar
    10     2     3   ar
    11     3     4   ar
    12     4    18    1
    13    18    19    1
    14    19    20   ar
    15    20    21   ar
    16    21    22   ar
    17    22    23    1
    18    22    24   ar
    19    24    25   ar
    20     4     5   ar
    21     5     6   ar
    22    10    11   ar
    23    11     7   ar
    24     6     1   ar
    25    25    19   ar
    26    14    16    1
    27    14    17    1
@<TRIPOS>MOLECULE
*****
 25 27 0 0 0
SMALL
GASTEIGER

@<TRIPOS>ATOM
      1 C           0.0176    1.8816   20.3287 C.ar    1  UNL1        0.0395
      2 C           0.8859    2.6466   19.3743 C.ar    1  UNL1        0.0063
      3 C           1.9437    1.9329   18.5860 C.ar    1  UNL1        0.0376
      4 C           2.1334    0.4543   18.7520 C.ar    1  UNL1        0.1453
      5 C           1.2651   -0.3107   19.7064 C.ar    1  UNL1        0.0376
      6 C           0.2072    0.4030   20.4948 C.ar    1  UNL1        0.0063
      7 N          -3.1651    3.5597   21.7847 N.ar    1  UNL1       -0.1509
      8 N          -2.1713    3.8274   22.8760 N.ar    1  UNL1       -0.0451
      9 N          -0.8581    3.2314   22.4633 N.ar    1  UNL1       -0.1077
     10 C          -1.0403    2.5953   21.1171 C.ar    1  UNL1        0.2058
     11 N          -2.4661    2.7983   20.6977 N.ar    1  UNL1       -0.1297
     12 C          -4.6051    3.9798   21.7811 C.3     1  UNL1        0.1527
     13 C          -5.5123    3.5574   22.8985 C.3     1  UNL1        0.0452
     14 N          -8.0750    3.8711   23.1893 N.3     1  UNL1       -0.3211
     15 C          -6.6807    4.4166   23.2814 C.3     1  UNL1        0.0673
     16 H          -8.7399    4.5854   23.4861 H       1  UNL1        0.1189
     17 H          -8.1611    3.0542   23.7941 H       1  UNL1        0.1189
     18 O           3.1913   -0.2594   17.9636 O.3     1  UNL1       -0.4535
     19 C           4.1791   -1.1449   18.6637 C.ar    1  UNL1        0.1454
     20 C           5.0600   -0.5821   19.7394 C.ar    1  UNL1        0.0384
     21 C           6.0479   -1.4677   20.4395 C.ar    1  UNL1        0.0145
     22 C           6.1547   -2.9159   20.0639 C.ar    1  UNL1        0.0579
     23 CL          7.1425   -3.8014   20.7640 Cl      1  UNL1       -0.0822
     24 C           5.2738   -3.4787   18.9881 C.ar    1  UNL1        0.0145
     25 C           4.2860   -2.5932   18.2881 C.ar    1  UNL1        0.0384
@<TRIPOS>BOND
     1    14    15    1
     2    15    13    1
     3    13    12    1
     4    12     7    1
     5     7     8   ar
     6     8     9   ar
     7     9    10   ar
     8    10     1    1
     9     1     2   ar
    10     2     3   ar
    11     3     4   ar
    12     4    18    1
    13    18    19    1
    14    19    20   ar
    15    20    21   ar
    16    21    22   ar
    17    22    23    1
    18    22    24   ar
    19    24    25   ar
    20     4     5   ar
    21     5     6   ar
    22    10    11   ar
    23    11     7   ar
    24     6     1   ar
    25    25    19   ar
    26    14    16    1
    27    14    17    1
@<TRIPOS>MOLECULE
*****
 25 27 0 0 0
SMALL
GASTEIGER

@<TRIPOS>ATOM
      1 C           7.1385   -4.8833   27.2602 C.ar    1  UNL1        0.0395
      2 C           7.2908   -6.1402   26.4558 C.ar    1  UNL1        0.0063
      3 C           7.3738   -6.0678   24.9599 C.ar    1  UNL1        0.0376
      4 C           7.3046   -4.7386   24.2683 C.ar    1  UNL1        0.1453
      5 C           7.1524   -3.4817   25.0727 C.ar    1  UNL1        0.0376
      6 C           7.0693   -3.5540   26.5686 C.ar    1  UNL1        0.0063
      7 N           6.7301   -4.3438   31.0822 N.ar    1  UNL1       -0.1509
      8 N           7.1252   -5.7901   31.0342 N.ar    1  UNL1       -0.0451
      9 N           7.3263   -6.1681   29.5967 N.ar    1  UNL1       -0.1077
     10 C           7.0554   -4.9556   28.7562 C.ar    1  UNL1        0.2058
     11 N           6.6870   -3.8281   29.6743 N.ar    1  UNL1       -0.1297
     12 C           6.4306   -3.5522   32.3207 C.3     1  UNL1        0.1527
     13 C           5.4487   -2.4196   32.2677 C.3     1  UNL1        0.0452
     14 N           3.6211   -3.5962   33.6909 N.3     1  UNL1       -0.3211
     15 C           4.3341   -2.3458   33.2689 C.3     1  UNL1        0.0673
     16 H           2.8983   -3.3622   34.3715 H       1  UNL1        0.1189
     17 H           4.2884   -4.2424   34.1123 H       1  UNL1        0.1189
     18 O           7.3877   -4.6662   22.7723 O.3     1  UNL1       -0.4535
     19 C           6.3056   -3.9790   21.9934 C.ar    1  UNL1        0.1454
     20 C           6.4734   -3.7465   20.5211 C.ar    1  UNL1        0.0384
     21 C           5.3912   -3.0592   19.7422 C.ar    1  UNL1        0.0145
     22 C           4.1414   -2.6044   20.4357 C.ar    1  UNL1        0.0579
     23 CL          3.0593   -1.9171   19.6568 Cl      1  UNL1       -0.0822
     24 C           3.9736   -2.8369   21.9080 C.ar    1  UNL1        0.0145
     25 C           5.0557   -3.5241   22.6869 C.ar    1  UNL1        0.0384
@<TRIPOS>BOND
     1    14    15    1
     2    15    13    1
     3    13    12    1
     4    12     7    1
     5     7     8   ar
     6     8     9   ar
     7     9    10   ar
     8    10     1    1
     9     1     2   ar
    10     2     3   ar
    11     3     4   ar
    12     4    18    1
    13    18    19    1
    14    19    20   ar
    15    20    21   ar
    16    21    22   ar
    17    22    23    1
    18    22    24   ar
    19    24    25   ar
    20     4     5   ar
    21     5     6   ar
    22    10    11   ar
    23    11     7   ar
    24     6     1   ar
    25    25    19   ar
    26    14    16    1
    27    14    17    1
