@<TRIPOS>MOLECULE
*****
 23 25 0 0 0
SMALL
GASTEIGER

@<TRIPOS>ATOM
      1 C          -7.9689  -18.0063   21.6562 C.3     1  UNL1        0.1471
      2 O          -6.6720  -17.3377   22.0041 O.3     1  UNL1       -0.3812
      3 C          -9.0809  -18.8948   21.1828 C.3     1  UNL1        0.0584
      4 C         -10.3817  -18.2522   21.5634 C.ar    1  UNL1       -0.0202
      5 C         -11.8069  -18.6716   21.3562 C.ar    1  UNL1       -0.0044
      6 C         -12.9240  -17.8054   21.8578 C.ar    1  UNL1       -0.0003
      7 C         -12.6160  -16.5197   22.5664 C.ar    1  UNL1       -0.0002
      8 C         -11.1909  -16.1003   22.7736 C.ar    1  UNL1       -0.0011
      9 C         -10.0737  -16.9665   22.2721 C.ar    1  UNL1        0.0157
     10 C          -8.5825  -16.8146   22.3294 C.3     1  UNL1        0.2136
     11 H          -5.9332  -17.8814   21.6887 H       1  UNL1        0.2105
     12 C          -7.0842  -19.0583   21.0557 C.3     1  UNL1        0.1001
     13 C          -4.7657  -19.2293   19.8957 C.3     1  UNL1        0.0859
     14 N          -6.1731  -18.7108   19.9158 N.3     1  UNL1       -0.2942
     15 H          -6.6236  -19.0487   19.0653 H       1  UNL1        0.1234
     16 O          -7.8360  -15.6716   22.9509 O.3     1  UNL1       -0.4726
     17 C          -7.5391  -15.6807   24.4213 C.ar    1  UNL1        0.1349
     18 C          -8.6503  -15.8765   25.4096 C.ar    1  UNL1        0.0366
     19 C          -8.3535  -15.8856   26.8799 C.ar    1  UNL1        0.0031
     20 C          -6.9453  -15.6989   27.3618 C.ar    1  UNL1       -0.0001
     21 C          -5.8341  -15.5031   26.3735 C.ar    1  UNL1       -0.0013
     22 C          -6.1309  -15.4940   24.9032 C.ar    1  UNL1        0.0121
     23 C          -5.0197  -15.2982   23.9149 C.3     1  UNL1        0.0342
@<TRIPOS>BOND
     1    13    14    1
     2    14    12    1
     3    12     1    1
     4     1     2    1
     5     1     3    1
     6     3     4    1
     7     4     5   ar
     8     5     6   ar
     9     6     7   ar
    10     7     8   ar
    11     8     9   ar
    12     9    10    1
    13    10    16    1
    14    16    17    1
    15    17    18   ar
    16    18    19   ar
    17    19    20   ar
    18    20    21   ar
    19    21    22   ar
    20    22    23    1
    21    10     1    1
    22    22    17   ar
    23     9     4   ar
    24    14    15    1
    25     2    11    1
@<TRIPOS>MOLECULE
*****
 23 25 0 0 0
SMALL
GASTEIGER

@<TRIPOS>ATOM
      1 C          -9.5095  -17.1475   21.6879 C.3     1  UNL1        0.1471
      2 O          -9.9225  -15.7950   22.1880 O.3     1  UNL1       -0.3812
      3 C          -9.3909  -18.5140   21.0809 C.3     1  UNL1        0.0584
      4 C          -7.9956  -19.0090   21.3222 C.ar    1  UNL1       -0.0202
      5 C          -7.3062  -20.2884   20.9510 C.ar    1  UNL1       -0.0044
      6 C          -5.8731  -20.5072   21.3361 C.ar    1  UNL1       -0.0003
      7 C          -5.1294  -19.4465   22.0923 C.ar    1  UNL1       -0.0002
      8 C          -5.8188  -18.1671   22.4635 C.ar    1  UNL1       -0.0011
      9 C          -7.2519  -17.9483   22.0784 C.ar    1  UNL1        0.0157
     10 C          -8.1875  -16.7979   22.3044 C.3     1  UNL1        0.2136
     11 H         -10.8484  -15.6311   21.9499 H       1  UNL1        0.2105
     12 C         -10.9178  -17.2144   21.1760 C.3     1  UNL1        0.1001
     13 C         -11.7209  -15.6915   19.2302 C.3     1  UNL1        0.0859
     14 N         -11.1957  -17.0099   19.7162 N.3     1  UNL1       -0.2942
     15 H         -10.3186  -17.1772   19.2232 H       1  UNL1        0.1234
     16 O          -7.8588  -15.5218   23.0212 O.3     1  UNL1       -0.4726
     17 C          -7.5096  -15.5494   24.4798 C.ar    1  UNL1        0.1349
     18 C          -8.5900  -15.7175   25.5066 C.ar    1  UNL1        0.0366
     19 C          -8.2409  -15.7451   26.9651 C.ar    1  UNL1        0.0031
     20 C          -6.8113  -15.6045   27.3968 C.ar    1  UNL1       -0.0001
     21 C          -5.7308  -15.4363   26.3700 C.ar    1  UNL1       -0.0013
     22 C          -6.0800  -15.4088   24.9115 C.ar    1  UNL1        0.0121
     23 C          -4.9995  -15.2407   23.8846 C.3     1  UNL1        0.0342
@<TRIPOS>BOND
     1    13    14    1
     2    14    12    1
     3    12     1    1
     4     1     2    1
     5     1     3    1
     6     3     4    1
     7     4     5   ar
     8     5     6   ar
     9     6     7   ar
    10     7     8   ar
    11     8     9   ar
    12     9    10    1
    13    10    16    1
    14    16    17    1
    15    17    18   ar
    16    18    19   ar
    17    19    20   ar
    18    20    21   ar
    19    21    22   ar
    20    22    23    1
    21    10     1    1
    22    22    17   ar
    23     9     4   ar
    24    14    15    1
    25     2    11    1
@<TRIPOS>MOLECULE
*****
 23 25 0 0 0
SMALL
GASTEIGER

@<TRIPOS>ATOM
      1 C          -7.0122  -16.0514   23.4183 C.3     1  UNL1        0.1471
      2 O          -8.0346  -14.9627   23.5575 O.3     1  UNL1       -0.3812
      3 C          -5.8338  -16.9762   23.4961 C.3     1  UNL1        0.0584
      4 C          -6.0655  -18.1043   22.5350 C.ar    1  UNL1       -0.0202
      5 C          -5.2438  -19.3094   22.1849 C.ar    1  UNL1       -0.0044
      6 C          -5.7439  -20.2869   21.1629 C.ar    1  UNL1       -0.0003
      7 C          -7.0656  -20.0593   20.4911 C.ar    1  UNL1       -0.0002
      8 C          -7.8873  -18.8543   20.8413 C.ar    1  UNL1       -0.0011
      9 C          -7.3872  -17.8768   21.8632 C.ar    1  UNL1        0.0157
     10 C          -7.9723  -16.6080   22.4091 C.3     1  UNL1        0.2136
     11 H          -7.7319  -14.3171   24.2150 H       1  UNL1        0.2105
     12 C          -6.2658  -15.2672   24.4565 C.3     1  UNL1        0.1001
     13 C          -6.6235  -15.5336   27.0160 C.3     1  UNL1        0.0859
     14 N          -6.9556  -14.8516   25.7220 N.3     1  UNL1       -0.2942
     15 H          -6.7579  -13.8595   25.8529 H       1  UNL1        0.1234
     16 O          -9.2867  -16.0022   22.0150 O.3     1  UNL1       -0.4726
     17 C         -10.5646  -16.7368   22.2933 C.ar    1  UNL1        0.1349
     18 C         -10.7584  -17.4334   23.6075 C.ar    1  UNL1        0.0366
     19 C         -12.0362  -18.1680   23.8859 C.ar    1  UNL1        0.0031
     20 C         -13.1203  -18.2060   22.8499 C.ar    1  UNL1       -0.0001
     21 C         -12.9266  -17.5094   21.5356 C.ar    1  UNL1       -0.0013
     22 C         -11.6488  -16.7748   21.2573 C.ar    1  UNL1        0.0121
     23 C         -11.4550  -16.0783   19.9431 C.3     1  UNL1        0.0342
@<TRIPOS>BOND
     1    13    14    1
     2    14    12    1
     3    12     1    1
     4     1     2    1
     5     1     3    1
     6     3     4    1
     7     4     5   ar
     8     5     6   ar
     9     6     7   ar
    10     7     8   ar
    11     8     9   ar
    12     9    10    1
    13    10    16    1
    14    16    17    1
    15    17    18   ar
    16    18    19   ar
    17    19    20   ar
    18    20    21   ar
    19    21    22   ar
    20    22    23    1
    21    10     1    1
    22    22    17   ar
    23     9     4   ar
    24    14    15    1
    25     2    11    1
@<TRIPOS>MOLECULE
*****
 23 25 0 0 0
SMALL
GASTEIGER

@<TRIPOS>ATOM
      1 C          -7.9171  -16.1532   23.5717 C.3     1  UNL1        0.1471
      2 O          -6.9194  -15.6031   22.5960 O.3     1  UNL1       -0.3812
      3 C          -8.8457  -16.4460   24.7127 C.3     1  UNL1        0.0584
      4 C          -9.5413  -17.7431   24.4232 C.ar    1  UNL1       -0.0202
      5 C         -10.5644  -18.5265   25.1909 C.ar    1  UNL1       -0.0044
      6 C         -11.0886  -19.8188   24.6387 C.ar    1  UNL1       -0.0003
      7 C         -10.5899  -20.3277   23.3188 C.ar    1  UNL1       -0.0002
      8 C          -9.5668  -19.5443   22.5511 C.ar    1  UNL1       -0.0011
      9 C          -9.0425  -18.2520   23.1032 C.ar    1  UNL1        0.0157
     10 C          -8.0387  -17.2694   22.5770 C.3     1  UNL1        0.2136
     11 H          -6.5659  -14.7650   22.9329 H       1  UNL1        0.2105
     12 C          -7.5869  -14.9221   24.3624 C.3     1  UNL1        0.1001
     13 C          -5.5381  -15.1680   25.9410 C.3     1  UNL1        0.0859
     14 N          -6.1592  -14.6059   24.6967 N.3     1  UNL1       -0.2942
     15 H          -5.5941  -14.9315   23.9125 H       1  UNL1        0.1234
     16 O          -7.2882  -17.3831   21.2832 O.3     1  UNL1       -0.4726
     17 C          -6.3999  -18.5656   21.0328 C.ar    1  UNL1        0.1349
     18 C          -5.0688  -18.6621   21.7174 C.ar    1  UNL1        0.0366
     19 C          -4.1805  -19.8445   21.4670 C.ar    1  UNL1        0.0031
     20 C          -4.6235  -20.9306   20.5320 C.ar    1  UNL1       -0.0001
     21 C          -5.9546  -20.8341   19.8473 C.ar    1  UNL1       -0.0013
     22 C          -6.8429  -19.6517   20.0977 C.ar    1  UNL1        0.0121
     23 C          -8.1740  -19.5552   19.4131 C.3     1  UNL1        0.0342
@<TRIPOS>BOND
     1    13    14    1
     2    14    12    1
     3    12     1    1
     4     1     2    1
     5     1     3    1
     6     3     4    1
     7     4     5   ar
     8     5     6   ar
     9     6     7   ar
    10     7     8   ar
    11     8     9   ar
    12     9    10    1
    13    10    16    1
    14    16    17    1
    15    17    18   ar
    16    18    19   ar
    17    19    20   ar
    18    20    21   ar
    19    21    22   ar
    20    22    23    1
    21    10     1    1
    22    22    17   ar
    23     9     4   ar
    24    14    15    1
    25     2    11    1
@<TRIPOS>MOLECULE
*****
 23 25 0 0 0
SMALL
GASTEIGER

@<TRIPOS>ATOM
      1 C          -6.4616  -18.9282   21.5886 C.3     1  UNL1        0.1471
      2 O          -7.3641  -19.6360   20.6219 O.3     1  UNL1       -0.3812
      3 C          -5.3516  -18.4402   22.4717 C.3     1  UNL1        0.0584
      4 C          -5.8467  -17.2354   23.2156 C.ar    1  UNL1       -0.0202
      5 C          -5.1911  -16.3389   24.2237 C.ar    1  UNL1       -0.0044
      6 C          -5.9514  -15.1857   24.8085 C.ar    1  UNL1       -0.0003
      7 C          -7.3674  -14.9291   24.3852 C.ar    1  UNL1       -0.0002
      8 C          -8.0230  -15.8256   23.3770 C.ar    1  UNL1       -0.0011
      9 C          -7.2626  -16.9788   22.7922 C.ar    1  UNL1        0.0157
     10 C          -7.6426  -18.0250   21.7867 C.3     1  UNL1        0.2136
     11 H          -6.8924  -20.3876   20.2301 H       1  UNL1        0.2105
     12 C          -5.4691  -19.9794   21.1884 C.3     1  UNL1        0.1001
     13 C          -3.5624  -19.4684   19.4992 C.3     1  UNL1        0.0859
     14 N          -4.0442  -19.5997   20.9137 N.3     1  UNL1       -0.2942
     15 H          -3.8880  -18.6974   21.3629 H       1  UNL1        0.1234
     16 O          -8.9706  -18.1466   21.1000 O.3     1  UNL1       -0.4726
     17 C         -10.2357  -18.1358   21.9060 C.ar    1  UNL1        0.1349
     18 C         -10.2745  -18.8012   23.2498 C.ar    1  UNL1        0.0366
     19 C         -11.5394  -18.7904   24.0558 C.ar    1  UNL1        0.0031
     20 C         -12.7656  -18.1141   23.5181 C.ar    1  UNL1       -0.0001
     21 C         -12.7267  -17.4486   22.1744 C.ar    1  UNL1       -0.0013
     22 C         -11.4618  -17.4594   21.3683 C.ar    1  UNL1        0.0121
     23 C         -11.4230  -16.7940   20.0246 C.3     1  UNL1        0.0342
@<TRIPOS>BOND
     1    13    14    1
     2    14    12    1
     3    12     1    1
     4     1     2    1
     5     1     3    1
     6     3     4    1
     7     4     5   ar
     8     5     6   ar
     9     6     7   ar
    10     7     8   ar
    11     8     9   ar
    12     9    10    1
    13    10    16    1
    14    16    17    1
    15    17    18   ar
    16    18    19   ar
    17    19    20   ar
    18    20    21   ar
    19    21    22   ar
    20    22    23    1
    21    10     1    1
    22    22    17   ar
    23     9     4   ar
    24    14    15    1
    25     2    11    1
@<TRIPOS>MOLECULE
*****
 23 25 0 0 0
SMALL
GASTEIGER

@<TRIPOS>ATOM
      1 C          -6.6057  -18.8705   21.9016 C.3     1  UNL1        0.1471
      2 O          -7.2768  -20.0117   21.1965 O.3     1  UNL1       -0.3812
      3 C          -5.6746  -17.8423   22.4726 C.3     1  UNL1        0.0584
      4 C          -6.4828  -16.9045   23.3195 C.ar    1  UNL1       -0.0202
      5 C          -6.1010  -15.7001   24.1278 C.ar    1  UNL1       -0.0044
      6 C          -7.1497  -14.9441   24.8885 C.ar    1  UNL1       -0.0003
      7 C          -8.5803  -15.3927   24.8409 C.ar    1  UNL1       -0.0002
      8 C          -8.9621  -16.5971   24.0326 C.ar    1  UNL1       -0.0011
      9 C          -7.9134  -17.3530   23.2719 C.ar    1  UNL1        0.0157
     10 C          -7.9893  -18.5681   22.3955 C.3     1  UNL1        0.2136
     11 H          -6.6162  -20.5163   20.6965 H       1  UNL1        0.2105
     12 C          -5.3623  -19.4115   21.2602 C.3     1  UNL1        0.1001
     13 C          -3.4461  -18.9690   19.5624 C.3     1  UNL1        0.0859
     14 N          -4.8905  -18.8536   19.9502 N.3     1  UNL1       -0.2942
     15 H          -5.4294  -19.3198   19.2204 H       1  UNL1        0.1234
     16 O          -9.2309  -19.3444   22.0703 O.3     1  UNL1       -0.4726
     17 C         -10.5706  -18.8375   22.5157 C.ar    1  UNL1        0.1349
     18 C         -11.4027  -18.0023   21.5883 C.ar    1  UNL1        0.0366
     19 C         -12.7424  -17.4954   22.0335 C.ar    1  UNL1        0.0031
     20 C         -13.2499  -17.8236   23.4064 C.ar    1  UNL1       -0.0001
     21 C         -12.4179  -18.6588   24.3338 C.ar    1  UNL1       -0.0013
     22 C         -11.0782  -19.1657   23.8885 C.ar    1  UNL1        0.0121
     23 C         -10.2462  -20.0009   24.8160 C.3     1  UNL1        0.0342
@<TRIPOS>BOND
     1    13    14    1
     2    14    12    1
     3    12     1    1
     4     1     2    1
     5     1     3    1
     6     3     4    1
     7     4     5   ar
     8     5     6   ar
     9     6     7   ar
    10     7     8   ar
    11     8     9   ar
    12     9    10    1
    13    10    16    1
    14    16    17    1
    15    17    18   ar
    16    18    19   ar
    17    19    20   ar
    18    20    21   ar
    19    21    22   ar
    20    22    23    1
    21    10     1    1
    22    22    17   ar
    23     9     4   ar
    24    14    15    1
    25     2    11    1
@<TRIPOS>MOLECULE
*****
 23 25 0 0 0
SMALL
GASTEIGER

@<TRIPOS>ATOM
      1 C          -6.4906  -16.0322   23.9058 C.3     1  UNL1        0.1471
      2 O          -7.8064  -15.3179   23.9976 O.3     1  UNL1       -0.3812
      3 C          -5.0844  -16.5391   24.0310 C.3     1  UNL1        0.0584
      4 C          -4.9229  -17.6955   23.0894 C.ar    1  UNL1       -0.0202
      5 C          -3.7551  -18.5861   22.7845 C.ar    1  UNL1       -0.0044
      6 C          -3.8936  -19.6845   21.7725 C.ar    1  UNL1       -0.0003
      7 C          -5.2001  -19.8924   21.0654 C.ar    1  UNL1       -0.0002
      8 C          -6.3679  -19.0018   21.3702 C.ar    1  UNL1       -0.0011
      9 C          -6.2293  -17.9034   22.3822 C.ar    1  UNL1        0.0157
     10 C          -7.1982  -16.8754   22.8868 C.3     1  UNL1        0.2136
     11 H          -7.7405  -14.6013   24.6480 H       1  UNL1        0.2105
     12 C          -6.0580  -15.0397   24.9440 C.3     1  UNL1        0.1001
     13 C          -6.8133  -15.8117   27.3070 C.3     1  UNL1        0.0859
     14 N          -6.8899  -14.8310   26.1746 N.3     1  UNL1       -0.2942
     15 H          -6.6296  -13.9211   26.5551 H       1  UNL1        0.1234
     16 O          -8.6243  -16.7183   22.4492 O.3     1  UNL1       -0.4726
     17 C          -9.4813  -17.9308   22.2356 C.ar    1  UNL1        0.1349
     18 C          -9.7962  -18.3908   20.8430 C.ar    1  UNL1        0.0366
     19 C         -10.6530  -19.6032   20.6293 C.ar    1  UNL1        0.0031
     20 C         -11.1950  -20.3557   21.8082 C.ar    1  UNL1       -0.0001
     21 C         -10.8801  -19.8958   23.2008 C.ar    1  UNL1       -0.0013
     22 C         -10.0232  -18.6834   23.4145 C.ar    1  UNL1        0.0121
     23 C          -9.7083  -18.2235   24.8071 C.3     1  UNL1        0.0342
@<TRIPOS>BOND
     1    13    14    1
     2    14    12    1
     3    12     1    1
     4     1     2    1
     5     1     3    1
     6     3     4    1
     7     4     5   ar
     8     5     6   ar
     9     6     7   ar
    10     7     8   ar
    11     8     9   ar
    12     9    10    1
    13    10    16    1
    14    16    17    1
    15    17    18   ar
    16    18    19   ar
    17    19    20   ar
    18    20    21   ar
    19    21    22   ar
    20    22    23    1
    21    10     1    1
    22    22    17   ar
    23     9     4   ar
    24    14    15    1
    25     2    11    1
@<TRIPOS>MOLECULE
*****
 23 25 0 0 0
SMALL
GASTEIGER

@<TRIPOS>ATOM
      1 C          -9.8190  -17.8572   23.1474 C.3     1  UNL1        0.1471
      2 O          -9.9471  -18.4012   21.7554 O.3     1  UNL1       -0.3812
      3 C          -9.9757  -17.4381   24.5791 C.3     1  UNL1        0.0584
      4 C          -8.7368  -16.6952   24.9830 C.ar    1  UNL1       -0.0202
      5 C          -8.3295  -16.0500   26.2744 C.ar    1  UNL1       -0.0044
      6 C          -6.9996  -15.3648   26.3837 C.ar    1  UNL1       -0.0003
      7 C          -6.0771  -15.3248   25.2015 C.ar    1  UNL1       -0.0002
      8 C          -6.4844  -15.9700   23.9101 C.ar    1  UNL1       -0.0011
      9 C          -7.8143  -16.6552   23.8008 C.ar    1  UNL1        0.0157
     10 C          -8.4831  -17.3733   22.6664 C.3     1  UNL1        0.2136
     11 H         -10.8018  -18.8500   21.6610 H       1  UNL1        0.2105
     12 C         -11.1816  -18.4548   23.3374 C.3     1  UNL1        0.1001
     13 C         -13.6815  -17.9581   23.8414 C.3     1  UNL1        0.0859
     14 N         -12.4054  -17.6118   23.1331 N.3     1  UNL1       -0.2942
     15 H         -12.1599  -16.6630   23.4156 H       1  UNL1        0.1234
     16 O          -7.9157  -17.5726   21.2923 O.3     1  UNL1       -0.4726
     17 C          -6.9073  -18.6558   21.0471 C.ar    1  UNL1        0.1349
     18 C          -5.6285  -18.6814   21.8307 C.ar    1  UNL1        0.0366
     19 C          -4.6201  -19.7644   21.5856 C.ar    1  UNL1        0.0031
     20 C          -4.8906  -20.8219   20.5567 C.ar    1  UNL1       -0.0001
     21 C          -6.1693  -20.7964   19.7731 C.ar    1  UNL1       -0.0013
     22 C          -7.1777  -19.7133   20.0182 C.ar    1  UNL1        0.0121
     23 C          -8.4565  -19.6878   19.2346 C.3     1  UNL1        0.0342
@<TRIPOS>BOND
     1    13    14    1
     2    14    12    1
     3    12     1    1
     4     1     2    1
     5     1     3    1
     6     3     4    1
     7     4     5   ar
     8     5     6   ar
     9     6     7   ar
    10     7     8   ar
    11     8     9   ar
    12     9    10    1
    13    10    16    1
    14    16    17    1
    15    17    18   ar
    16    18    19   ar
    17    19    20   ar
    18    20    21   ar
    19    21    22   ar
    20    22    23    1
    21    10     1    1
    22    22    17   ar
    23     9     4   ar
    24    14    15    1
    25     2    11    1
@<TRIPOS>MOLECULE
*****
 23 25 0 0 0
SMALL
GASTEIGER

@<TRIPOS>ATOM
      1 C          -4.9288  -17.5973   22.7604 C.3     1  UNL1        0.1471
      2 O          -5.3029  -18.2722   21.4741 O.3     1  UNL1       -0.3812
      3 C          -4.2644  -17.0153   23.9728 C.3     1  UNL1        0.0584
      4 C          -5.3204  -16.3521   24.8066 C.ar    1  UNL1       -0.0202
      5 C          -5.2528  -15.6138   26.1105 C.ar    1  UNL1       -0.0044
      6 C          -6.5022  -15.0476   26.7174 C.ar    1  UNL1       -0.0003
      7 C          -7.8192  -15.2197   26.0203 C.ar    1  UNL1       -0.0002
      8 C          -7.8868  -15.9581   24.7164 C.ar    1  UNL1       -0.0011
      9 C          -6.6373  -16.5243   24.1095 C.ar    1  UNL1        0.0157
     10 C          -6.3953  -17.2938   22.8449 C.3     1  UNL1        0.2136
     11 H          -4.5085  -18.6470   21.0626 H       1  UNL1        0.2105
     12 C          -3.5405  -18.0418   22.4070 C.3     1  UNL1        0.1001
     13 C          -2.0313  -19.1441   20.6022 C.3     1  UNL1        0.0859
     14 N          -3.3331  -19.0803   21.3446 N.3     1  UNL1       -0.2942
     15 H          -3.4622  -19.9882   21.7911 H       1  UNL1        0.1234
     16 O          -7.4370  -17.6903   21.8411 O.3     1  UNL1       -0.4726
     17 C          -8.7338  -18.2873   22.3018 C.ar    1  UNL1        0.1349
     18 C          -8.7514  -19.6504   22.9276 C.ar    1  UNL1        0.0366
     19 C         -10.0480  -20.2475   23.3883 C.ar    1  UNL1        0.0031
     20 C         -11.3270  -19.4814   23.2231 C.ar    1  UNL1       -0.0001
     21 C         -11.3094  -18.1184   22.5972 C.ar    1  UNL1       -0.0013
     22 C         -10.0128  -17.5213   22.1365 C.ar    1  UNL1        0.0121
     23 C          -9.9951  -16.1582   21.5107 C.3     1  UNL1        0.0342
@<TRIPOS>BOND
     1    13    14    1
     2    14    12    1
     3    12     1    1
     4     1     2    1
     5     1     3    1
     6     3     4    1
     7     4     5   ar
     8     5     6   ar
     9     6     7   ar
    10     7     8   ar
    11     8     9   ar
    12     9    10    1
    13    10    16    1
    14    16    17    1
    15    17    18   ar
    16    18    19   ar
    17    19    20   ar
    18    20    21   ar
    19    21    22   ar
    20    22    23    1
    21    10     1    1
    22    22    17   ar
    23     9     4   ar
    24    14    15    1
    25     2    11    1
