@<TRIPOS>MOLECULE
*****
 39 42 0 0 0
SMALL
GASTEIGER

@<TRIPOS>ATOM
      1 C           1.1438    1.2884   21.0519 C.ar    1  UNL1        0.2295
      2 N          -0.2508    1.7065   21.4130 N.ar    1  UNL1       -0.2039
      3 C          -0.7446    2.6415   20.3491 C.ar    1  UNL1        0.1690
      4 C           0.3448    2.8013   19.3304 C.ar    1  UNL1        0.1605
      5 O           1.5118    1.9650   19.7648 O.2     1  UNL1       -0.4374
      6 C           3.7633   -1.5052   23.4149 C.ar    1  UNL1        0.1562
      7 C           3.1671   -0.2975   24.0753 C.ar    1  UNL1        0.0386
      8 C           2.2939    0.6337   23.2876 C.ar    1  UNL1        0.0079
      9 C           2.0169    0.3572   21.8396 C.ar    1  UNL1        0.0552
     10 C           2.6131   -0.8505   21.1792 C.ar    1  UNL1        0.0252
     11 C           2.3361   -1.1270   19.7312 C.ar    1  UNL1        0.0032
     12 C           2.9323   -2.3347   19.0708 C.ar    1  UNL1        0.0231
     13 C           3.8055   -3.2659   19.8585 C.ar    1  UNL1        0.1527
     14 N           4.0825   -2.9894   21.3065 N.ar    1  UNL1       -0.2383
     15 C           3.4863   -1.7817   21.9669 C.ar    1  UNL1        0.1151
     16 C           4.4016   -4.4736   19.1981 C.3     1  UNL1        0.4348
     17 F           4.9978   -5.6812   18.5377 F       1  UNL1       -0.1644
     18 F           3.3356   -5.3340   19.8091 F       1  UNL1       -0.1644
     19 F           5.4677   -3.6132   18.5872 F       1  UNL1       -0.1644
     20 C           6.0857   -2.1100   24.4103 C.3     1  UNL1        0.2525
     21 O           4.6364   -2.4364   24.2026 O.3     1  UNL1       -0.4699
     22 C           0.2787    3.6485   18.0944 C.3     1  UNL1        0.1109
     23 C           1.3219    4.6977   17.8476 C.3     1  UNL1        0.0251
     24 N          -0.8306    3.4465   17.1051 N.3     1  UNL1       -0.3162
     25 H          -1.4437    2.6988   17.4298 H       1  UNL1        0.1192
     26 H          -0.4363    3.1936   16.1990 H       1  UNL1        0.1192
     27 C          -2.0913    3.3009   20.3106 C.2     1  UNL1        0.2667
     28 O          -2.2227    4.7096   19.8124 O.2     1  UNL1       -0.2684
     29 N          -3.3067    2.5515   20.7703 N.am    1  UNL1       -0.2955
     30 H          -3.2205    1.6269   21.0973 H       1  UNL1        0.1501
     31 C          -4.6534    3.2109   20.7319 C.3     1  UNL1        0.1189
     32 C          -5.2689    3.7339   21.9960 C.ar    1  UNL1        0.0251
     33 C          -4.6220    3.4484   23.3189 C.ar    1  UNL1        0.0019
     34 C          -5.2374    3.9713   24.5830 C.ar    1  UNL1        0.0295
     35 C          -6.4996    4.7796   24.5241 C.ar    1  UNL1        0.1424
     36 F          -7.1150    5.3025   25.7882 F       1  UNL1       -0.2041
     37 C          -7.1464    5.0650   23.2013 C.ar    1  UNL1        0.0590
     38 C          -6.5310    4.5421   21.9372 C.ar    1  UNL1        0.1400
     39 F          -7.1778    4.8276   20.6142 F       1  UNL1       -0.2044
@<TRIPOS>BOND
     1    20    21    1
     2    21     6    1
     3     6     7   ar
     4     7     8   ar
     5     8     9   ar
     6     9     1    1
     7     1     2   ar
     8     2     3   ar
     9     3    27    1
    10    27    28    2
    11    27    29   am
    12    29    31    1
    13    31    32    1
    14    32    33   ar
    15    33    34   ar
    16    34    35   ar
    17    35    36    1
    18    35    37   ar
    19    37    38   ar
    20    38    39    1
    21     3     4   ar
    22     4    22    1
    23    22    23    1
    24    22    24    1
    25     4     5   ar
    26     9    10   ar
    27    10    11   ar
    28    11    12   ar
    29    12    13   ar
    30    13    16    1
    31    16    17    1
    32    16    18    1
    33    16    19    1
    34    13    14   ar
    35    14    15   ar
    36    15     6   ar
    37     5     1   ar
    38    15    10   ar
    39    38    32   ar
    40    29    30    1
    41    24    25    1
    42    24    26    1
@<TRIPOS>MOLECULE
*****
 39 42 0 0 0
SMALL
GASTEIGER

@<TRIPOS>ATOM
      1 C           1.7415    2.3147   19.7940 C.ar    1  UNL1        0.2295
      2 N           0.4007    2.5907   19.1807 N.ar    1  UNL1       -0.2039
      3 C          -0.5285    3.0268   20.2745 C.ar    1  UNL1        0.1690
      4 C           0.2380    3.0202   21.5638 C.ar    1  UNL1        0.1605
      5 O           1.6409    2.5801   21.2668 O.2     1  UNL1       -0.4374
      6 C           5.4196    0.9328   17.6004 C.ar    1  UNL1        0.1562
      7 C           5.0777    2.3926   17.6461 C.ar    1  UNL1        0.0386
      8 C           3.8517    2.8532   18.3773 C.ar    1  UNL1        0.0079
      9 C           2.9675    1.8540   19.0628 C.ar    1  UNL1        0.0552
     10 C           3.3094    0.3942   19.0171 C.ar    1  UNL1        0.0252
     11 C           2.4253   -0.6050   19.7026 C.ar    1  UNL1        0.0032
     12 C           2.7672   -2.0647   19.6569 C.ar    1  UNL1        0.0231
     13 C           3.9933   -2.5253   18.9258 C.ar    1  UNL1        0.1527
     14 N           4.8774   -1.5262   18.2403 N.ar    1  UNL1       -0.2383
     15 C           4.5355   -0.0664   18.2859 C.ar    1  UNL1        0.1151
     16 C           4.3351   -3.9852   18.8801 C.3     1  UNL1        0.4348
     17 F           4.6771   -5.4450   18.8344 F       1  UNL1       -0.1644
     18 F           2.8749   -4.3278   18.8972 F       1  UNL1       -0.1644
     19 F           5.7954   -3.6426   18.8630 F       1  UNL1       -0.1644
     20 C           7.5073    1.4665   16.1490 C.3     1  UNL1        0.2525
     21 O           6.6457    0.4722   16.8692 O.3     1  UNL1       -0.4699
     22 C          -0.3033    3.3890   22.9133 C.3     1  UNL1        0.1109
     23 C          -0.8874    4.7518   23.1402 C.3     1  UNL1        0.0251
     24 N          -0.2605    2.3949   24.0357 N.3     1  UNL1       -0.3162
     25 H           0.1657    1.5286   23.7066 H       1  UNL1        0.1192
     26 H          -1.2094    2.2056   24.3586 H       1  UNL1        0.1192
     27 C          -1.9709    3.4033   20.1081 C.2     1  UNL1        0.2667
     28 O          -2.3523    4.5222   19.1848 O.2     1  UNL1       -0.2684
     29 N          -3.0319    2.6608   20.8651 N.am    1  UNL1       -0.2955
     30 H          -2.7815    1.9265   21.4712 H       1  UNL1        0.1501
     31 C          -4.4743    3.0373   20.6988 C.3     1  UNL1        0.1189
     32 C          -5.2396    3.6055   21.8571 C.ar    1  UNL1        0.0251
     33 C          -4.7197    3.4375   23.2541 C.ar    1  UNL1        0.0019
     34 C          -5.4850    4.0057   24.4124 C.ar    1  UNL1        0.0295
     35 C          -6.7700    4.7417   24.1737 C.ar    1  UNL1        0.1424
     36 F          -7.5352    5.3099   25.3320 F       1  UNL1       -0.2041
     37 C          -7.2897    4.9097   22.7768 C.ar    1  UNL1        0.0590
     38 C          -6.5245    4.3415   21.6185 C.ar    1  UNL1        0.1400
     39 F          -7.0443    4.5095   20.2214 F       1  UNL1       -0.2044
@<TRIPOS>BOND
     1    20    21    1
     2    21     6    1
     3     6     7   ar
     4     7     8   ar
     5     8     9   ar
     6     9     1    1
     7     1     2   ar
     8     2     3   ar
     9     3    27    1
    10    27    28    2
    11    27    29   am
    12    29    31    1
    13    31    32    1
    14    32    33   ar
    15    33    34   ar
    16    34    35   ar
    17    35    36    1
    18    35    37   ar
    19    37    38   ar
    20    38    39    1
    21     3     4   ar
    22     4    22    1
    23    22    23    1
    24    22    24    1
    25     4     5   ar
    26     9    10   ar
    27    10    11   ar
    28    11    12   ar
    29    12    13   ar
    30    13    16    1
    31    16    17    1
    32    16    18    1
    33    16    19    1
    34    13    14   ar
    35    14    15   ar
    36    15     6   ar
    37     5     1   ar
    38    15    10   ar
    39    38    32   ar
    40    29    30    1
    41    24    25    1
    42    24    26    1
@<TRIPOS>MOLECULE
*****
 39 42 0 0 0
SMALL
GASTEIGER

@<TRIPOS>ATOM
      1 C           1.7471    2.1525   19.9476 C.ar    1  UNL1        0.2295
      2 N           1.6053    2.1100   21.4403 N.ar    1  UNL1       -0.2039
      3 C           0.2343    2.6080   21.7900 C.ar    1  UNL1        0.1690
      4 C          -0.4712    2.9584   20.5135 C.ar    1  UNL1        0.1605
      5 O           0.4638    2.6769   19.3748 O.2     1  UNL1       -0.4374
      6 C           5.3841    0.9230   17.6001 C.ar    1  UNL1        0.1562
      7 C           5.0214    2.3739   17.7159 C.ar    1  UNL1        0.0386
      8 C           3.8090    2.7837   18.4984 C.ar    1  UNL1        0.0079
      9 C           2.9595    1.7427   19.1651 C.ar    1  UNL1        0.0552
     10 C           3.3222    0.2918   19.0493 C.ar    1  UNL1        0.0252
     11 C           2.4726   -0.7492   19.7159 C.ar    1  UNL1        0.0032
     12 C           2.8353   -2.2000   19.6001 C.ar    1  UNL1        0.0231
     13 C           4.0476   -2.6099   18.8176 C.ar    1  UNL1        0.1527
     14 N           4.8972   -1.5689   18.1509 N.ar    1  UNL1       -0.2383
     15 C           4.5345   -0.1181   18.2668 C.ar    1  UNL1        0.1151
     16 C           4.4103   -4.0608   18.7017 C.3     1  UNL1        0.4348
     17 F           4.7731   -5.5116   18.5859 F       1  UNL1       -0.1644
     18 F           2.9585   -4.4299   18.7788 F       1  UNL1       -0.1644
     19 F           5.8621   -3.6917   18.6247 F       1  UNL1       -0.1644
     20 C           7.3267    1.5228   15.9825 C.3     1  UNL1        0.2525
     21 O           6.5964    0.5132   16.8176 O.3     1  UNL1       -0.4699
     22 C          -1.8667    3.4959   20.3962 C.3     1  UNL1        0.1109
     23 C          -2.1006    4.8507   19.7967 C.3     1  UNL1        0.0251
     24 N          -3.0282    2.6784   20.8785 N.3     1  UNL1       -0.3162
     25 H          -2.6883    1.7926   21.2532 H       1  UNL1        0.1192
     26 H          -3.6629    2.4974   20.1008 H       1  UNL1        0.1192
     27 C          -0.3318    2.7337   23.1734 C.2     1  UNL1        0.2667
     28 O          -1.4947    3.6463   23.4279 O.2     1  UNL1       -0.2684
     29 N           0.2651    1.9467   24.3023 N.am    1  UNL1       -0.2955
     30 H           1.0283    1.3477   24.1352 H       1  UNL1        0.1501
     31 C          -0.3010    2.0723   25.6857 C.3     1  UNL1        0.1189
     32 C           0.3186    1.3131   26.8214 C.ar    1  UNL1        0.0251
     33 C           1.7794    0.9739   26.7882 C.ar    1  UNL1        0.0019
     34 C           2.3990    0.2147   27.9240 C.ar    1  UNL1        0.0295
     35 C           1.5578   -0.2053   29.0927 C.ar    1  UNL1        0.1424
     36 F           2.1773   -0.9645   30.2284 F       1  UNL1       -0.2041
     37 C           0.0971    0.1338   29.1258 C.ar    1  UNL1        0.0590
     38 C          -0.5225    0.8930   27.9901 C.ar    1  UNL1        0.1400
     39 F          -1.9833    1.2322   28.0232 F       1  UNL1       -0.2044
@<TRIPOS>BOND
     1    20    21    1
     2    21     6    1
     3     6     7   ar
     4     7     8   ar
     5     8     9   ar
     6     9     1    1
     7     1     2   ar
     8     2     3   ar
     9     3    27    1
    10    27    28    2
    11    27    29   am
    12    29    31    1
    13    31    32    1
    14    32    33   ar
    15    33    34   ar
    16    34    35   ar
    17    35    36    1
    18    35    37   ar
    19    37    38   ar
    20    38    39    1
    21     3     4   ar
    22     4    22    1
    23    22    23    1
    24    22    24    1
    25     4     5   ar
    26     9    10   ar
    27    10    11   ar
    28    11    12   ar
    29    12    13   ar
    30    13    16    1
    31    16    17    1
    32    16    18    1
    33    16    19    1
    34    13    14   ar
    35    14    15   ar
    36    15     6   ar
    37     5     1   ar
    38    15    10   ar
    39    38    32   ar
    40    29    30    1
    41    24    25    1
    42    24    26    1
@<TRIPOS>MOLECULE
*****
 39 42 0 0 0
SMALL
GASTEIGER

@<TRIPOS>ATOM
      1 C           0.3902    3.2663   18.4018 C.ar    1  UNL1        0.2295
      2 N          -0.5240    3.4019   19.5833 N.ar    1  UNL1       -0.2039
      3 C          -1.8868    3.7690   19.0753 C.ar    1  UNL1        0.1690
      4 C          -1.8149    3.8603   17.5798 C.ar    1  UNL1        0.1605
      5 O          -0.4076    3.5496   17.1636 O.2     1  UNL1       -0.4374
      6 C           4.7590    2.1974   18.5467 C.ar    1  UNL1        0.1562
      7 C           4.3364    3.5681   18.1080 C.ar    1  UNL1        0.0386
      8 C           2.8801    3.9244   18.0597 C.ar    1  UNL1        0.0079
      9 C           1.8464    2.9100   18.4501 C.ar    1  UNL1        0.0552
     10 C           2.2690    1.5392   18.8888 C.ar    1  UNL1        0.0252
     11 C           1.2353    0.5248   19.2793 C.ar    1  UNL1        0.0032
     12 C           1.6579   -0.8459   19.7180 C.ar    1  UNL1        0.0231
     13 C           3.1142   -1.2022   19.7662 C.ar    1  UNL1        0.1527
     14 N           4.1479   -0.1878   19.3758 N.ar    1  UNL1       -0.2383
     15 C           3.7253    1.1829   18.9371 C.ar    1  UNL1        0.1151
     16 C           3.5368   -2.5730   20.2050 C.3     1  UNL1        0.4348
     17 F           3.9593   -3.9438   20.6436 F       1  UNL1       -0.1644
     18 F           3.5288   -2.1181   21.6342 F       1  UNL1       -0.1644
     19 F           3.5447   -3.0280   18.7757 F       1  UNL1       -0.1644
     20 C           7.2324    2.7580   17.9830 C.3     1  UNL1        0.2525
     21 O           6.2152    1.8411   18.5949 O.3     1  UNL1       -0.4699
     22 C          -2.9507    4.2022   16.6617 C.3     1  UNL1        0.1109
     23 C          -3.1957    5.6295   16.2710 C.3     1  UNL1        0.0251
     24 N          -3.8416    3.1167   16.1344 N.3     1  UNL1       -0.3162
     25 H          -3.5323    2.2158   16.4993 H       1  UNL1        0.1192
     26 H          -3.7960    3.1045   15.1155 H       1  UNL1        0.1192
     27 C          -3.1072    4.0036   19.9153 C.2     1  UNL1        0.2667
     28 O          -3.7308    5.3668   19.9679 O.2     1  UNL1       -0.2684
     29 N          -3.7039    2.8750   20.7028 N.am    1  UNL1       -0.2955
     30 H          -3.2946    1.9803   20.6683 H       1  UNL1        0.1501
     31 C          -4.9243    3.1096   21.5428 C.3     1  UNL1        0.1189
     32 C          -4.7797    3.4652   22.9929 C.ar    1  UNL1        0.0251
     33 C          -3.4413    3.3575   23.6615 C.ar    1  UNL1        0.0019
     34 C          -3.2967    3.7131   25.1117 C.ar    1  UNL1        0.0295
     35 C          -4.4904    4.1763   25.8930 C.ar    1  UNL1        0.1424
     36 F          -4.3458    4.5319   27.3430 F       1  UNL1       -0.2041
     37 C          -5.8287    4.2839   25.2242 C.ar    1  UNL1        0.0590
     38 C          -5.9733    3.9284   23.7742 C.ar    1  UNL1        0.1400
     39 F          -7.3117    4.0360   23.1054 F       1  UNL1       -0.2044
@<TRIPOS>BOND
     1    20    21    1
     2    21     6    1
     3     6     7   ar
     4     7     8   ar
     5     8     9   ar
     6     9     1    1
     7     1     2   ar
     8     2     3   ar
     9     3    27    1
    10    27    28    2
    11    27    29   am
    12    29    31    1
    13    31    32    1
    14    32    33   ar
    15    33    34   ar
    16    34    35   ar
    17    35    36    1
    18    35    37   ar
    19    37    38   ar
    20    38    39    1
    21     3     4   ar
    22     4    22    1
    23    22    23    1
    24    22    24    1
    25     4     5   ar
    26     9    10   ar
    27    10    11   ar
    28    11    12   ar
    29    12    13   ar
    30    13    16    1
    31    16    17    1
    32    16    18    1
    33    16    19    1
    34    13    14   ar
    35    14    15   ar
    36    15     6   ar
    37     5     1   ar
    38    15    10   ar
    39    38    32   ar
    40    29    30    1
    41    24    25    1
    42    24    26    1
@<TRIPOS>MOLECULE
*****
 39 42 0 0 0
SMALL
GASTEIGER

@<TRIPOS>ATOM
      1 C           1.5688    1.1060   21.5437 C.ar    1  UNL1        0.2295
      2 N           0.2100    1.5239   22.0223 N.ar    1  UNL1       -0.2039
      3 C          -0.3149    2.5637   21.0771 C.ar    1  UNL1        0.1690
      4 C           0.7196    2.7885   20.0144 C.ar    1  UNL1        0.1605
      5 O           1.8837    1.8877   20.3028 O.2     1  UNL1       -0.4374
      6 C           4.2327   -1.9548   23.4892 C.ar    1  UNL1        0.1562
      7 C           3.7466   -0.7745   24.2770 C.ar    1  UNL1        0.0386
      8 C           2.8586    0.2458   23.6285 C.ar    1  UNL1        0.0079
      9 C           2.4568    0.0858   22.1922 C.ar    1  UNL1        0.0552
     10 C           2.9429   -1.0946   21.4044 C.ar    1  UNL1        0.0252
     11 C           2.5410   -1.2546   19.9681 C.ar    1  UNL1        0.0032
     12 C           3.0271   -2.4348   19.1804 C.ar    1  UNL1        0.0231
     13 C           3.9151   -3.4551   19.8289 C.ar    1  UNL1        0.1527
     14 N           4.3169   -3.2951   21.2651 N.ar    1  UNL1       -0.2383
     15 C           3.8308   -2.1148   22.0529 C.ar    1  UNL1        0.1151
     16 C           4.4012   -4.6354   19.0410 C.3     1  UNL1        0.4348
     17 F           4.8872   -5.8157   18.2533 F       1  UNL1       -0.1644
     18 F           5.3831   -3.7546   18.3271 F       1  UNL1       -0.1644
     19 F           3.4192   -5.5163   19.7549 F       1  UNL1       -0.1644
     20 C           6.6046   -2.7602   24.1786 C.3     1  UNL1        0.2525
     21 O           5.1207   -2.9751   24.1377 O.3     1  UNL1       -0.4699
     22 C           0.6093    3.7461   18.8651 C.3     1  UNL1        0.1109
     23 C          -0.3320    3.4551   17.7342 C.3     1  UNL1        0.0251
     24 N           1.4403    4.9947   18.8470 N.3     1  UNL1       -0.3162
     25 H           2.0179    5.0310   19.6869 H       1  UNL1        0.1192
     26 H           0.8282    5.8102   18.8198 H       1  UNL1        0.1192
     27 C          -1.6413    3.2569   21.1772 C.2     1  UNL1        0.2667
     28 O          -1.7159    4.6621   21.6967 O.2     1  UNL1       -0.2684
     29 N          -2.8931    2.5450   20.7577 N.am    1  UNL1       -0.2955
     30 H          -2.8442    1.6227   20.4167 H       1  UNL1        0.1501
     31 C          -4.2196    3.2382   20.8577 C.3     1  UNL1        0.1189
     32 C          -4.8352    3.8590   19.6388 C.ar    1  UNL1        0.0251
     33 C          -4.0582    3.9258   18.3575 C.ar    1  UNL1        0.0019
     34 C          -4.6738    4.5466   17.1385 C.ar    1  UNL1        0.0295
     35 C          -6.0664    5.1005   17.2010 C.ar    1  UNL1        0.1424
     36 F          -6.6820    5.7212   15.9821 F       1  UNL1       -0.2041
     37 C          -6.8433    5.0336   18.4823 C.ar    1  UNL1        0.0590
     38 C          -6.2277    4.4129   19.7012 C.ar    1  UNL1        0.1400
     39 F          -7.0047    4.3460   20.9825 F       1  UNL1       -0.2044
@<TRIPOS>BOND
     1    20    21    1
     2    21     6    1
     3     6     7   ar
     4     7     8   ar
     5     8     9   ar
     6     9     1    1
     7     1     2   ar
     8     2     3   ar
     9     3    27    1
    10    27    28    2
    11    27    29   am
    12    29    31    1
    13    31    32    1
    14    32    33   ar
    15    33    34   ar
    16    34    35   ar
    17    35    36    1
    18    35    37   ar
    19    37    38   ar
    20    38    39    1
    21     3     4   ar
    22     4    22    1
    23    22    23    1
    24    22    24    1
    25     4     5   ar
    26     9    10   ar
    27    10    11   ar
    28    11    12   ar
    29    12    13   ar
    30    13    16    1
    31    16    17    1
    32    16    18    1
    33    16    19    1
    34    13    14   ar
    35    14    15   ar
    36    15     6   ar
    37     5     1   ar
    38    15    10   ar
    39    38    32   ar
    40    29    30    1
    41    24    25    1
    42    24    26    1
@<TRIPOS>MOLECULE
*****
 39 42 0 0 0
SMALL
GASTEIGER

@<TRIPOS>ATOM
      1 C           7.6795   -4.5024   22.7743 C.ar    1  UNL1        0.2295
      2 N           6.4351   -4.5372   21.9375 N.ar    1  UNL1       -0.2039
      3 C           6.4982   -3.3968   20.9651 C.ar    1  UNL1        0.1690
      4 C           7.7818   -2.6572   21.2009 C.ar    1  UNL1        0.1605
      5 O           8.5118   -3.3405   22.3190 O.2     1  UNL1       -0.4374
      6 C           8.7313   -7.3787   26.0713 C.ar    1  UNL1        0.1562
      7 C           9.0960   -7.6989   24.6520 C.ar    1  UNL1        0.0386
      8 C           8.7454   -6.7401   23.5530 C.ar    1  UNL1        0.0079
      9 C           8.0301   -5.4612   23.8733 C.ar    1  UNL1        0.0552
     10 C           7.6654   -5.1409   25.2927 C.ar    1  UNL1        0.0252
     11 C           6.9501   -3.8620   25.6129 C.ar    1  UNL1        0.0032
     12 C           6.5855   -3.5418   27.0322 C.ar    1  UNL1        0.0231
     13 C           6.9361   -4.5006   28.1312 C.ar    1  UNL1        0.1527
     14 N           7.6513   -5.7795   27.8110 N.ar    1  UNL1       -0.2383
     15 C           8.0160   -6.0997   26.3917 C.ar    1  UNL1        0.1151
     16 C           6.5713   -4.1803   29.5506 C.3     1  UNL1        0.4348
     17 F           6.2067   -3.8602   30.9699 F       1  UNL1       -0.1644
     18 F           6.3867   -2.7392   29.1780 F       1  UNL1       -0.1644
     19 F           6.7560   -5.6215   29.9232 F       1  UNL1       -0.1644
     20 C           8.0896   -9.3746   27.6058 C.3     1  UNL1        0.2525
     21 O           9.0819   -8.3375   27.1704 O.3     1  UNL1       -0.4699
     22 C           8.2526   -1.4468   20.4504 C.3     1  UNL1        0.1109
     23 C           9.4543   -1.5385   19.5575 C.3     1  UNL1        0.0251
     24 N           7.5215   -0.1448   20.5928 N.3     1  UNL1       -0.3162
     25 H           6.7368   -0.2638   21.2334 H       1  UNL1        0.1192
     26 H           7.1740    0.1516   19.6808 H       1  UNL1        0.1192
     27 C           5.4602   -3.0559   19.9375 C.2     1  UNL1        0.2667
     28 O           5.1209   -4.0413   18.8586 O.2     1  UNL1       -0.2684
     29 N           4.7613   -1.7297   19.9887 N.am    1  UNL1       -0.2955
     30 H           4.9840   -1.0829   20.6968 H       1  UNL1        0.1501
     31 C           3.7232   -1.3887   18.9610 C.3     1  UNL1        0.1189
     32 C           2.6135   -0.4389   19.3023 C.ar    1  UNL1        0.0251
     33 C           1.5045   -0.8773   20.2122 C.ar    1  UNL1        0.0019
     34 C           0.3947    0.0726   20.5536 C.ar    1  UNL1        0.0295
     35 C           0.3941    1.4606   19.9850 C.ar    1  UNL1        0.1424
     36 F          -0.7156    2.4104   20.3263 F       1  UNL1       -0.2041
     37 C           1.5031    1.8989   19.0751 C.ar    1  UNL1        0.0590
     38 C           2.6128    0.9491   18.7338 C.ar    1  UNL1        0.1400
     39 F           3.7219    1.3874   17.8239 F       1  UNL1       -0.2044
@<TRIPOS>BOND
     1    20    21    1
     2    21     6    1
     3     6     7   ar
     4     7     8   ar
     5     8     9   ar
     6     9     1    1
     7     1     2   ar
     8     2     3   ar
     9     3    27    1
    10    27    28    2
    11    27    29   am
    12    29    31    1
    13    31    32    1
    14    32    33   ar
    15    33    34   ar
    16    34    35   ar
    17    35    36    1
    18    35    37   ar
    19    37    38   ar
    20    38    39    1
    21     3     4   ar
    22     4    22    1
    23    22    23    1
    24    22    24    1
    25     4     5   ar
    26     9    10   ar
    27    10    11   ar
    28    11    12   ar
    29    12    13   ar
    30    13    16    1
    31    16    17    1
    32    16    18    1
    33    16    19    1
    34    13    14   ar
    35    14    15   ar
    36    15     6   ar
    37     5     1   ar
    38    15    10   ar
    39    38    32   ar
    40    29    30    1
    41    24    25    1
    42    24    26    1
@<TRIPOS>MOLECULE
*****
 39 42 0 0 0
SMALL
GASTEIGER

@<TRIPOS>ATOM
      1 C           2.3743    0.6253   31.2225 C.ar    1  UNL1        0.2295
      2 N           3.2774    0.1328   30.1308 N.ar    1  UNL1       -0.2039
      3 C           2.4377   -0.1223   28.9143 C.ar    1  UNL1        0.1690
      4 C           1.0156    0.2126   29.2542 C.ar    1  UNL1        0.1605
      5 O           0.9765    0.6747   30.6808 O.2     1  UNL1       -0.4374
      6 C           3.6371    1.7563   35.3910 C.ar    1  UNL1        0.1562
      7 C           4.2006    0.5257   34.7446 C.ar    1  UNL1        0.0386
      8 C           3.7797    0.1487   33.3551 C.ar    1  UNL1        0.0079
      9 C           2.7953    1.0023   32.6120 C.ar    1  UNL1        0.0552
     10 C           2.2316    2.2330   33.2585 C.ar    1  UNL1        0.0252
     11 C           1.2472    3.0866   32.5154 C.ar    1  UNL1        0.0032
     12 C           0.6836    4.3172   33.1619 C.ar    1  UNL1        0.0231
     13 C           1.1045    4.6942   34.5514 C.ar    1  UNL1        0.1527
     14 N           2.0890    3.8406   35.2944 N.ar    1  UNL1       -0.2383
     15 C           2.6526    2.6100   34.6480 C.ar    1  UNL1        0.1151
     16 C           0.5409    5.9249   35.1979 C.3     1  UNL1        0.4348
     17 F          -0.0226    7.1555   35.8443 F       1  UNL1       -0.1644
     18 F           0.1931    6.4755   33.8466 F       1  UNL1       -0.1644
     19 F           0.8888    5.3744   36.5491 F       1  UNL1       -0.1644
     20 C           4.0991    1.0928   37.8600 C.3     1  UNL1        0.2525
     21 O           4.0580    2.1333   36.7805 O.3     1  UNL1       -0.4699
     22 C          -0.1608    0.1045   28.3299 C.3     1  UNL1        0.1109
     23 C          -1.3748   -0.6706   28.7486 C.3     1  UNL1        0.0251
     24 N          -0.1231    0.7715   26.9869 N.3     1  UNL1       -0.3162
     25 H           0.7703    1.2496   26.8697 H       1  UNL1        0.1192
     26 H          -0.8825    1.4494   26.9225 H       1  UNL1        0.1192
     27 C           2.9330   -0.6242   27.5904 C.2     1  UNL1        0.2667
     28 O           3.6167   -1.9564   27.5014 O.2     1  UNL1       -0.2684
     29 N           2.7448    0.2062   26.3555 N.am    1  UNL1       -0.2955
     30 H           2.2961    1.0805   26.4139 H       1  UNL1        0.1501
     31 C           3.2401   -0.2957   25.0316 C.3     1  UNL1        0.1189
     32 C           2.4681    0.0014   23.7803 C.ar    1  UNL1        0.0251
     33 C           1.3820    1.0359   23.7971 C.ar    1  UNL1        0.0019
     34 C           0.6099    1.3330   22.5457 C.ar    1  UNL1        0.0295
     35 C           0.9240    0.5958   21.2778 C.ar    1  UNL1        0.1424
     36 F           0.1520    0.8929   20.0265 F       1  UNL1       -0.2041
     37 C           2.0101   -0.4386   21.2611 C.ar    1  UNL1        0.0590
     38 C           2.7821   -0.7358   22.5123 C.ar    1  UNL1        0.1400
     39 F           3.8683   -1.7702   22.4956 F       1  UNL1       -0.2044
@<TRIPOS>BOND
     1    20    21    1
     2    21     6    1
     3     6     7   ar
     4     7     8   ar
     5     8     9   ar
     6     9     1    1
     7     1     2   ar
     8     2     3   ar
     9     3    27    1
    10    27    28    2
    11    27    29   am
    12    29    31    1
    13    31    32    1
    14    32    33   ar
    15    33    34   ar
    16    34    35   ar
    17    35    36    1
    18    35    37   ar
    19    37    38   ar
    20    38    39    1
    21     3     4   ar
    22     4    22    1
    23    22    23    1
    24    22    24    1
    25     4     5   ar
    26     9    10   ar
    27    10    11   ar
    28    11    12   ar
    29    12    13   ar
    30    13    16    1
    31    16    17    1
    32    16    18    1
    33    16    19    1
    34    13    14   ar
    35    14    15   ar
    36    15     6   ar
    37     5     1   ar
    38    15    10   ar
    39    38    32   ar
    40    29    30    1
    41    24    25    1
    42    24    26    1
@<TRIPOS>MOLECULE
*****
 39 42 0 0 0
SMALL
GASTEIGER

@<TRIPOS>ATOM
      1 C           1.6617    1.5324   31.1625 C.ar    1  UNL1        0.2295
      2 N           2.7004    1.0312   30.2034 N.ar    1  UNL1       -0.2039
      3 C           1.9928    0.4567   29.0122 C.ar    1  UNL1        0.1690
      4 C           0.5166    0.6027   29.2350 C.ar    1  UNL1        0.1605
      5 O           0.3120    1.2675   30.5640 O.2     1  UNL1       -0.4374
      6 C           2.4551    3.4872   35.1373 C.ar    1  UNL1        0.1562
      7 C           1.4602    4.0899   34.1904 C.ar    1  UNL1        0.0386
      8 C           1.1957    3.4383   32.8655 C.ar    1  UNL1        0.0079
      9 C           1.9262    2.1840   32.4875 C.ar    1  UNL1        0.0552
     10 C           2.9212    1.5811   33.4344 C.ar    1  UNL1        0.0252
     11 C           3.6516    0.3268   33.0564 C.ar    1  UNL1        0.0032
     12 C           4.6466   -0.2760   34.0033 C.ar    1  UNL1        0.0231
     13 C           4.9110    0.3756   35.3282 C.ar    1  UNL1        0.1527
     14 N           4.1806    1.6300   35.7063 N.ar    1  UNL1       -0.2383
     15 C           3.1857    2.2327   34.7593 C.ar    1  UNL1        0.1151
     16 C           5.9061   -0.2273   36.2752 C.3     1  UNL1        0.4348
     17 F           6.9010   -0.8301   37.2220 F       1  UNL1       -0.1644
     18 F           5.0117    0.1116   37.4307 F       1  UNL1       -0.1644
     19 F           6.8004   -0.5661   35.1197 F       1  UNL1       -0.1644
     20 C           1.9826    3.6784   37.6849 C.3     1  UNL1        0.2525
     21 O           2.7196    4.1388   36.4623 O.3     1  UNL1       -0.4699
     22 C          -0.5650    0.1614   28.2941 C.3     1  UNL1        0.1109
     23 C          -1.6496   -0.7560   28.7756 C.3     1  UNL1        0.0251
     24 N          -0.5620    0.6375   26.8717 N.3     1  UNL1       -0.3162
     25 H           0.2406    1.2484   26.7194 H       1  UNL1        0.1192
     26 H          -1.4219    1.1528   26.6838 H       1  UNL1        0.1192
     27 C           2.6465   -0.1563   27.8093 C.2     1  UNL1        0.2667
     28 O           3.3441   -1.4790   27.9272 O.2     1  UNL1       -0.2684
     29 N           2.6025    0.5534   26.4886 N.am    1  UNL1       -0.2955
     30 H           2.1446    1.4215   26.4112 H       1  UNL1        0.1501
     31 C           3.2562   -0.0596   25.2857 C.3     1  UNL1        0.1189
     32 C           2.5944    0.0344   23.9428 C.ar    1  UNL1        0.0251
     33 C           1.4617    0.9947   23.7306 C.ar    1  UNL1        0.0019
     34 C           0.7999    1.0887   22.3877 C.ar    1  UNL1        0.0295
     35 C           1.2707    0.2224   21.2572 C.ar    1  UNL1        0.1424
     36 F           0.6089    0.3165   19.9144 F       1  UNL1       -0.2041
     37 C           2.4033   -0.7377   21.4695 C.ar    1  UNL1        0.0590
     38 C           3.0652   -0.8317   22.8123 C.ar    1  UNL1        0.1400
     39 F           4.1978   -1.7920   23.0246 F       1  UNL1       -0.2044
@<TRIPOS>BOND
     1    20    21    1
     2    21     6    1
     3     6     7   ar
     4     7     8   ar
     5     8     9   ar
     6     9     1    1
     7     1     2   ar
     8     2     3   ar
     9     3    27    1
    10    27    28    2
    11    27    29   am
    12    29    31    1
    13    31    32    1
    14    32    33   ar
    15    33    34   ar
    16    34    35   ar
    17    35    36    1
    18    35    37   ar
    19    37    38   ar
    20    38    39    1
    21     3     4   ar
    22     4    22    1
    23    22    23    1
    24    22    24    1
    25     4     5   ar
    26     9    10   ar
    27    10    11   ar
    28    11    12   ar
    29    12    13   ar
    30    13    16    1
    31    16    17    1
    32    16    18    1
    33    16    19    1
    34    13    14   ar
    35    14    15   ar
    36    15     6   ar
    37     5     1   ar
    38    15    10   ar
    39    38    32   ar
    40    29    30    1
    41    24    25    1
    42    24    26    1
@<TRIPOS>MOLECULE
*****
 39 42 0 0 0
SMALL
GASTEIGER

@<TRIPOS>ATOM
      1 C           1.0537    2.6376   31.5993 C.ar    1  UNL1        0.2295
      2 N           0.9225    3.4863   30.3695 N.ar    1  UNL1       -0.2039
      3 C           0.5674    2.5880   29.2219 C.ar    1  UNL1        0.1690
      4 C           0.4791    1.1840   29.7425 C.ar    1  UNL1        0.1605
      5 O           0.7796    1.2146   31.2118 O.2     1  UNL1       -0.4374
      6 C           2.0877    4.1027   35.7265 C.ar    1  UNL1        0.1562
      7 C           1.0896    4.8508   34.8933 C.ar    1  UNL1        0.0386
      8 C           0.7450    4.3624   33.5175 C.ar    1  UNL1        0.0079
      9 C           1.3983    3.1260   32.9750 C.ar    1  UNL1        0.0552
     10 C           2.3964    2.3778   33.8083 C.ar    1  UNL1        0.0252
     11 C           3.0497    1.1414   33.2658 C.ar    1  UNL1        0.0032
     12 C           4.0478    0.3934   34.0991 C.ar    1  UNL1        0.0231
     13 C           4.3924    0.8818   35.4748 C.ar    1  UNL1        0.1527
     14 N           3.7391    2.1182   36.0173 N.ar    1  UNL1       -0.2383
     15 C           2.7411    2.8662   35.1841 C.ar    1  UNL1        0.1151
     16 C           5.3905    0.1337   36.3081 C.3     1  UNL1        0.4348
     17 F           6.3886   -0.6144   37.1413 F       1  UNL1       -0.1644
     18 F           4.8646    0.8059   37.5416 F       1  UNL1       -0.1644
     19 F           5.9164   -0.5385   35.0746 F       1  UNL1       -0.1644
     20 C           3.2262    5.8523   37.2734 C.3     1  UNL1        0.2525
     21 O           2.4323    4.5911   37.1023 O.3     1  UNL1       -0.4699
     22 C           0.1484   -0.0364   28.9355 C.3     1  UNL1        0.1109
     23 C          -1.2840   -0.4099   28.6933 C.3     1  UNL1        0.0251
     24 N           1.2502   -0.8832   28.3707 N.3     1  UNL1       -0.3162
     25 H           2.1525   -0.4851   28.6310 H       1  UNL1        0.1192
     26 H           1.1711   -0.9103   27.3541 H       1  UNL1        0.1192
     27 C           0.3404    3.0182   27.8030 C.2     1  UNL1        0.2667
     28 O           1.4994    3.4566   26.9577 O.2     1  UNL1       -0.2684
     29 N          -1.0455    3.0099   27.2294 N.am    1  UNL1       -0.2955
     30 H          -1.8062    2.7222   27.7842 H       1  UNL1        0.1501
     31 C          -1.2725    3.4401   25.8104 C.3     1  UNL1        0.1189
     32 C          -2.6693    3.6418   25.3021 C.ar    1  UNL1        0.0251
     33 C          -3.7825    3.9340   26.2641 C.ar    1  UNL1        0.0019
     34 C          -5.1793    4.1356   25.7557 C.ar    1  UNL1        0.0295
     35 C          -5.4628    4.0451   24.2856 C.ar    1  UNL1        0.1424
     36 F          -6.8596    4.2468   23.7773 F       1  UNL1       -0.2041
     37 C          -4.3496    3.7529   23.3237 C.ar    1  UNL1        0.0590
     38 C          -2.9528    3.5512   23.8320 C.ar    1  UNL1        0.1400
     39 F          -1.8396    3.2590   22.8701 F       1  UNL1       -0.2044
@<TRIPOS>BOND
     1    20    21    1
     2    21     6    1
     3     6     7   ar
     4     7     8   ar
     5     8     9   ar
     6     9     1    1
     7     1     2   ar
     8     2     3   ar
     9     3    27    1
    10    27    28    2
    11    27    29   am
    12    29    31    1
    13    31    32    1
    14    32    33   ar
    15    33    34   ar
    16    34    35   ar
    17    35    36    1
    18    35    37   ar
    19    37    38   ar
    20    38    39    1
    21     3     4   ar
    22     4    22    1
    23    22    23    1
    24    22    24    1
    25     4     5   ar
    26     9    10   ar
    27    10    11   ar
    28    11    12   ar
    29    12    13   ar
    30    13    16    1
    31    16    17    1
    32    16    18    1
    33    16    19    1
    34    13    14   ar
    35    14    15   ar
    36    15     6   ar
    37     5     1   ar
    38    15    10   ar
    39    38    32   ar
    40    29    30    1
    41    24    25    1
    42    24    26    1
