@<TRIPOS>MOLECULE
*****
 36 41 0 0 0
SMALL
GASTEIGER

@<TRIPOS>ATOM
      1 C         -14.0746   -6.5274   18.5328 C.ar    1  UNL1        0.1405
      2 N         -14.7956   -5.2139   18.4619 N.ar    1  UNL1       -0.2290
      3 C         -13.7782   -4.1191   18.5898 C.ar    1  UNL1        0.1052
      4 C         -12.4284   -4.7560   18.7397 C.ar    1  UNL1        0.1328
      5 C         -11.0561   -4.1728   18.9037 C.ar    1  UNL1        0.1466
      6 N         -10.8729   -2.6845   18.9389 N.pl3   1  UNL1       -0.3413
      7 N          -9.8670   -5.0781   19.0325 N.ar    1  UNL1       -0.2064
      8 C         -10.0503   -6.5665   18.9972 C.ar    1  UNL1        0.2211
      9 N         -11.4224   -7.1495   18.8332 N.ar    1  UNL1       -0.1411
     10 N         -12.6115   -6.2443   18.7044 N.ar    1  UNL1       -0.2104
     11 H         -11.6534   -2.0904   18.8544 H       1  UNL1        0.1438
     12 H          -9.9723   -2.3018   19.0466 H       1  UNL1        0.1438
     13 C         -14.0610   -2.6461   18.5710 C.ar    1  UNL1        0.0482
     14 C         -13.3382   -1.7559   17.6040 C.ar    1  UNL1        0.0039
     15 C         -13.6210   -0.2830   17.5852 C.ar    1  UNL1        0.0017
     16 C         -14.6265    0.2999   18.5335 C.ar    1  UNL1        0.0199
     17 C         -14.9092    1.7728   18.5148 C.ar    1  UNL1        0.0031
     18 C         -15.9147    2.3556   19.4631 C.ar    1  UNL1        0.0191
     19 C         -16.6375    1.4654   20.4301 C.ar    1  UNL1        0.0813
     20 N         -16.3548   -0.0075   20.4489 N.ar    1  UNL1       -0.2431
     21 C         -15.3493   -0.5903   19.5006 C.ar    1  UNL1        0.1086
     22 C         -15.0665   -2.0633   19.5193 C.ar    1  UNL1        0.1590
     23 F         -15.7892   -2.9535   20.4864 F       1  UNL1       -0.2025
     24 C         -17.6430    2.0483   21.3784 C.ar    1  UNL1        0.0177
     25 C         -18.9647    2.5361   20.8635 C.ar    1  UNL1        0.0015
     26 C         -19.9703    3.1189   21.8119 C.ar    1  UNL1        0.0000
     27 C         -19.6541    3.2139   23.2751 C.ar    1  UNL1        0.0000
     28 C         -18.3323    2.7261   23.7900 C.ar    1  UNL1        0.0000
     29 C         -17.3268    2.1433   22.8416 C.ar    1  UNL1        0.0015
     30 C         -16.9506  -10.3693   18.6485 C.3     1  UNL1        0.0293
     31 C         -15.5984   -9.8059   18.3257 C.3     1  UNL1        0.0892
     32 O         -15.1388  -11.1630   17.8817 O.3     1  UNL1       -0.3867
     33 C         -14.2462   -9.2424   18.0030 C.3     1  UNL1        0.0345
     34 C         -14.7058   -7.8854   18.4470 C.3     1  UNL1        0.0633
     35 C         -16.0579   -8.4488   18.7697 C.3     1  UNL1        0.0345
     36 H         -15.8641  -11.7991   17.9828 H       1  UNL1        0.2102
@<TRIPOS>BOND
     1    31    30    1
     2    31    32    1
     3    31    33    1
     4    33    34    1
     5    34     1    1
     6     1     2   ar
     7     2     3   ar
     8     3    13    1
     9    13    14   ar
    10    14    15   ar
    11    15    16   ar
    12    16    17   ar
    13    17    18   ar
    14    18    19   ar
    15    19    24    1
    16    24    25   ar
    17    25    26   ar
    18    26    27   ar
    19    27    28   ar
    20    28    29   ar
    21    19    20   ar
    22    20    21   ar
    23    21    22   ar
    24    22    23    1
    25     3     4   ar
    26     4     5   ar
    27     5     6    1
    28     5     7   ar
    29     7     8   ar
    30     8     9   ar
    31     9    10   ar
    32    34    35    1
    33    35    31    1
    34    10     1   ar
    35    22    13   ar
    36    10     4   ar
    37    21    16   ar
    38    29    24   ar
    39    32    36    1
    40     6    11    1
    41     6    12    1
@<TRIPOS>MOLECULE
*****
 36 41 0 0 0
SMALL
GASTEIGER

@<TRIPOS>ATOM
      1 C          -3.4274    3.7026   21.0018 C.ar    1  UNL1        0.1405
      2 N          -1.9877    3.2921   21.0961 N.ar    1  UNL1       -0.2290
      3 C          -1.4055    3.3231   19.7140 C.ar    1  UNL1        0.1052
      4 C          -2.4853    3.7528   18.7656 C.ar    1  UNL1        0.1328
      5 C          -2.4921    3.9607   17.2801 C.ar    1  UNL1        0.1466
      6 N          -1.2425    3.7262   16.4842 N.pl3   1  UNL1       -0.3413
      7 N          -3.7485    4.4032   16.5905 N.ar    1  UNL1       -0.2064
      8 C          -4.9982    4.6377   17.3864 C.ar    1  UNL1        0.2211
      9 N          -4.9913    4.4297   18.8719 N.ar    1  UNL1       -0.1411
     10 N          -3.7349    3.9873   19.5615 N.ar    1  UNL1       -0.2104
     11 H          -0.4178    3.4358   16.9368 H       1  UNL1        0.1438
     12 H          -1.2470    3.8627   15.5092 H       1  UNL1        0.1438
     13 C           0.0084    2.9840   19.3451 C.ar    1  UNL1        0.0482
     14 C           0.9073    4.0388   18.7711 C.ar    1  UNL1        0.0039
     15 C           2.3211    3.6998   18.4022 C.ar    1  UNL1        0.0017
     16 C           2.8361    2.3059   18.6074 C.ar    1  UNL1        0.0199
     17 C           4.2499    1.9669   18.2385 C.ar    1  UNL1        0.0031
     18 C           4.7649    0.5731   18.4437 C.ar    1  UNL1        0.0191
     19 C           3.8660   -0.4816   19.0178 C.ar    1  UNL1        0.0813
     20 N           2.4522   -0.1426   19.3866 N.ar    1  UNL1       -0.2431
     21 C           1.9372    1.2512   19.1814 C.ar    1  UNL1        0.1086
     22 C           0.5233    1.5903   19.5503 C.ar    1  UNL1        0.1590
     23 F          -0.3755    0.5355   20.1244 F       1  UNL1       -0.2025
     24 C           4.3810   -1.8755   19.2230 C.ar    1  UNL1        0.0177
     25 C           3.4807   -3.0508   18.9820 C.ar    1  UNL1        0.0015
     26 C           3.9958   -4.4446   19.1872 C.ar    1  UNL1        0.0000
     27 C           5.4111   -4.6631   19.6334 C.ar    1  UNL1        0.0000
     28 C           6.3114   -3.4877   19.8744 C.ar    1  UNL1        0.0000
     29 C           5.7964   -2.0940   19.6692 C.ar    1  UNL1        0.0015
     30 C          -7.0279    4.7109   24.0127 C.3     1  UNL1        0.0293
     31 C          -5.7525    3.9609   23.7661 C.3     1  UNL1        0.0892
     32 O          -5.8390    3.3622   25.1387 O.3     1  UNL1       -0.3867
     33 C          -4.4770    3.2109   23.5194 C.3     1  UNL1        0.0345
     34 C          -4.3905    3.8096   22.1468 C.3     1  UNL1        0.0633
     35 C          -5.6659    4.5595   22.3934 C.3     1  UNL1        0.0345
     36 H          -6.6353    3.6904   25.5850 H       1  UNL1        0.2102
@<TRIPOS>BOND
     1    31    30    1
     2    31    32    1
     3    31    33    1
     4    33    34    1
     5    34     1    1
     6     1     2   ar
     7     2     3   ar
     8     3    13    1
     9    13    14   ar
    10    14    15   ar
    11    15    16   ar
    12    16    17   ar
    13    17    18   ar
    14    18    19   ar
    15    19    24    1
    16    24    25   ar
    17    25    26   ar
    18    26    27   ar
    19    27    28   ar
    20    28    29   ar
    21    19    20   ar
    22    20    21   ar
    23    21    22   ar
    24    22    23    1
    25     3     4   ar
    26     4     5   ar
    27     5     6    1
    28     5     7   ar
    29     7     8   ar
    30     8     9   ar
    31     9    10   ar
    32    34    35    1
    33    35    31    1
    34    10     1   ar
    35    22    13   ar
    36    10     4   ar
    37    21    16   ar
    38    29    24   ar
    39    32    36    1
    40     6    11    1
    41     6    12    1
@<TRIPOS>MOLECULE
*****
 36 41 0 0 0
SMALL
GASTEIGER

@<TRIPOS>ATOM
      1 C           7.3835   -4.7097   27.8000 C.ar    1  UNL1        0.1405
      2 N           7.2026   -3.6249   26.7798 N.ar    1  UNL1       -0.2290
      3 C           7.5801   -4.1818   25.4392 C.ar    1  UNL1        0.1052
      4 C           7.9943   -5.6107   25.6306 C.ar    1  UNL1        0.1328
      5 C           8.4665   -6.6569   24.6649 C.ar    1  UNL1        0.1466
      6 N           8.5880   -6.3306   23.2059 N.pl3   1  UNL1       -0.3413
      7 N           8.8171   -8.0293   25.1582 N.ar    1  UNL1       -0.2064
      8 C           8.6955   -8.3556   26.6173 C.ar    1  UNL1        0.2211
      9 N           8.2235   -7.3094   27.5830 N.ar    1  UNL1       -0.1411
     10 N           7.8728   -5.9370   27.0897 N.ar    1  UNL1       -0.2104
     11 H           8.3579   -5.4298   22.8821 H       1  UNL1        0.1438
     12 H           8.8978   -7.0172   22.5721 H       1  UNL1        0.1438
     13 C           7.5489   -3.4399   24.1358 C.ar    1  UNL1        0.0482
     14 C           8.8200   -3.2095   23.3733 C.ar    1  UNL1        0.0039
     15 C           8.7888   -2.4676   22.0700 C.ar    1  UNL1        0.0017
     16 C           7.4865   -1.9562   21.5291 C.ar    1  UNL1        0.0199
     17 C           7.4553   -1.2144   20.2258 C.ar    1  UNL1        0.0031
     18 C           6.1531   -0.7029   19.6849 C.ar    1  UNL1        0.0191
     19 C           4.8820   -0.9334   20.4473 C.ar    1  UNL1        0.0813
     20 N           4.9132   -1.6752   21.7507 N.ar    1  UNL1       -0.2431
     21 C           6.2154   -2.1866   22.2915 C.ar    1  UNL1        0.1086
     22 C           6.2467   -2.9285   23.5949 C.ar    1  UNL1        0.1590
     23 F           4.9756   -3.1589   24.3573 F       1  UNL1       -0.2025
     24 C           3.5797   -0.4219   19.9064 C.ar    1  UNL1        0.0177
     25 C           2.2859   -0.8645   20.5229 C.ar    1  UNL1        0.0015
     26 C           0.9837   -0.3531   19.9820 C.ar    1  UNL1        0.0000
     27 C           0.9753    0.6010   18.8245 C.ar    1  UNL1        0.0000
     28 C           2.2692    1.0436   18.2080 C.ar    1  UNL1        0.0000
     29 C           3.5713    0.5321   18.7489 C.ar    1  UNL1        0.0015
     30 C           6.6087   -3.2745   32.3150 C.3     1  UNL1        0.0293
     31 C           6.7502   -4.4171   31.3534 C.3     1  UNL1        0.0892
     32 O           6.5207   -5.3882   32.4734 O.3     1  UNL1       -0.3867
     33 C           6.8917   -5.5596   30.3917 C.3     1  UNL1        0.0345
     34 C           7.1212   -4.5885   29.2718 C.3     1  UNL1        0.0633
     35 C           6.9797   -3.4460   30.2334 C.3     1  UNL1        0.0345
     36 H           6.3849   -4.9010   33.3011 H       1  UNL1        0.2102
@<TRIPOS>BOND
     1    31    30    1
     2    31    32    1
     3    31    33    1
     4    33    34    1
     5    34     1    1
     6     1     2   ar
     7     2     3   ar
     8     3    13    1
     9    13    14   ar
    10    14    15   ar
    11    15    16   ar
    12    16    17   ar
    13    17    18   ar
    14    18    19   ar
    15    19    24    1
    16    24    25   ar
    17    25    26   ar
    18    26    27   ar
    19    27    28   ar
    20    28    29   ar
    21    19    20   ar
    22    20    21   ar
    23    21    22   ar
    24    22    23    1
    25     3     4   ar
    26     4     5   ar
    27     5     6    1
    28     5     7   ar
    29     7     8   ar
    30     8     9   ar
    31     9    10   ar
    32    34    35    1
    33    35    31    1
    34    10     1   ar
    35    22    13   ar
    36    10     4   ar
    37    21    16   ar
    38    29    24   ar
    39    32    36    1
    40     6    11    1
    41     6    12    1
@<TRIPOS>MOLECULE
*****
 36 41 0 0 0
SMALL
GASTEIGER

@<TRIPOS>ATOM
      1 C           3.3236   -0.5435   19.7430 C.ar    1  UNL1        0.1405
      2 N           1.9081   -0.1529   19.4364 N.ar    1  UNL1       -0.2290
      3 C           1.7996    1.3374   19.5682 C.ar    1  UNL1        0.1052
      4 C           3.1479    1.8679   19.9562 C.ar    1  UNL1        0.1328
      5 C           3.6397    3.2592   20.2251 C.ar    1  UNL1        0.1466
      6 N           2.6978    4.4216   20.1170 N.pl3   1  UNL1       -0.3413
      7 N           5.0734    3.4882   20.6020 N.ar    1  UNL1       -0.2064
      8 C           6.0153    2.3257   20.7101 C.ar    1  UNL1        0.2211
      9 N           5.5235    0.9345   20.4412 N.ar    1  UNL1       -0.1411
     10 N           4.0898    0.7055   20.0643 N.ar    1  UNL1       -0.2104
     11 H           1.7568    4.2713   19.8696 H       1  UNL1        0.1438
     12 H           3.0206    5.3348   20.2935 H       1  UNL1        0.1438
     13 C           0.5602    2.1538   19.3502 C.ar    1  UNL1        0.0482
     14 C           0.3366    2.8413   18.0359 C.ar    1  UNL1        0.0039
     15 C          -0.9027    3.6577   17.8179 C.ar    1  UNL1        0.0017
     16 C          -1.9185    3.7866   18.9141 C.ar    1  UNL1        0.0199
     17 C          -3.1578    4.6030   18.6961 C.ar    1  UNL1        0.0031
     18 C          -4.1734    4.7320   19.7924 C.ar    1  UNL1        0.0191
     19 C          -3.9497    4.0445   21.1066 C.ar    1  UNL1        0.0813
     20 N          -2.7104    3.2281   21.3247 N.ar    1  UNL1       -0.2431
     21 C          -1.6948    3.0992   20.2284 C.ar    1  UNL1        0.1086
     22 C          -0.4554    2.2827   20.4464 C.ar    1  UNL1        0.1590
     23 F          -0.2318    1.5953   21.7607 F       1  UNL1       -0.2025
     24 C          -4.9655    4.1734   22.2029 C.ar    1  UNL1        0.0177
     25 C          -6.4157    4.3528   21.8644 C.ar    1  UNL1        0.0015
     26 C          -7.4314    4.4818   22.9607 C.ar    1  UNL1        0.0000
     27 C          -6.9968    4.4313   24.3955 C.ar    1  UNL1        0.0000
     28 C          -5.5465    4.2520   24.7340 C.ar    1  UNL1        0.0000
     29 C          -4.5309    4.1230   23.6377 C.ar    1  UNL1        0.0015
     30 C           4.3619   -5.1609   18.9391 C.3     1  UNL1        0.0293
     31 C           4.6569   -3.9102   19.7130 C.3     1  UNL1        0.0892
     32 O           5.7328   -4.6317   20.4692 O.3     1  UNL1       -0.3867
     33 C           4.9517   -2.6595   20.4868 C.3     1  UNL1        0.0345
     34 C           3.8759   -1.9380   19.7306 C.3     1  UNL1        0.0633
     35 C           3.5810   -3.1886   18.9568 C.3     1  UNL1        0.0345
     36 H           5.7850   -5.5498   20.1604 H       1  UNL1        0.2102
@<TRIPOS>BOND
     1    31    30    1
     2    31    32    1
     3    31    33    1
     4    33    34    1
     5    34     1    1
     6     1     2   ar
     7     2     3   ar
     8     3    13    1
     9    13    14   ar
    10    14    15   ar
    11    15    16   ar
    12    16    17   ar
    13    17    18   ar
    14    18    19   ar
    15    19    24    1
    16    24    25   ar
    17    25    26   ar
    18    26    27   ar
    19    27    28   ar
    20    28    29   ar
    21    19    20   ar
    22    20    21   ar
    23    21    22   ar
    24    22    23    1
    25     3     4   ar
    26     4     5   ar
    27     5     6    1
    28     5     7   ar
    29     7     8   ar
    30     8     9   ar
    31     9    10   ar
    32    34    35    1
    33    35    31    1
    34    10     1   ar
    35    22    13   ar
    36    10     4   ar
    37    21    16   ar
    38    29    24   ar
    39    32    36    1
    40     6    11    1
    41     6    12    1
@<TRIPOS>MOLECULE
*****
 36 41 0 0 0
SMALL
GASTEIGER

@<TRIPOS>ATOM
      1 C          -3.2704    3.9466   19.7356 C.ar    1  UNL1        0.1405
      2 N          -2.6783    2.8971   20.6291 N.ar    1  UNL1       -0.2290
      3 C          -1.1854    3.0335   20.5783 C.ar    1  UNL1        0.1052
      4 C          -0.8547    4.1673   19.6535 C.ar    1  UNL1        0.1328
      5 C           0.4533    4.7587   19.2184 C.ar    1  UNL1        0.1466
      6 N           1.7418    4.1944   19.7392 N.pl3   1  UNL1       -0.3413
      7 N           0.4728    5.9145   18.2625 N.ar    1  UNL1       -0.2064
      8 C          -0.8159    6.4788   17.7417 C.ar    1  UNL1        0.2211
      9 N          -2.1238    5.8874   18.1768 N.ar    1  UNL1       -0.1411
     10 N          -2.1432    4.7316   19.1327 N.ar    1  UNL1       -0.2104
     11 H           1.7290    3.4359   20.3666 H       1  UNL1        0.1438
     12 H           2.6003    4.5826   19.4536 H       1  UNL1        0.1438
     13 C          -0.1968    2.1851   21.3218 C.ar    1  UNL1        0.0482
     14 C           0.0178    2.3968   22.7912 C.ar    1  UNL1        0.0039
     15 C           1.0064    1.5484   23.5347 C.ar    1  UNL1        0.0017
     16 C           1.7805    0.4882   22.8089 C.ar    1  UNL1        0.0199
     17 C           2.7691   -0.3602   23.5524 C.ar    1  UNL1        0.0031
     18 C           3.5431   -1.4203   22.8265 C.ar    1  UNL1        0.0191
     19 C           3.3286   -1.6320   21.3571 C.ar    1  UNL1        0.0813
     20 N           2.3400   -0.7837   20.6136 N.ar    1  UNL1       -0.2431
     21 C           1.5659    0.2765   21.3395 C.ar    1  UNL1        0.1086
     22 C           0.5773    1.1249   20.5959 C.ar    1  UNL1        0.1590
     23 F           0.3627    0.9132   19.1265 F       1  UNL1       -0.2025
     24 C           4.1027   -2.6922   20.6312 C.ar    1  UNL1        0.0177
     25 C           5.5539   -2.9076   20.9436 C.ar    1  UNL1        0.0015
     26 C           6.3280   -3.9679   20.2177 C.ar    1  UNL1        0.0000
     27 C           5.6508   -4.8126   19.1795 C.ar    1  UNL1        0.0000
     28 C           4.1995   -4.5971   18.8672 C.ar    1  UNL1        0.0000
     29 C           3.4255   -3.5370   19.5930 C.ar    1  UNL1        0.0015
     30 C          -7.7695    5.5945   19.4402 C.3     1  UNL1        0.0293
     31 C          -6.8006    4.4897   19.1390 C.3     1  UNL1        0.0892
     32 O          -7.8997    3.7030   18.4884 O.3     1  UNL1       -0.3867
     33 C          -5.8316    3.3849   18.8379 C.3     1  UNL1        0.0345
     34 C          -4.7326    4.1715   19.4885 C.3     1  UNL1        0.0633
     35 C          -5.7015    5.2762   19.7896 C.3     1  UNL1        0.0345
     36 H          -8.7274    4.2070   18.5317 H       1  UNL1        0.2102
@<TRIPOS>BOND
     1    31    30    1
     2    31    32    1
     3    31    33    1
     4    33    34    1
     5    34     1    1
     6     1     2   ar
     7     2     3   ar
     8     3    13    1
     9    13    14   ar
    10    14    15   ar
    11    15    16   ar
    12    16    17   ar
    13    17    18   ar
    14    18    19   ar
    15    19    24    1
    16    24    25   ar
    17    25    26   ar
    18    26    27   ar
    19    27    28   ar
    20    28    29   ar
    21    19    20   ar
    22    20    21   ar
    23    21    22   ar
    24    22    23    1
    25     3     4   ar
    26     4     5   ar
    27     5     6    1
    28     5     7   ar
    29     7     8   ar
    30     8     9   ar
    31     9    10   ar
    32    34    35    1
    33    35    31    1
    34    10     1   ar
    35    22    13   ar
    36    10     4   ar
    37    21    16   ar
    38    29    24   ar
    39    32    36    1
    40     6    11    1
    41     6    12    1
@<TRIPOS>MOLECULE
*****
 36 41 0 0 0
SMALL
GASTEIGER

@<TRIPOS>ATOM
      1 C           3.2222   -0.3164   21.1102 C.ar    1  UNL1        0.1405
      2 N           2.5617   -0.5835   22.4303 N.ar    1  UNL1       -0.2290
      3 C           2.2135    0.7374   23.0500 C.ar    1  UNL1        0.1052
      4 C           2.6587    1.8208   22.1131 C.ar    1  UNL1        0.1328
      5 C           2.5770    3.3163   22.1966 C.ar    1  UNL1        0.1466
      6 N           1.9536    3.9675   23.3955 N.pl3   1  UNL1       -0.3413
      7 N           3.1186    4.1605   21.0814 N.ar    1  UNL1       -0.2064
      8 C           3.7420    3.5092   19.8825 C.ar    1  UNL1        0.2211
      9 N           3.8237    2.0138   19.7989 N.ar    1  UNL1       -0.1411
     10 N           3.2821    1.1696   20.9142 N.ar    1  UNL1       -0.2104
     11 H           1.5981    3.4134   24.1275 H       1  UNL1        0.1438
     12 H           1.9000    4.9490   23.4504 H       1  UNL1        0.1438
     13 C           1.5385    0.9393   24.3744 C.ar    1  UNL1        0.0482
     14 C           0.1208    1.4265   24.4270 C.ar    1  UNL1        0.0039
     15 C          -0.5541    1.6284   25.7512 C.ar    1  UNL1        0.0017
     16 C           0.1886    1.3432   27.0229 C.ar    1  UNL1        0.0199
     17 C          -0.4863    1.5451   28.3471 C.ar    1  UNL1        0.0031
     18 C           0.2564    1.2598   29.6187 C.ar    1  UNL1        0.0191
     19 C           1.6741    0.7727   29.5660 C.ar    1  UNL1        0.0813
     20 N           2.3491    0.5707   28.2418 N.ar    1  UNL1       -0.2431
     21 C           1.6063    0.8560   26.9702 C.ar    1  UNL1        0.1086
     22 C           2.2813    0.6541   25.6459 C.ar    1  UNL1        0.1590
     23 F           3.6990    0.1669   25.5933 F       1  UNL1       -0.2025
     24 C           2.4169    0.4874   30.8377 C.ar    1  UNL1        0.0177
     25 C           2.3383    1.4511   31.9844 C.ar    1  UNL1        0.0015
     26 C           3.0810    1.1658   33.2561 C.ar    1  UNL1        0.0000
     27 C           3.9024   -0.0831   33.3809 C.ar    1  UNL1        0.0000
     28 C           3.9809   -1.0468   32.2340 C.ar    1  UNL1        0.0000
     29 C           3.2382   -0.7615   30.9625 C.ar    1  UNL1        0.0015
     30 C           4.4328   -4.3183   18.7514 C.3     1  UNL1        0.0293
     31 C           4.4553   -2.8193   18.8020 C.3     1  UNL1        0.0892
     32 O           5.2003   -2.7865   17.5004 O.3     1  UNL1       -0.3867
     33 C           4.4779   -1.3203   18.8526 C.3     1  UNL1        0.0345
     34 C           3.7330   -1.3531   20.1541 C.3     1  UNL1        0.0633
     35 C           3.7104   -2.8520   20.1035 C.3     1  UNL1        0.0345
     36 H           5.3472   -3.6934   17.1890 H       1  UNL1        0.2102
@<TRIPOS>BOND
     1    31    30    1
     2    31    32    1
     3    31    33    1
     4    33    34    1
     5    34     1    1
     6     1     2   ar
     7     2     3   ar
     8     3    13    1
     9    13    14   ar
    10    14    15   ar
    11    15    16   ar
    12    16    17   ar
    13    17    18   ar
    14    18    19   ar
    15    19    24    1
    16    24    25   ar
    17    25    26   ar
    18    26    27   ar
    19    27    28   ar
    20    28    29   ar
    21    19    20   ar
    22    20    21   ar
    23    21    22   ar
    24    22    23    1
    25     3     4   ar
    26     4     5   ar
    27     5     6    1
    28     5     7   ar
    29     7     8   ar
    30     8     9   ar
    31     9    10   ar
    32    34    35    1
    33    35    31    1
    34    10     1   ar
    35    22    13   ar
    36    10     4   ar
    37    21    16   ar
    38    29    24   ar
    39    32    36    1
    40     6    11    1
    41     6    12    1
@<TRIPOS>MOLECULE
*****
 36 41 0 0 0
SMALL
GASTEIGER

@<TRIPOS>ATOM
      1 C         -13.7044   -6.0052   18.6152 C.ar    1  UNL1        0.1405
      2 N         -14.0010   -4.5460   18.4333 N.ar    1  UNL1       -0.2290
      3 C         -15.4588   -4.3309   18.7133 C.ar    1  UNL1        0.1052
      4 C         -16.0633   -5.6570   19.0684 C.ar    1  UNL1        0.1328
      5 C         -17.4610   -6.0559   19.4390 C.ar    1  UNL1        0.1466
      6 N         -18.5452   -5.0212   19.4996 N.pl3   1  UNL1       -0.3413
      7 N         -17.7744   -7.4897   19.7491 N.ar    1  UNL1       -0.2064
      8 C         -16.6901   -8.5245   19.6885 C.ar    1  UNL1        0.2211
      9 N         -15.2925   -8.1255   19.3178 N.ar    1  UNL1       -0.1411
     10 N         -14.9791   -6.6918   19.0078 N.ar    1  UNL1       -0.2104
     11 H         -18.3395   -4.0802   19.2961 H       1  UNL1        0.1438
     12 H         -19.4625   -5.2830   19.7429 H       1  UNL1        0.1438
     13 C         -16.1847   -3.0197   18.6495 C.ar    1  UNL1        0.0482
     14 C         -17.2020   -2.7773   17.5742 C.ar    1  UNL1        0.0039
     15 C         -17.9279   -1.4662   17.5104 C.ar    1  UNL1        0.0017
     16 C         -17.6365   -0.3975   18.5219 C.ar    1  UNL1        0.0199
     17 C         -18.3624    0.9136   18.4580 C.ar    1  UNL1        0.0031
     18 C         -18.0709    1.9822   19.4695 C.ar    1  UNL1        0.0191
     19 C         -17.0536    1.7397   20.5448 C.ar    1  UNL1        0.0813
     20 N         -16.3277    0.4286   20.6086 N.ar    1  UNL1       -0.2431
     21 C         -16.6192   -0.6400   19.5972 C.ar    1  UNL1        0.1086
     22 C         -15.8933   -1.9511   19.6610 C.ar    1  UNL1        0.1590
     23 F         -14.8760   -2.1936   20.7363 F       1  UNL1       -0.2025
     24 C         -16.7622    2.8084   21.5562 C.ar    1  UNL1        0.0177
     25 C         -17.2891    2.6811   22.9548 C.ar    1  UNL1        0.0015
     26 C         -16.9976    3.7498   23.9663 C.ar    1  UNL1        0.0000
     27 C         -16.1793    4.9458   23.5791 C.ar    1  UNL1        0.0000
     28 C         -15.6524    5.0731   22.1804 C.ar    1  UNL1        0.0000
     29 C         -15.9439    4.0044   21.1690 C.ar    1  UNL1        0.0015
     30 C          -9.0933   -7.3375   18.7004 C.3     1  UNL1        0.0293
     31 C         -10.4780   -7.5917   18.1829 C.3     1  UNL1        0.0892
     32 O          -9.9728   -8.7752   17.4120 O.3     1  UNL1       -0.3867
     33 C         -11.8629   -7.8458   17.6654 C.3     1  UNL1        0.0345
     34 C         -12.3680   -6.6623   18.4361 C.3     1  UNL1        0.0633
     35 C         -10.9833   -6.4082   18.9536 C.3     1  UNL1        0.0345
     36 H          -9.0196   -8.8754   17.5614 H       1  UNL1        0.2102
@<TRIPOS>BOND
     1    31    30    1
     2    31    32    1
     3    31    33    1
     4    33    34    1
     5    34     1    1
     6     1     2   ar
     7     2     3   ar
     8     3    13    1
     9    13    14   ar
    10    14    15   ar
    11    15    16   ar
    12    16    17   ar
    13    17    18   ar
    14    18    19   ar
    15    19    24    1
    16    24    25   ar
    17    25    26   ar
    18    26    27   ar
    19    27    28   ar
    20    28    29   ar
    21    19    20   ar
    22    20    21   ar
    23    21    22   ar
    24    22    23    1
    25     3     4   ar
    26     4     5   ar
    27     5     6    1
    28     5     7   ar
    29     7     8   ar
    30     8     9   ar
    31     9    10   ar
    32    34    35    1
    33    35    31    1
    34    10     1   ar
    35    22    13   ar
    36    10     4   ar
    37    21    16   ar
    38    29    24   ar
    39    32    36    1
    40     6    11    1
    41     6    12    1
@<TRIPOS>MOLECULE
*****
 36 41 0 0 0
SMALL
GASTEIGER

@<TRIPOS>ATOM
      1 C           3.4056    1.1491   18.2148 C.ar    1  UNL1        0.1405
      2 N           1.9122    1.2125   18.3413 N.ar    1  UNL1       -0.2290
      3 C           1.5138    2.6569   18.4107 C.ar    1  UNL1        0.1052
      4 C           2.7609    3.4863   18.3271 C.ar    1  UNL1        0.1328
      5 C           2.9829    4.9697   18.3455 C.ar    1  UNL1        0.1466
      6 N           1.8137    5.9015   18.4665 N.pl3   1  UNL1       -0.3413
      7 N           4.3740    5.5212   18.2429 N.ar    1  UNL1       -0.2064
      8 C           5.5432    4.5892   18.1219 C.ar    1  UNL1        0.2211
      9 N           5.3212    3.1060   18.1034 N.ar    1  UNL1       -0.1411
     10 N           3.9301    2.5544   18.2060 N.ar    1  UNL1       -0.2104
     11 H           0.9006    5.5396   18.5339 H       1  UNL1        0.1438
     12 H           1.9594    6.8751   18.4786 H       1  UNL1        0.1438
     13 C           0.1140    3.1802   18.5408 C.ar    1  UNL1        0.0482
     14 C          -0.6590    3.5671   17.3149 C.ar    1  UNL1        0.0039
     15 C          -2.0587    4.0903   17.4450 C.ar    1  UNL1        0.0017
     16 C          -2.6855    4.2266   18.8010 C.ar    1  UNL1        0.0199
     17 C          -4.0852    4.7498   18.9311 C.ar    1  UNL1        0.0031
     18 C          -4.7120    4.8860   20.2870 C.ar    1  UNL1        0.0191
     19 C          -3.9389    4.4991   21.5129 C.ar    1  UNL1        0.0813
     20 N          -2.5392    3.9759   21.3828 N.ar    1  UNL1       -0.2431
     21 C          -1.9125    3.8397   20.0269 C.ar    1  UNL1        0.1086
     22 C          -0.5127    3.3164   19.8967 C.ar    1  UNL1        0.1590
     23 F           0.2603    2.9295   21.1226 F       1  UNL1       -0.2025
     24 C          -4.5657    4.6354   22.8688 C.ar    1  UNL1        0.0177
     25 C          -5.2897    5.8964   23.2371 C.ar    1  UNL1        0.0015
     26 C          -5.9165    6.0327   24.5931 C.ar    1  UNL1        0.0000
     27 C          -5.8193    4.9080   25.5808 C.ar    1  UNL1        0.0000
     28 C          -5.0952    3.6469   25.2124 C.ar    1  UNL1        0.0000
     29 C          -4.4685    3.5107   23.8565 C.ar    1  UNL1        0.0015
     30 C           5.2335   -3.2843   18.4369 C.3     1  UNL1        0.0293
     31 C           5.3952   -1.8670   17.9732 C.3     1  UNL1        0.0892
     32 O           6.7225   -2.2164   17.3679 O.3     1  UNL1       -0.3867
     33 C           5.5569   -0.4496   17.5095 C.3     1  UNL1        0.0345
     34 C           4.2297   -0.1002   18.1147 C.3     1  UNL1        0.0633
     35 C           4.0680   -1.5175   18.5784 C.3     1  UNL1        0.0345
     36 H           6.9100   -3.1558   17.5201 H       1  UNL1        0.2102
@<TRIPOS>BOND
     1    31    30    1
     2    31    32    1
     3    31    33    1
     4    33    34    1
     5    34     1    1
     6     1     2   ar
     7     2     3   ar
     8     3    13    1
     9    13    14   ar
    10    14    15   ar
    11    15    16   ar
    12    16    17   ar
    13    17    18   ar
    14    18    19   ar
    15    19    24    1
    16    24    25   ar
    17    25    26   ar
    18    26    27   ar
    19    27    28   ar
    20    28    29   ar
    21    19    20   ar
    22    20    21   ar
    23    21    22   ar
    24    22    23    1
    25     3     4   ar
    26     4     5   ar
    27     5     6    1
    28     5     7   ar
    29     7     8   ar
    30     8     9   ar
    31     9    10   ar
    32    34    35    1
    33    35    31    1
    34    10     1   ar
    35    22    13   ar
    36    10     4   ar
    37    21    16   ar
    38    29    24   ar
    39    32    36    1
    40     6    11    1
    41     6    12    1
@<TRIPOS>MOLECULE
*****
 36 41 0 0 0
SMALL
GASTEIGER

@<TRIPOS>ATOM
      1 C           5.5247   -1.5247   28.4702 C.ar    1  UNL1        0.1405
      2 N           5.5768   -0.6456   29.6845 N.ar    1  UNL1       -0.2290
      3 C           6.0623   -1.4746   30.8364 C.ar    1  UNL1        0.1052
      4 C           6.3103   -2.8661   30.3342 C.ar    1  UNL1        0.1328
      5 C           6.7958   -4.1089   31.0195 C.ar    1  UNL1        0.1466
      6 N           7.1281   -4.0779   32.4819 N.pl3   1  UNL1       -0.3413
      7 N           6.9489   -5.3828   30.2425 N.ar    1  UNL1       -0.2064
      8 C           6.6166   -5.4137   28.7800 C.ar    1  UNL1        0.2211
      9 N           6.1312   -4.1710   28.0947 N.ar    1  UNL1       -0.1411
     10 N           5.9780   -2.8971   28.8718 N.ar    1  UNL1       -0.2104
     11 H           7.0275   -3.2418   32.9919 H       1  UNL1        0.1438
     12 H           7.4467   -4.8936   32.9317 H       1  UNL1        0.1438
     13 C           6.2644   -0.9961   32.2437 C.ar    1  UNL1        0.0482
     14 C           7.6346   -1.0175   32.8536 C.ar    1  UNL1        0.0039
     15 C           7.8368   -0.5390   34.2608 C.ar    1  UNL1        0.0017
     16 C           6.6686   -0.0390   35.0581 C.ar    1  UNL1        0.0199
     17 C           6.8708    0.4395   36.4652 C.ar    1  UNL1        0.0031
     18 C           5.7027    0.9394   37.2624 C.ar    1  UNL1        0.0191
     19 C           4.3324    0.9608   36.6525 C.ar    1  UNL1        0.0813
     20 N           4.1303    0.4823   35.2453 N.ar    1  UNL1       -0.2431
     21 C           5.2984   -0.0176   34.4481 C.ar    1  UNL1        0.1086
     22 C           5.0963   -0.4962   33.0409 C.ar    1  UNL1        0.1590
     23 F           3.7261   -0.4748   32.4309 F       1  UNL1       -0.2025
     24 C           3.1643    1.4607   37.4498 C.ar    1  UNL1        0.0177
     25 C           2.6333    2.8438   37.2155 C.ar    1  UNL1        0.0015
     26 C           1.4651    3.3438   38.0128 C.ar    1  UNL1        0.0000
     27 C           0.8281    2.4605   39.0444 C.ar    1  UNL1        0.0000
     28 C           1.3592    1.0773   39.2786 C.ar    1  UNL1        0.0000
     29 C           2.5273    0.5775   38.4813 C.ar    1  UNL1        0.0015
     30 C           3.1924   -0.5295   24.3940 C.3     1  UNL1        0.0293
     31 C           4.4866   -0.5120   25.1520 C.3     1  UNL1        0.0892
     32 O           5.1729    0.0989   23.9662 O.3     1  UNL1       -0.3867
     33 C           5.7809   -0.4944   25.9101 C.3     1  UNL1        0.0345
     34 C           5.0947   -1.1052   27.0958 C.3     1  UNL1        0.0633
     35 C           3.8005   -1.1228   26.3378 C.3     1  UNL1        0.0345
     36 H           4.5317    0.2199   23.2485 H       1  UNL1        0.2102
@<TRIPOS>BOND
     1    31    30    1
     2    31    32    1
     3    31    33    1
     4    33    34    1
     5    34     1    1
     6     1     2   ar
     7     2     3   ar
     8     3    13    1
     9    13    14   ar
    10    14    15   ar
    11    15    16   ar
    12    16    17   ar
    13    17    18   ar
    14    18    19   ar
    15    19    24    1
    16    24    25   ar
    17    25    26   ar
    18    26    27   ar
    19    27    28   ar
    20    28    29   ar
    21    19    20   ar
    22    20    21   ar
    23    21    22   ar
    24    22    23    1
    25     3     4   ar
    26     4     5   ar
    27     5     6    1
    28     5     7   ar
    29     7     8   ar
    30     8     9   ar
    31     9    10   ar
    32    34    35    1
    33    35    31    1
    34    10     1   ar
    35    22    13   ar
    36    10     4   ar
    37    21    16   ar
    38    29    24   ar
    39    32    36    1
    40     6    11    1
    41     6    12    1
