@<TRIPOS>MOLECULE
*****
 34 36 0 0 0
SMALL
GASTEIGER

@<TRIPOS>ATOM
      1 C         -12.4041   -3.4225   18.8178 C.ar    1  UNL1        0.1346
      2 C         -13.7850   -3.3985   19.4029 C.ar    1  UNL1        0.0334
      3 C         -14.6014   -4.6560   19.4503 C.ar    1  UNL1       -0.0005
      4 C         -14.0368   -5.9375   18.9127 C.ar    1  UNL1       -0.0098
      5 C         -12.6558   -5.9614   18.3276 C.ar    1  UNL1       -0.0048
      6 C         -11.8395   -4.7039   18.2802 C.ar    1  UNL1        0.0109
      7 C         -14.8531   -7.1950   18.9601 C.3     1  UNL1        0.1249
      8 C         -16.1374   -7.2267   19.7344 C.2     1  UNL1        0.0181
      9 C         -16.9537   -8.4842   19.7818 C.2     1  UNL1        0.1532
     10 F         -18.2380   -8.5159   20.5562 F       1  UNL1       -0.2031
     11 C         -16.4858   -9.7100   19.0549 C.2     1  UNL1        0.1179
     12 N         -15.2016   -9.6783   18.2805 N.am    1  UNL1       -0.1750
     13 C         -14.3852   -8.4208   18.2331 C.2     1  UNL1        0.2535
     14 O         -13.1009   -8.3891   17.4587 O.2     1  UNL1       -0.2723
     15 C         -10.4584   -4.7279   17.6952 C.3     1  UNL1        0.0218
     16 C         -11.0390   -4.5896   16.3191 C.3     1  UNL1        0.0045
     17 C          -9.8778   -4.8662   19.0713 C.3     1  UNL1        0.0045
     18 C          -9.0775   -4.7518   17.1101 C.3     1  UNL1        0.0045
     19 C         -11.6784   -1.2564   17.5804 C.3     1  UNL1        0.2525
     20 O         -11.5877   -2.1650   18.7704 O.3     1  UNL1       -0.4717
     21 C         -14.3497   -2.1171   19.9405 C.2     1  UNL1        0.0030
     22 C         -15.0608   -1.1674   19.0226 C.2     1  UNL1        0.0001
     23 C         -15.6255    0.1140   19.5602 C.ar    1  UNL1        0.0001
     24 C         -16.7435    0.0800   20.5598 C.ar    1  UNL1        0.0013
     25 C         -17.3081    1.3614   21.0973 C.ar    1  UNL1        0.0158
     26 C         -16.7549    2.6769   20.6354 C.ar    1  UNL1        0.0644
     27 C         -15.6370    2.7110   19.6359 C.ar    1  UNL1        0.0158
     28 C         -15.0722    1.4296   19.0983 C.ar    1  UNL1        0.0013
     29 N         -17.3196    3.9584   21.1730 N.pl3   1  UNL1       -0.2187
     30 H         -17.5504    4.6911   20.5573 H       1  UNL1        0.1734
     31 S         -17.5326    4.1234   22.6486 S.O2    1  UNL1        0.0558
     32 C         -17.7457    4.2884   24.1242 C.3     1  UNL1        0.1996
     33 O         -19.0170    4.1340   22.4331 O.2     1  UNL1       -0.1544
     34 O         -16.0482    4.1128   22.8641 O.2     1  UNL1       -0.1544
@<TRIPOS>BOND
     1    19    20    1
     2    20     1    1
     3     1     2   ar
     4     2    21    1
     5    21    22    2
     6    22    23    1
     7    23    24   ar
     8    24    25   ar
     9    25    26   ar
    10    26    29    1
    11    29    31    1
    12    31    32    1
    13    31    33    2
    14    31    34    2
    15    26    27   ar
    16    27    28   ar
    17     2     3   ar
    18     3     4   ar
    19     4     7    1
    20     7     8    1
    21     8     9    2
    22     9    10    1
    23     9    11    1
    24    11    12    2
    25    12    13    1
    26    13    14    2
    27     4     5   ar
    28     5     6   ar
    29     6    15    1
    30    15    16    1
    31    15    17    1
    32    15    18    1
    33     6     1   ar
    34    28    23   ar
    35    13     7    1
    36    29    30    1
@<TRIPOS>MOLECULE
*****
 34 36 0 0 0
SMALL
GASTEIGER

@<TRIPOS>ATOM
      1 C           4.4074   -3.0854   21.7893 C.ar    1  UNL1        0.1346
      2 C           3.9484   -1.9905   22.7061 C.ar    1  UNL1        0.0334
      3 C           3.0813   -0.8855   22.1795 C.ar    1  UNL1       -0.0005
      4 C           2.6733   -0.8755   20.7361 C.ar    1  UNL1       -0.0098
      5 C           3.1323   -1.9703   19.8194 C.ar    1  UNL1       -0.0048
      6 C           3.9993   -3.0753   20.3460 C.ar    1  UNL1        0.0109
      7 C           1.8062    0.2295   20.2095 C.3     1  UNL1        0.1249
      8 C           0.7027    0.7866   21.0591 C.2     1  UNL1        0.0181
      9 C          -0.1644    1.8915   20.5325 C.2     1  UNL1        0.1532
     10 F          -1.2680    2.4486   21.3821 F       1  UNL1       -0.2031
     11 C           0.0721    2.4394   19.1563 C.2     1  UNL1        0.1179
     12 N           1.1757    1.8823   18.3068 N.am    1  UNL1       -0.1750
     13 C           2.0427    0.7774   18.8334 C.2     1  UNL1        0.2535
     14 O           3.1463    0.2203   17.9837 O.2     1  UNL1       -0.2723
     15 C           4.4583   -4.1702   19.4291 C.3     1  UNL1        0.0218
     16 C           3.3284   -5.0375   19.8993 C.3     1  UNL1        0.0045
     17 C           5.5882   -3.3029   18.9589 C.3     1  UNL1        0.0045
     18 C           4.9172   -5.2651   18.5124 C.3     1  UNL1        0.0045
     19 C           6.7595   -4.0001   22.4061 C.3     1  UNL1        0.2525
     20 O           5.2744   -4.1903   22.3160 O.3     1  UNL1       -0.4717
     21 C           4.3564   -2.0005   24.1496 C.2     1  UNL1        0.0030
     22 C           3.6330   -1.1364   25.1394 C.2     1  UNL1        0.0001
     23 C           4.0409   -1.1463   26.5828 C.ar    1  UNL1        0.0001
     24 C           3.1157   -0.5963   27.6276 C.ar    1  UNL1        0.0013
     25 C           3.5237   -0.6063   29.0710 C.ar    1  UNL1        0.0158
     26 C           4.8569   -1.1663   29.4697 C.ar    1  UNL1        0.0644
     27 C           5.7821   -1.7163   28.4250 C.ar    1  UNL1        0.0158
     28 C           5.3741   -1.7063   26.9815 C.ar    1  UNL1        0.0013
     29 N           5.2649   -1.1763   30.9131 N.pl3   1  UNL1       -0.2187
     30 H           6.0971   -1.6257   31.1863 H       1  UNL1        0.1734
     31 S           4.4048   -0.5016   31.9403 S.O2    1  UNL1        0.0558
     32 C           3.5448    0.1732   32.9674 C.3     1  UNL1        0.1996
     33 O           5.0941    0.8012   31.6616 O.2     1  UNL1       -0.1544
     34 O           3.7155   -1.8043   32.2189 O.2     1  UNL1       -0.1544
@<TRIPOS>BOND
     1    19    20    1
     2    20     1    1
     3     1     2   ar
     4     2    21    1
     5    21    22    2
     6    22    23    1
     7    23    24   ar
     8    24    25   ar
     9    25    26   ar
    10    26    29    1
    11    29    31    1
    12    31    32    1
    13    31    33    2
    14    31    34    2
    15    26    27   ar
    16    27    28   ar
    17     2     3   ar
    18     3     4   ar
    19     4     7    1
    20     7     8    1
    21     8     9    2
    22     9    10    1
    23     9    11    1
    24    11    12    2
    25    12    13    1
    26    13    14    2
    27     4     5   ar
    28     5     6   ar
    29     6    15    1
    30    15    16    1
    31    15    17    1
    32    15    18    1
    33     6     1   ar
    34    28    23   ar
    35    13     7    1
    36    29    30    1
@<TRIPOS>MOLECULE
*****
 34 36 0 0 0
SMALL
GASTEIGER

@<TRIPOS>ATOM
      1 C           4.3963   -3.0093   21.6666 C.ar    1  UNL1        0.1346
      2 C           4.0096   -1.8454   22.5301 C.ar    1  UNL1        0.0334
      3 C           3.2899   -0.6736   21.9310 C.ar    1  UNL1       -0.0005
      4 C           2.9569   -0.6657   20.4685 C.ar    1  UNL1       -0.0098
      5 C           3.3436   -1.8296   19.6050 C.ar    1  UNL1       -0.0048
      6 C           4.0633   -3.0014   20.2041 C.ar    1  UNL1        0.0109
      7 C           2.2372    0.5062   19.8695 C.3     1  UNL1        0.1249
      8 C           3.0001    1.5369   19.0913 C.2     1  UNL1        0.0181
      9 C           2.2804    2.7088   18.4923 C.2     1  UNL1        0.1532
     10 F           3.0433    3.7396   17.7141 F       1  UNL1       -0.2031
     11 C           0.7979    2.8498   18.6714 C.2     1  UNL1        0.1179
     12 N           0.0350    1.8191   19.4495 N.am    1  UNL1       -0.1750
     13 C           0.7547    0.6473   20.0486 C.2     1  UNL1        0.2535
     14 O          -0.0082   -0.3835   20.8268 O.2     1  UNL1       -0.2723
     15 C           4.4501   -4.1654   19.3405 C.3     1  UNL1        0.0218
     16 C           5.6837   -3.4320   18.9044 C.3     1  UNL1        0.0045
     17 C           3.2164   -4.8989   19.7766 C.3     1  UNL1        0.0045
     18 C           4.8368   -5.3293   18.4770 C.3     1  UNL1        0.0045
     19 C           6.6019   -4.1274   22.4637 C.3     1  UNL1        0.2525
     20 O           5.1160   -4.1812   22.2656 O.3     1  UNL1       -0.4717
     21 C           4.3425   -1.8532   23.9927 C.2     1  UNL1        0.0030
     22 C           3.6113   -0.9418   24.9332 C.2     1  UNL1        0.0001
     23 C           3.9442   -0.9496   26.3958 C.ar    1  UNL1        0.0001
     24 C           3.0828   -0.1957   27.3651 C.ar    1  UNL1        0.0013
     25 C           3.4157   -0.2035   28.8276 C.ar    1  UNL1        0.0158
     26 C           4.6100   -0.9652   29.3209 C.ar    1  UNL1        0.0644
     27 C           5.4715   -1.7192   28.3517 C.ar    1  UNL1        0.0158
     28 C           5.1386   -1.7114   26.8890 C.ar    1  UNL1        0.0013
     29 N           4.9429   -0.9730   30.7835 N.pl3   1  UNL1       -0.2187
     30 H           5.7232   -1.4782   31.1080 H       1  UNL1        0.1734
     31 S           4.0871   -0.2112   31.7516 S.O2    1  UNL1        0.0558
     32 C           3.2313    0.5506   32.7196 C.3     1  UNL1        0.1996
     33 O           4.9366    1.0074   31.5436 O.2     1  UNL1       -0.1544
     34 O           3.2375   -1.4298   31.9596 O.2     1  UNL1       -0.1544
@<TRIPOS>BOND
     1    19    20    1
     2    20     1    1
     3     1     2   ar
     4     2    21    1
     5    21    22    2
     6    22    23    1
     7    23    24   ar
     8    24    25   ar
     9    25    26   ar
    10    26    29    1
    11    29    31    1
    12    31    32    1
    13    31    33    2
    14    31    34    2
    15    26    27   ar
    16    27    28   ar
    17     2     3   ar
    18     3     4   ar
    19     4     7    1
    20     7     8    1
    21     8     9    2
    22     9    10    1
    23     9    11    1
    24    11    12    2
    25    12    13    1
    26    13    14    2
    27     4     5   ar
    28     5     6   ar
    29     6    15    1
    30    15    16    1
    31    15    17    1
    32    15    18    1
    33     6     1   ar
    34    28    23   ar
    35    13     7    1
    36    29    30    1
@<TRIPOS>MOLECULE
*****
 34 36 0 0 0
SMALL
GASTEIGER

@<TRIPOS>ATOM
      1 C           0.5095    1.5049   25.8541 C.ar    1  UNL1        0.1346
      2 C           0.2296    1.7980   24.4099 C.ar    1  UNL1        0.0334
      3 C          -0.9491    2.6449   24.0313 C.ar    1  UNL1       -0.0005
      4 C          -1.8479    3.1987   25.0968 C.ar    1  UNL1       -0.0098
      5 C          -1.5680    2.9057   26.5410 C.ar    1  UNL1       -0.0048
      6 C          -0.3893    2.0588   26.9196 C.ar    1  UNL1        0.0109
      7 C          -3.0267    4.0456   24.7181 C.3     1  UNL1        0.1249
      8 C          -4.2320    3.4141   24.0870 C.2     1  UNL1        0.0181
      9 C          -5.4108    4.2610   23.7084 C.2     1  UNL1        0.1532
     10 F          -6.6162    3.6295   23.0773 F       1  UNL1       -0.2031
     11 C          -5.3841    5.7394   23.9608 C.2     1  UNL1        0.1179
     12 N          -4.1787    6.3708   24.5919 N.am    1  UNL1       -0.1750
     13 C          -3.0000    5.5239   24.9705 C.2     1  UNL1        0.2535
     14 O          -1.7946    6.1555   25.6016 O.2     1  UNL1       -0.2723
     15 C          -0.1093    1.7658   28.3639 C.3     1  UNL1        0.0218
     16 C           0.6417    3.0589   28.4807 C.3     1  UNL1        0.0045
     17 C          -0.8604    0.4726   28.2472 C.3     1  UNL1        0.0045
     18 C           0.1706    1.4728   29.8081 C.3     1  UNL1        0.0045
     19 C           3.0395    1.2865   26.4030 C.3     1  UNL1        0.2525
     20 O           1.6883    0.6581   26.2328 O.3     1  UNL1       -0.4717
     21 C           1.1284    1.2441   23.3443 C.2     1  UNL1        0.0030
     22 C           0.5966    1.0107   21.9613 C.2     1  UNL1        0.0001
     23 C           1.4953    0.4569   20.8957 C.ar    1  UNL1        0.0001
     24 C           2.3896   -0.7083   21.1999 C.ar    1  UNL1        0.0013
     25 C           3.2884   -1.2622   20.1343 C.ar    1  UNL1        0.0158
     26 C           3.2928   -0.6508   18.7645 C.ar    1  UNL1        0.0644
     27 C           2.3985    0.5144   18.4604 C.ar    1  UNL1        0.0158
     28 C           1.4997    1.0683   19.5260 C.ar    1  UNL1        0.0013
     29 N           4.1915   -1.2046   17.6989 N.pl3   1  UNL1       -0.2187
     30 H           3.8343   -1.3881   16.8001 H       1  UNL1        0.1734
     31 S           5.6346   -1.4789   18.0028 S.O2    1  UNL1        0.0558
     32 C           7.0777   -1.7533   18.3067 C.3     1  UNL1        0.1996
     33 O           5.3970   -2.9468   17.8062 O.2     1  UNL1       -0.1544
     34 O           5.8723   -0.0110   18.1995 O.2     1  UNL1       -0.1544
@<TRIPOS>BOND
     1    19    20    1
     2    20     1    1
     3     1     2   ar
     4     2    21    1
     5    21    22    2
     6    22    23    1
     7    23    24   ar
     8    24    25   ar
     9    25    26   ar
    10    26    29    1
    11    29    31    1
    12    31    32    1
    13    31    33    2
    14    31    34    2
    15    26    27   ar
    16    27    28   ar
    17     2     3   ar
    18     3     4   ar
    19     4     7    1
    20     7     8    1
    21     8     9    2
    22     9    10    1
    23     9    11    1
    24    11    12    2
    25    12    13    1
    26    13    14    2
    27     4     5   ar
    28     5     6   ar
    29     6    15    1
    30    15    16    1
    31    15    17    1
    32    15    18    1
    33     6     1   ar
    34    28    23   ar
    35    13     7    1
    36    29    30    1
@<TRIPOS>MOLECULE
*****
 34 36 0 0 0
SMALL
GASTEIGER

@<TRIPOS>ATOM
      1 C          -1.9742    3.8455   19.2419 C.ar    1  UNL1        0.1346
      2 C          -1.1452    3.1079   20.2512 C.ar    1  UNL1        0.0334
      3 C          -1.5409    3.1177   21.6980 C.ar    1  UNL1       -0.0005
      4 C          -2.7656    3.8651   22.1355 C.ar    1  UNL1       -0.0098
      5 C          -3.5946    4.6028   21.1262 C.ar    1  UNL1       -0.0048
      6 C          -3.1988    4.5930   19.6794 C.ar    1  UNL1        0.0109
      7 C          -3.1614    3.8749   23.5824 C.3     1  UNL1        0.1249
      8 C          -2.1549    4.2406   24.6327 C.2     1  UNL1        0.0181
      9 C          -2.5507    4.2504   26.0796 C.2     1  UNL1        0.1532
     10 F          -1.5441    4.6160   27.1300 F       1  UNL1       -0.2031
     11 C          -3.9528    3.8945   26.4760 C.2     1  UNL1        0.1179
     12 N          -4.9593    3.5289   25.4256 N.am    1  UNL1       -0.1750
     13 C          -4.5635    3.5191   23.9788 C.2     1  UNL1        0.2535
     14 O          -5.5701    3.1534   22.9284 O.2     1  UNL1       -0.2723
     15 C          -4.0279    5.3306   18.6701 C.3     1  UNL1        0.0218
     16 C          -4.7588    4.0622   18.3435 C.3     1  UNL1        0.0045
     17 C          -3.2969    6.5991   18.9967 C.3     1  UNL1        0.0045
     18 C          -4.8569    6.0682   17.6608 C.3     1  UNL1        0.0045
     19 C          -0.5759    4.8280   17.2850 C.3     1  UNL1        0.2525
     20 O          -1.5784    3.8358   17.7951 O.3     1  UNL1       -0.4717
     21 C           0.0796    2.3605   19.8137 C.2     1  UNL1        0.0030
     22 C           0.1468    0.8707   19.9756 C.2     1  UNL1        0.0001
     23 C           1.3715    0.1233   19.5382 C.ar    1  UNL1        0.0001
     24 C           2.1539    0.5961   18.3489 C.ar    1  UNL1        0.0013
     25 C           3.3785   -0.1513   17.9114 C.ar    1  UNL1        0.0158
     26 C           3.8209   -1.3717   18.6632 C.ar    1  UNL1        0.0644
     27 C           3.0385   -1.8445   19.8524 C.ar    1  UNL1        0.0158
     28 C           1.8138   -1.0970   20.2899 C.ar    1  UNL1        0.0013
     29 N           5.0455   -2.1191   18.2257 N.pl3   1  UNL1       -0.2187
     30 H           4.9551   -2.9637   17.7279 H       1  UNL1        0.1734
     31 S           6.4080   -1.5798   18.5467 S.O2    1  UNL1        0.0558
     32 C           7.7704   -1.0406   18.8677 C.3     1  UNL1        0.1996
     33 O           6.2431   -2.0127   19.9734 O.2     1  UNL1       -0.1544
     34 O           6.5729   -1.1470   17.1200 O.2     1  UNL1       -0.1544
@<TRIPOS>BOND
     1    19    20    1
     2    20     1    1
     3     1     2   ar
     4     2    21    1
     5    21    22    2
     6    22    23    1
     7    23    24   ar
     8    24    25   ar
     9    25    26   ar
    10    26    29    1
    11    29    31    1
    12    31    32    1
    13    31    33    2
    14    31    34    2
    15    26    27   ar
    16    27    28   ar
    17     2     3   ar
    18     3     4   ar
    19     4     7    1
    20     7     8    1
    21     8     9    2
    22     9    10    1
    23     9    11    1
    24    11    12    2
    25    12    13    1
    26    13    14    2
    27     4     5   ar
    28     5     6   ar
    29     6    15    1
    30    15    16    1
    31    15    17    1
    32    15    18    1
    33     6     1   ar
    34    28    23   ar
    35    13     7    1
    36    29    30    1
@<TRIPOS>MOLECULE
*****
 34 36 0 0 0
SMALL
GASTEIGER

@<TRIPOS>ATOM
      1 C         -12.5714   -3.5755   18.8322 C.ar    1  UNL1        0.1346
      2 C         -13.9692   -3.4959   19.3703 C.ar    1  UNL1        0.0334
      3 C         -14.8482   -4.7113   19.3575 C.ar    1  UNL1       -0.0005
      4 C         -14.3294   -6.0063   18.8065 C.ar    1  UNL1       -0.0098
      5 C         -12.9315   -6.0860   18.2684 C.ar    1  UNL1       -0.0048
      6 C         -12.0525   -4.8706   18.2813 C.ar    1  UNL1        0.0109
      7 C         -15.2083   -7.2217   18.7936 C.3     1  UNL1        0.1249
      8 C         -14.6738   -8.5286   18.2875 C.2     1  UNL1        0.0181
      9 C         -15.5528   -9.7440   18.2746 C.2     1  UNL1        0.1532
     10 F         -15.0181  -11.0510   17.7684 F       1  UNL1       -0.2031
     11 C         -16.9663   -9.6525   18.7679 C.2     1  UNL1        0.1179
     12 N         -17.5009   -8.3457   19.2740 N.am    1  UNL1       -0.1750
     13 C         -16.6219   -7.1303   19.2869 C.2     1  UNL1        0.2535
     14 O         -17.1566   -5.8233   19.7931 O.2     1  UNL1       -0.2723
     15 C         -10.6546   -4.9503   17.7431 C.3     1  UNL1        0.0218
     16 C         -10.1283   -5.1270   19.1366 C.3     1  UNL1        0.0045
     17 C         -11.1809   -4.7735   16.3497 C.3     1  UNL1        0.0045
     18 C          -9.2567   -5.0299   17.2050 C.3     1  UNL1        0.0045
     19 C         -11.6751   -1.4345   17.6649 C.3     1  UNL1        0.2525
     20 O         -11.6924   -2.3601   18.8451 O.3     1  UNL1       -0.4717
     21 C         -14.4882   -2.2008   19.9213 C.2     1  UNL1        0.0030
     22 C         -15.1106   -1.1910   19.0033 C.2     1  UNL1        0.0001
     23 C         -15.6295    0.1041   19.5543 C.ar    1  UNL1        0.0001
     24 C         -15.0518    1.4053   19.0818 C.ar    1  UNL1        0.0013
     25 C         -15.5707    2.7003   19.6327 C.ar    1  UNL1        0.0158
     26 C         -16.6673    2.6942   20.6561 C.ar    1  UNL1        0.0644
     27 C         -17.2450    1.3931   21.1287 C.ar    1  UNL1        0.0158
     28 C         -16.7261    0.0980   20.5777 C.ar    1  UNL1        0.0013
     29 N         -17.1862    3.9892   21.2071 N.pl3   1  UNL1       -0.2187
     30 H         -16.5574    4.7007   21.4671 H       1  UNL1        0.1734
     31 S         -18.6633    4.2003   21.3618 S.O2    1  UNL1        0.0558
     32 C         -20.1403    4.4113   21.5165 C.3     1  UNL1        0.1996
     33 O         -18.8120    4.2528   19.8702 O.2     1  UNL1       -0.1544
     34 O         -18.5146    4.1478   22.8535 O.2     1  UNL1       -0.1544
@<TRIPOS>BOND
     1    19    20    1
     2    20     1    1
     3     1     2   ar
     4     2    21    1
     5    21    22    2
     6    22    23    1
     7    23    24   ar
     8    24    25   ar
     9    25    26   ar
    10    26    29    1
    11    29    31    1
    12    31    32    1
    13    31    33    2
    14    31    34    2
    15    26    27   ar
    16    27    28   ar
    17     2     3   ar
    18     3     4   ar
    19     4     7    1
    20     7     8    1
    21     8     9    2
    22     9    10    1
    23     9    11    1
    24    11    12    2
    25    12    13    1
    26    13    14    2
    27     4     5   ar
    28     5     6   ar
    29     6    15    1
    30    15    16    1
    31    15    17    1
    32    15    18    1
    33     6     1   ar
    34    28    23   ar
    35    13     7    1
    36    29    30    1
@<TRIPOS>MOLECULE
*****
 34 36 0 0 0
SMALL
GASTEIGER

@<TRIPOS>ATOM
      1 C          -1.7527    3.5741   22.9570 C.ar    1  UNL1        0.1346
      2 C          -0.4837    2.8017   23.1641 C.ar    1  UNL1        0.0334
      3 C          -0.0955    2.3523   24.5415 C.ar    1  UNL1       -0.0005
      4 C          -0.9764    2.6752   25.7118 C.ar    1  UNL1       -0.0098
      5 C          -2.2455    3.4475   25.5047 C.ar    1  UNL1       -0.0048
      6 C          -2.6336    3.8970   24.1273 C.ar    1  UNL1        0.0109
      7 C          -0.5883    2.2257   27.0893 C.3     1  UNL1        0.1249
      8 C          -0.9528    0.8487   27.5594 C.2     1  UNL1        0.0181
      9 C          -0.5646    0.3992   28.9368 C.2     1  UNL1        0.1532
     10 F          -0.9291   -0.9778   29.4069 F       1  UNL1       -0.2031
     11 C           0.1880    1.3267   29.8441 C.2     1  UNL1        0.1179
     12 N           0.5525    2.7037   29.3740 N.am    1  UNL1       -0.1750
     13 C           0.1643    3.1532   27.9966 C.2     1  UNL1        0.2535
     14 O           0.5288    4.5302   27.5265 O.2     1  UNL1       -0.2723
     15 C          -3.9027    4.6694   23.9202 C.3     1  UNL1        0.0218
     16 C          -4.6794    3.3864   23.8948 C.3     1  UNL1        0.0045
     17 C          -3.1261    5.9524   23.9456 C.3     1  UNL1        0.0045
     18 C          -5.1718    5.4417   23.7132 C.3     1  UNL1        0.0045
     19 C          -2.9889    3.1400   20.7135 C.3     1  UNL1        0.2525
     20 O          -2.1409    4.0236   21.5796 O.3     1  UNL1       -0.4717
     21 C           0.3973    2.4788   21.9937 C.2     1  UNL1        0.0030
     22 C           1.0930    1.1518   21.9223 C.2     1  UNL1        0.0001
     23 C           1.9740    0.8289   20.7521 C.ar    1  UNL1        0.0001
     24 C           3.3301    0.2287   20.9772 C.ar    1  UNL1        0.0013
     25 C           4.2111   -0.0943   19.8070 C.ar    1  UNL1        0.0158
     26 C           3.7359    0.1829   18.4115 C.ar    1  UNL1        0.0644
     27 C           2.3798    0.7831   18.1863 C.ar    1  UNL1        0.0158
     28 C           1.4988    1.1060   19.3566 C.ar    1  UNL1        0.0013
     29 N           4.6169   -0.1400   17.2412 N.pl3   1  UNL1       -0.2187
     30 H           4.2752   -0.7012   16.5080 H       1  UNL1        0.1734
     31 S           6.0184    0.3920   17.1880 S.O2    1  UNL1        0.0558
     32 C           7.4198    0.9241   17.1348 C.3     1  UNL1        0.1996
     33 O           5.4882    1.7940   17.2447 O.2     1  UNL1       -0.1544
     34 O           6.5485   -1.0100   17.1313 O.2     1  UNL1       -0.1544
@<TRIPOS>BOND
     1    19    20    1
     2    20     1    1
     3     1     2   ar
     4     2    21    1
     5    21    22    2
     6    22    23    1
     7    23    24   ar
     8    24    25   ar
     9    25    26   ar
    10    26    29    1
    11    29    31    1
    12    31    32    1
    13    31    33    2
    14    31    34    2
    15    26    27   ar
    16    27    28   ar
    17     2     3   ar
    18     3     4   ar
    19     4     7    1
    20     7     8    1
    21     8     9    2
    22     9    10    1
    23     9    11    1
    24    11    12    2
    25    12    13    1
    26    13    14    2
    27     4     5   ar
    28     5     6   ar
    29     6    15    1
    30    15    16    1
    31    15    17    1
    32    15    18    1
    33     6     1   ar
    34    28    23   ar
    35    13     7    1
    36    29    30    1
@<TRIPOS>MOLECULE
*****
 34 36 0 0 0
SMALL
GASTEIGER

@<TRIPOS>ATOM
      1 C          -1.2802    3.1397   24.3026 C.ar    1  UNL1        0.1346
      2 C          -0.1713    2.1472   24.4904 C.ar    1  UNL1        0.0334
      3 C           0.3791    1.8881   25.8615 C.ar    1  UNL1       -0.0005
      4 C          -0.1793    2.6216   27.0448 C.ar    1  UNL1       -0.0098
      5 C          -1.2882    3.6141   26.8569 C.ar    1  UNL1       -0.0048
      6 C          -1.8386    3.8731   25.4858 C.ar    1  UNL1        0.0109
      7 C           0.3711    2.3625   28.4159 C.3     1  UNL1        0.1249
      8 C           1.4489    3.2460   28.9706 C.2     1  UNL1        0.0181
      9 C           1.9993    2.9869   30.3417 C.2     1  UNL1        0.1532
     10 F           3.0772    3.8705   30.8964 F       1  UNL1       -0.2031
     11 C           1.4720    1.8444   31.1581 C.2     1  UNL1        0.1179
     12 N           0.3942    0.9610   30.6033 N.am    1  UNL1       -0.1750
     13 C          -0.1563    1.2200   29.2322 C.2     1  UNL1        0.2535
     14 O          -1.2341    0.3365   28.6775 O.2     1  UNL1       -0.2723
     15 C          -2.9476    4.8657   25.2981 C.3     1  UNL1        0.0218
     16 C          -3.9534    3.7552   25.3691 C.3     1  UNL1        0.0045
     17 C          -1.9417    5.9761   25.2271 C.3     1  UNL1        0.0045
     18 C          -4.0565    5.8582   25.1103 C.3     1  UNL1        0.0045
     19 C          -1.1579    4.3892   22.0280 C.3     1  UNL1        0.2525
     20 O          -1.8306    3.3987   22.9315 O.3     1  UNL1       -0.4717
     21 C           0.3872    1.4137   23.3071 C.2     1  UNL1        0.0030
     22 C           1.6310    0.5884   23.4550 C.2     1  UNL1        0.0001
     23 C           2.1895   -0.1450   22.2718 C.ar    1  UNL1        0.0001
     24 C           1.5575    0.0186   20.9212 C.ar    1  UNL1        0.0013
     25 C           2.1160   -0.7149   19.7380 C.ar    1  UNL1        0.0158
     26 C           3.3065   -1.6120   19.9053 C.ar    1  UNL1        0.0644
     27 C           3.9384   -1.7757   21.2557 C.ar    1  UNL1        0.0158
     28 C           3.3799   -1.0422   22.4390 C.ar    1  UNL1        0.0013
     29 N           3.8650   -2.3455   18.7221 N.pl3   1  UNL1       -0.2187
     30 H           3.9703   -1.8816   17.8601 H       1  UNL1        0.1734
     31 S           4.2630   -3.7859   18.8520 S.O2    1  UNL1        0.0558
     32 C           4.6610   -5.2263   18.9820 C.3     1  UNL1        0.1996
     33 O           2.8197   -4.1730   18.9820 O.2     1  UNL1       -0.1544
     34 O           5.7064   -3.3988   18.7221 O.2     1  UNL1       -0.1544
@<TRIPOS>BOND
     1    19    20    1
     2    20     1    1
     3     1     2   ar
     4     2    21    1
     5    21    22    2
     6    22    23    1
     7    23    24   ar
     8    24    25   ar
     9    25    26   ar
    10    26    29    1
    11    29    31    1
    12    31    32    1
    13    31    33    2
    14    31    34    2
    15    26    27   ar
    16    27    28   ar
    17     2     3   ar
    18     3     4   ar
    19     4     7    1
    20     7     8    1
    21     8     9    2
    22     9    10    1
    23     9    11    1
    24    11    12    2
    25    12    13    1
    26    13    14    2
    27     4     5   ar
    28     5     6   ar
    29     6    15    1
    30    15    16    1
    31    15    17    1
    32    15    18    1
    33     6     1   ar
    34    28    23   ar
    35    13     7    1
    36    29    30    1
@<TRIPOS>MOLECULE
*****
 34 36 0 0 0
SMALL
GASTEIGER

@<TRIPOS>ATOM
      1 C          -1.7968    3.5143   24.0078 C.ar    1  UNL1        0.1346
      2 C          -0.4748    2.8117   24.1007 C.ar    1  UNL1        0.0334
      3 C           0.1000    2.4695   25.4433 C.ar    1  UNL1       -0.0005
      4 C          -0.6472    2.8299   26.6930 C.ar    1  UNL1       -0.0098
      5 C          -1.9692    3.5325   26.6001 C.ar    1  UNL1       -0.0048
      6 C          -2.5440    3.8747   25.2575 C.ar    1  UNL1        0.0109
      7 C          -0.0724    2.4877   28.0356 C.3     1  UNL1        0.1249
      8 C           0.7322    3.5054   28.7884 C.2     1  UNL1        0.0181
      9 C           1.3070    3.1632   30.1310 C.2     1  UNL1        0.1532
     10 F           2.1116    4.1810   30.8839 F       1  UNL1       -0.2031
     11 C           1.0772    1.8033   30.7207 C.2     1  UNL1        0.1179
     12 N           0.2726    0.7856   29.9678 N.am    1  UNL1       -0.1750
     13 C          -0.3022    1.1278   28.6253 C.2     1  UNL1        0.2535
     14 O          -1.1068    0.1100   27.8724 O.2     1  UNL1       -0.2723
     15 C          -3.8660    4.5774   25.1647 C.3     1  UNL1        0.0218
     16 C          -3.1860    5.8902   25.4174 C.3     1  UNL1        0.0045
     17 C          -4.5461    3.2645   24.9120 C.3     1  UNL1        0.0045
     18 C          -5.1880    5.2800   25.0719 C.3     1  UNL1        0.0045
     19 C          -2.0093    5.1524   22.0025 C.3     1  UNL1        0.2525
     20 O          -2.3716    3.8565   22.6653 O.3     1  UNL1       -0.4717
     21 C           0.2724    2.4512   22.8510 C.2     1  UNL1        0.0030
     22 C           0.3973    1.0141   22.4400 C.2     1  UNL1        0.0001
     23 C           1.1445    0.6536   21.1903 C.ar    1  UNL1        0.0001
     24 C           2.3252   -0.2689   21.2621 C.ar    1  UNL1        0.0013
     25 C           3.0724   -0.6293   20.0124 C.ar    1  UNL1        0.0158
     26 C           2.6390   -0.0674   18.6909 C.ar    1  UNL1        0.0644
     27 C           1.4583    0.8550   18.6191 C.ar    1  UNL1        0.0158
     28 C           0.7110    1.2155   19.8688 C.ar    1  UNL1        0.0013
     29 N           3.3862   -0.4279   17.4413 N.pl3   1  UNL1       -0.2187
     30 H           2.8925   -0.6909   16.6311 H       1  UNL1        0.1734
     31 S           4.8856   -0.3876   17.4259 S.O2    1  UNL1        0.0558
     32 C           6.3849   -0.3472   17.4106 C.3     1  UNL1        0.1996
     33 O           4.8468    1.1056   17.5634 O.2     1  UNL1       -0.1544
     34 O           4.9244   -1.8807   17.2884 O.2     1  UNL1       -0.1544
@<TRIPOS>BOND
     1    19    20    1
     2    20     1    1
     3     1     2   ar
     4     2    21    1
     5    21    22    2
     6    22    23    1
     7    23    24   ar
     8    24    25   ar
     9    25    26   ar
    10    26    29    1
    11    29    31    1
    12    31    32    1
    13    31    33    2
    14    31    34    2
    15    26    27   ar
    16    27    28   ar
    17     2     3   ar
    18     3     4   ar
    19     4     7    1
    20     7     8    1
    21     8     9    2
    22     9    10    1
    23     9    11    1
    24    11    12    2
    25    12    13    1
    26    13    14    2
    27     4     5   ar
    28     5     6   ar
    29     6    15    1
    30    15    16    1
    31    15    17    1
    32    15    18    1
    33     6     1   ar
    34    28    23   ar
    35    13     7    1
    36    29    30    1
