@<TRIPOS>MOLECULE
*****
 27 30 0 0 0
SMALL
GASTEIGER

@<TRIPOS>ATOM
      1 C           6.0267   -2.8203   32.5261 C.ar    1  UNL1        0.1344
      2 C           4.6547   -2.7351   33.1265 C.ar    1  UNL1        0.0345
      3 C           4.3208   -1.6263   34.0800 C.ar    1  UNL1        0.0044
      4 C           5.3590   -0.6028   34.4332 C.ar    1  UNL1        0.0194
      5 C           6.7309   -0.6880   33.8328 C.ar    1  UNL1        0.1003
      6 N           7.0648   -1.7968   32.8793 N.ar    1  UNL1       -0.2290
      7 C           5.0251    0.5060   35.3867 C.ar    1  UNL1        0.0045
      8 C           5.2137    1.9349   34.9710 C.ar    1  UNL1        0.0002
      9 C           4.8798    3.0436   35.9245 C.ar    1  UNL1        0.0031
     10 C           4.3574    2.7234   37.2937 C.ar    1  UNL1        0.0369
     11 C           4.1689    1.2946   37.7093 C.ar    1  UNL1        0.1384
     12 C           4.5027    0.1858   36.7558 C.ar    1  UNL1        0.0369
     13 O           3.6465    0.9745   39.0785 O.3     1  UNL1       -0.4792
     14 C           2.1711    0.8214   39.3014 C.3     1  UNL1        0.1661
     15 C           0.7981    1.4218   39.3673 C.3     1  UNL1        0.0472
     16 C           0.9886   -0.0442   39.6217 C.3     1  UNL1        0.0472
     17 C           6.5553   -3.6318   30.1153 C.2     1  UNL1        0.2536
     18 O           6.4161   -2.2258   29.6115 O.2     1  UNL1       -0.2697
     19 N           6.3606   -3.9290   31.5726 N.am    1  UNL1       -0.2657
     20 H           6.4520   -4.8518   31.9032 H       1  UNL1        0.1566
     21 C           7.8907   -8.0668   26.3012 C.3     1  UNL1        0.0737
     22 C           7.5569   -6.9581   27.2547 C.ar    1  UNL1        0.1396
     23 N           6.7185   -5.8018   26.7965 N.ar    1  UNL1       -0.2290
     24 C           6.3846   -4.6930   27.7500 C.ar    1  UNL1        0.1063
     25 C           6.8891   -4.7406   29.1618 C.ar    1  UNL1        0.0919
     26 C           7.7275   -5.8968   29.6200 C.ar    1  UNL1        0.1063
     27 N           8.0614   -7.0056   28.6665 N.ar    1  UNL1       -0.2290
@<TRIPOS>BOND
     1    21    22    1
     2    22    23   ar
     3    23    24   ar
     4    24    25   ar
     5    25    17    1
     6    17    18    2
     7    17    19   am
     8    19     1    1
     9     1     2   ar
    10     2     3   ar
    11     3     4   ar
    12     4     7    1
    13     7     8   ar
    14     8     9   ar
    15     9    10   ar
    16    10    11   ar
    17    11    13    1
    18    13    14    1
    19    14    15    1
    20    15    16    1
    21    11    12   ar
    22     4     5   ar
    23     5     6   ar
    24    25    26   ar
    25    26    27   ar
    26    27    22   ar
    27     6     1   ar
    28    12     7   ar
    29    16    14    1
    30    19    20    1
@<TRIPOS>MOLECULE
*****
 27 30 0 0 0
SMALL
GASTEIGER

@<TRIPOS>ATOM
      1 C           6.0591   -2.8437   32.5483 C.ar    1  UNL1        0.1344
      2 C           7.0776   -1.7968   32.8899 C.ar    1  UNL1        0.0345
      3 C           6.7214   -0.6819   33.8281 C.ar    1  UNL1        0.0044
      4 C           5.3468   -0.6139   34.4246 C.ar    1  UNL1        0.0194
      5 C           4.3283   -1.6607   34.0829 C.ar    1  UNL1        0.1003
      6 N           4.6845   -2.7756   33.1447 N.ar    1  UNL1       -0.2290
      7 C           4.9906    0.5010   35.3627 C.ar    1  UNL1        0.0045
      8 C           5.1367    1.9275   34.9222 C.ar    1  UNL1        0.0002
      9 C           4.7806    3.0424   35.8604 C.ar    1  UNL1        0.0031
     10 C           4.2783    2.7309   37.2391 C.ar    1  UNL1        0.0369
     11 C           4.1322    1.3045   37.6795 C.ar    1  UNL1        0.1384
     12 C           4.4884    0.1896   36.7414 C.ar    1  UNL1        0.0369
     13 O           3.6299    0.9930   39.0582 O.3     1  UNL1       -0.4792
     14 C           2.1606    0.8090   39.2973 C.3     1  UNL1        0.1661
     15 C           0.7849    1.3896   39.4394 C.3     1  UNL1        0.0472
     16 C           0.9914   -0.0904   39.5694 C.3     1  UNL1        0.0472
     17 C           6.5166   -3.6956   30.1369 C.2     1  UNL1        0.2536
     18 O           6.2618   -2.3176   29.6018 O.2     1  UNL1       -0.2697
     19 N           6.4152   -3.9586   31.6101 N.am    1  UNL1       -0.2657
     20 H           6.5824   -4.8630   31.9613 H       1  UNL1        0.1566
     21 C           7.9412   -8.1552   26.3842 C.3     1  UNL1        0.0737
     22 C           7.5850   -7.0403   27.3224 C.ar    1  UNL1        0.1396
     23 N           6.6614   -5.9475   26.8723 N.ar    1  UNL1       -0.2290
     24 C           6.3052   -4.8326   27.8104 C.ar    1  UNL1        0.1063
     25 C           6.8727   -4.8105   29.1987 C.ar    1  UNL1        0.0919
     26 C           7.7964   -5.9032   29.6488 C.ar    1  UNL1        0.1063
     27 N           8.1526   -7.0181   28.7107 N.ar    1  UNL1       -0.2290
@<TRIPOS>BOND
     1    21    22    1
     2    22    23   ar
     3    23    24   ar
     4    24    25   ar
     5    25    17    1
     6    17    18    2
     7    17    19   am
     8    19     1    1
     9     1     2   ar
    10     2     3   ar
    11     3     4   ar
    12     4     7    1
    13     7     8   ar
    14     8     9   ar
    15     9    10   ar
    16    10    11   ar
    17    11    13    1
    18    13    14    1
    19    14    15    1
    20    15    16    1
    21    11    12   ar
    22     4     5   ar
    23     5     6   ar
    24    25    26   ar
    25    26    27   ar
    26    27    22   ar
    27     6     1   ar
    28    12     7   ar
    29    16    14    1
    30    19    20    1
@<TRIPOS>MOLECULE
*****
 27 30 0 0 0
SMALL
GASTEIGER

@<TRIPOS>ATOM
      1 C          -0.7187    2.2832   20.2073 C.ar    1  UNL1        0.1344
      2 C           0.0831    3.2251   19.3587 C.ar    1  UNL1        0.0345
      3 C           1.4047    2.7896   18.7984 C.ar    1  UNL1        0.0044
      4 C           1.9244    1.4123   19.0867 C.ar    1  UNL1        0.0194
      5 C           1.1226    0.4706   19.9353 C.ar    1  UNL1        0.1003
      6 N          -0.1990    0.9060   20.4956 N.ar    1  UNL1       -0.2290
      7 C           3.2459    0.9769   18.5264 C.ar    1  UNL1        0.0045
      8 C           4.2857    1.9998   18.1760 C.ar    1  UNL1        0.0002
      9 C           5.6072    1.5644   17.6157 C.ar    1  UNL1        0.0031
     10 C           5.8890    0.1060   17.4059 C.ar    1  UNL1        0.0369
     11 C           4.8493   -0.9167   17.7564 C.ar    1  UNL1        0.1384
     12 C           3.5278   -0.4813   18.3166 C.ar    1  UNL1        0.0369
     13 O           5.1312   -2.3750   17.5466 O.3     1  UNL1       -0.4792
     14 C           4.6733   -3.3809   18.5607 C.3     1  UNL1        0.1661
     15 C           3.5943   -4.2548   19.1280 C.3     1  UNL1        0.0472
     16 C           4.9593   -4.2492   19.7499 C.3     1  UNL1        0.0472
     17 C          -2.0990    3.4189   22.0927 C.2     1  UNL1        0.2536
     18 O          -0.8361    3.6838   22.8576 O.2     1  UNL1       -0.2697
     19 N          -2.0402    2.7186   20.7676 N.am    1  UNL1       -0.2657
     20 H          -2.8691    2.5448   20.2655 H       1  UNL1        0.1566
     21 C          -7.3852    5.1607   24.3339 C.3     1  UNL1        0.0737
     22 C          -6.0636    4.7252   23.7736 C.ar    1  UNL1        0.1396
     23 N          -4.7945    5.3474   24.2757 N.ar    1  UNL1       -0.2290
     24 C          -3.4729    4.9120   23.7154 C.ar    1  UNL1        0.1063
     25 C          -3.4205    3.8544   22.6530 C.ar    1  UNL1        0.0919
     26 C          -4.6897    3.2322   22.1509 C.ar    1  UNL1        0.1063
     27 N          -6.0112    3.6676   22.7112 N.ar    1  UNL1       -0.2290
@<TRIPOS>BOND
     1    21    22    1
     2    22    23   ar
     3    23    24   ar
     4    24    25   ar
     5    25    17    1
     6    17    18    2
     7    17    19   am
     8    19     1    1
     9     1     2   ar
    10     2     3   ar
    11     3     4   ar
    12     4     7    1
    13     7     8   ar
    14     8     9   ar
    15     9    10   ar
    16    10    11   ar
    17    11    13    1
    18    13    14    1
    19    14    15    1
    20    15    16    1
    21    11    12   ar
    22     4     5   ar
    23     5     6   ar
    24    25    26   ar
    25    26    27   ar
    26    27    22   ar
    27     6     1   ar
    28    12     7   ar
    29    16    14    1
    30    19    20    1
@<TRIPOS>MOLECULE
*****
 27 30 0 0 0
SMALL
GASTEIGER

@<TRIPOS>ATOM
      1 C           4.1165   -0.2843   26.4654 C.ar    1  UNL1        0.1344
      2 C           4.4519   -1.4314   25.5589 C.ar    1  UNL1        0.0345
      3 C           3.9463   -1.4441   24.1468 C.ar    1  UNL1        0.0044
      4 C           3.1052   -0.3096   23.6411 C.ar    1  UNL1        0.0194
      5 C           2.7698    0.8374   24.5476 C.ar    1  UNL1        0.1003
      6 N           3.2755    0.8501   25.9597 N.ar    1  UNL1       -0.2290
      7 C           2.5995   -0.3223   22.2290 C.ar    1  UNL1        0.0045
      8 C           1.3886    0.4820   21.8587 C.ar    1  UNL1        0.0002
      9 C           0.8830    0.4693   20.4465 C.ar    1  UNL1        0.0031
     10 C           1.5882   -0.3476   19.4047 C.ar    1  UNL1        0.0369
     11 C           2.7990   -1.1517   19.7750 C.ar    1  UNL1        0.1384
     12 C           3.3047   -1.1391   21.1871 C.ar    1  UNL1        0.0369
     13 O           3.5042   -1.9685   18.7331 O.3     1  UNL1       -0.4792
     14 C           3.8043   -3.4154   18.9908 C.3     1  UNL1        0.1661
     15 C           3.3328   -4.8026   19.3124 C.3     1  UNL1        0.0472
     16 C           4.7954   -4.5344   19.1154 C.3     1  UNL1        0.0472
     17 C           3.7014   -0.6270   29.0071 C.2     1  UNL1        0.2536
     18 O           2.2750   -0.9950   28.7245 O.2     1  UNL1       -0.2697
     19 N           4.6222   -0.2716   27.8775 N.am    1  UNL1       -0.2657
     20 H           5.5584   -0.0301   28.0630 H       1  UNL1        0.1566
     21 C           5.7240   -0.5764   34.6557 C.3     1  UNL1        0.0737
     22 C           5.2184   -0.5890   33.2435 C.ar    1  UNL1        0.1396
     23 N           6.1605   -0.3228   32.1071 N.ar    1  UNL1       -0.2290
     24 C           5.6549   -0.3354   30.6950 C.ar    1  UNL1        0.1063
     25 C           4.2071   -0.6143   30.4192 C.ar    1  UNL1        0.0919
     26 C           3.2649   -0.8805   31.5556 C.ar    1  UNL1        0.1063
     27 N           3.7706   -0.8679   32.9678 N.ar    1  UNL1       -0.2290
@<TRIPOS>BOND
     1    21    22    1
     2    22    23   ar
     3    23    24   ar
     4    24    25   ar
     5    25    17    1
     6    17    18    2
     7    17    19   am
     8    19     1    1
     9     1     2   ar
    10     2     3   ar
    11     3     4   ar
    12     4     7    1
    13     7     8   ar
    14     8     9   ar
    15     9    10   ar
    16    10    11   ar
    17    11    13    1
    18    13    14    1
    19    14    15    1
    20    15    16    1
    21    11    12   ar
    22     4     5   ar
    23     5     6   ar
    24    25    26   ar
    25    26    27   ar
    26    27    22   ar
    27     6     1   ar
    28    12     7   ar
    29    16    14    1
    30    19    20    1
@<TRIPOS>MOLECULE
*****
 27 30 0 0 0
SMALL
GASTEIGER

@<TRIPOS>ATOM
      1 C           6.0482   -2.9940   32.4517 C.ar    1  UNL1        0.1344
      2 C           7.0385   -1.9335   32.8325 C.ar    1  UNL1        0.0345
      3 C           6.6385   -0.8379   33.7758 C.ar    1  UNL1        0.0044
      4 C           5.2484   -0.8028   34.3383 C.ar    1  UNL1        0.0194
      5 C           4.2582   -1.8633   33.9575 C.ar    1  UNL1        0.1003
      6 N           4.6582   -2.9588   33.0142 N.ar    1  UNL1       -0.2290
      7 C           4.8484    0.2927   35.2816 C.ar    1  UNL1        0.0045
      8 C           5.0065    0.1034   36.7612 C.ar    1  UNL1        0.0002
      9 C           4.6066    1.1989   37.7045 C.ar    1  UNL1        0.0031
     10 C           4.0485    2.4839   37.1682 C.ar    1  UNL1        0.0369
     11 C           3.8905    2.6732   35.6886 C.ar    1  UNL1        0.1384
     12 C           4.2904    1.5776   34.7453 C.ar    1  UNL1        0.0369
     13 O           3.3324    3.9581   35.1524 O.3     1  UNL1       -0.4792
     14 C           2.2073    4.6441   35.8690 C.3     1  UNL1        0.1661
     15 C           1.2108    4.6795   36.9895 C.3     1  UNL1        0.0472
     16 C           1.2552    5.7968   35.9896 C.3     1  UNL1        0.0472
     17 C           6.5392   -3.8158   30.0365 C.2     1  UNL1        0.2536
     18 O           6.2302   -2.4465   29.5078 O.2     1  UNL1       -0.2697
     19 N           6.4482   -4.0895   31.5084 N.am    1  UNL1       -0.2657
     20 H           6.6509   -4.9882   31.8554 H       1  UNL1        0.1566
     21 C           8.1389   -8.1980   26.2633 C.3     1  UNL1        0.0737
     22 C           7.7390   -7.1025   27.2066 C.ar    1  UNL1        0.1396
     23 N           8.2549   -7.1000   28.6150 N.ar    1  UNL1       -0.2290
     24 C           7.8549   -6.0044   29.5583 C.ar    1  UNL1        0.1063
     25 C           6.9391   -4.9113   29.0932 C.ar    1  UNL1        0.0919
     26 C           6.4232   -4.9138   27.6847 C.ar    1  UNL1        0.1063
     27 N           6.8232   -6.0094   26.7414 N.ar    1  UNL1       -0.2290
@<TRIPOS>BOND
     1    21    22    1
     2    22    23   ar
     3    23    24   ar
     4    24    25   ar
     5    25    17    1
     6    17    18    2
     7    17    19   am
     8    19     1    1
     9     1     2   ar
    10     2     3   ar
    11     3     4   ar
    12     4     7    1
    13     7     8   ar
    14     8     9   ar
    15     9    10   ar
    16    10    11   ar
    17    11    13    1
    18    13    14    1
    19    14    15    1
    20    15    16    1
    21    11    12   ar
    22     4     5   ar
    23     5     6   ar
    24    25    26   ar
    25    26    27   ar
    26    27    22   ar
    27     6     1   ar
    28    12     7   ar
    29    16    14    1
    30    19    20    1
@<TRIPOS>MOLECULE
*****
 27 30 0 0 0
SMALL
GASTEIGER

@<TRIPOS>ATOM
      1 C           2.6819    1.0758   26.9604 C.ar    1  UNL1        0.1344
      2 C           3.7178    0.1881   26.3366 C.ar    1  UNL1        0.0345
      3 C           3.5940   -0.2114   24.8961 C.ar    1  UNL1        0.0044
      4 C           2.4343    0.2768   24.0794 C.ar    1  UNL1        0.0194
      5 C           1.3985    1.1644   24.7032 C.ar    1  UNL1        0.1003
      6 N           1.5223    1.5639   26.1437 N.ar    1  UNL1       -0.2290
      7 C           2.3105   -0.1227   22.6389 C.ar    1  UNL1        0.0045
      8 C           1.1010    0.2825   21.8495 C.ar    1  UNL1        0.0002
      9 C           0.9772   -0.1170   20.4090 C.ar    1  UNL1        0.0031
     10 C           2.0629   -0.9217   19.7579 C.ar    1  UNL1        0.0369
     11 C           3.2722   -1.3269   20.5473 C.ar    1  UNL1        0.1384
     12 C           3.3960   -0.9274   21.9878 C.ar    1  UNL1        0.0369
     13 O           4.3578   -2.1316   19.8962 O.3     1  UNL1       -0.4792
     14 C           4.0806   -3.5327   19.4378 C.3     1  UNL1        0.1661
     15 C           3.1040   -4.6229   19.1099 C.3     1  UNL1        0.0472
     16 C           4.5772   -4.8692   18.9718 C.3     1  UNL1        0.0472
     17 C           2.0216    0.7464   29.4514 C.2     1  UNL1        0.2536
     18 O           1.1135   -0.3820   29.0615 O.2     1  UNL1       -0.2697
     19 N           2.8057    1.4753   28.4009 N.am    1  UNL1       -0.2657
     20 H           3.4017    2.2160   28.6568 H       1  UNL1        0.1566
     21 C           2.5168    2.3445   35.2135 C.3     1  UNL1        0.0737
     22 C           2.3930    1.9449   33.7730 C.ar    1  UNL1        0.1396
     23 N           3.2459    0.8392   33.2253 N.ar    1  UNL1       -0.2290
     24 C           3.1220    0.4397   31.7848 C.ar    1  UNL1        0.1063
     25 C           2.1454    1.1459   30.8919 C.ar    1  UNL1        0.0919
     26 C           1.2925    2.2517   31.4396 C.ar    1  UNL1        0.1063
     27 N           1.4163    2.6512   32.8801 N.ar    1  UNL1       -0.2290
@<TRIPOS>BOND
     1    21    22    1
     2    22    23   ar
     3    23    24   ar
     4    24    25   ar
     5    25    17    1
     6    17    18    2
     7    17    19   am
     8    19     1    1
     9     1     2   ar
    10     2     3   ar
    11     3     4   ar
    12     4     7    1
    13     7     8   ar
    14     8     9   ar
    15     9    10   ar
    16    10    11   ar
    17    11    13    1
    18    13    14    1
    19    14    15    1
    20    15    16    1
    21    11    12   ar
    22     4     5   ar
    23     5     6   ar
    24    25    26   ar
    25    26    27   ar
    26    27    22   ar
    27     6     1   ar
    28    12     7   ar
    29    16    14    1
    30    19    20    1
@<TRIPOS>MOLECULE
*****
 27 30 0 0 0
SMALL
GASTEIGER

@<TRIPOS>ATOM
      1 C           3.4638    0.1442   26.8588 C.ar    1  UNL1        0.1344
      2 C           4.2369   -1.0936   26.5119 C.ar    1  UNL1        0.0345
      3 C           4.2306   -1.6119   25.1043 C.ar    1  UNL1        0.0044
      4 C           3.4512   -0.8925   24.0436 C.ar    1  UNL1        0.0194
      5 C           2.6782    0.3452   24.3905 C.ar    1  UNL1        0.1003
      6 N           2.6845    0.8636   25.7981 N.ar    1  UNL1       -0.2290
      7 C           3.4449   -1.4109   22.6361 C.ar    1  UNL1        0.0045
      8 C           2.5120   -0.8173   21.6224 C.ar    1  UNL1        0.0002
      9 C           2.5057   -1.3356   20.2148 C.ar    1  UNL1        0.0031
     10 C           3.4323   -2.4476   19.8209 C.ar    1  UNL1        0.0369
     11 C           4.3651   -3.0411   20.8346 C.ar    1  UNL1        0.1384
     12 C           4.3714   -2.5228   22.2421 C.ar    1  UNL1        0.0369
     13 O           5.2916   -4.1530   20.4406 O.3     1  UNL1       -0.4792
     14 C           6.7693   -4.0092   20.6543 C.3     1  UNL1        0.1661
     15 C           8.0683   -3.3315   20.3331 C.3     1  UNL1        0.0472
     16 C           8.0297   -4.4377   21.3454 C.3     1  UNL1        0.0472
     17 C           2.3323    0.3408   29.1892 C.2     1  UNL1        0.2536
     18 O           1.1882   -0.4995   28.7045 O.2     1  UNL1       -0.2697
     19 N           3.4701    0.6626   28.2663 N.am    1  UNL1       -0.2657
     20 H           4.2211    1.2141   28.5845 H       1  UNL1        0.1566
     21 C           2.3576    2.4142   34.8195 C.3     1  UNL1        0.0737
     22 C           2.3513    1.8959   33.4119 C.ar    1  UNL1        0.1396
     23 N           1.5195    2.5766   32.3657 N.ar    1  UNL1       -0.2290
     24 C           1.5132    2.0583   30.9581 C.ar    1  UNL1        0.1063
     25 C           2.3386    0.8591   30.5968 C.ar    1  UNL1        0.0919
     26 C           3.1704    0.1784   31.6430 C.ar    1  UNL1        0.1063
     27 N           3.1768    0.6967   33.0506 N.ar    1  UNL1       -0.2290
@<TRIPOS>BOND
     1    21    22    1
     2    22    23   ar
     3    23    24   ar
     4    24    25   ar
     5    25    17    1
     6    17    18    2
     7    17    19   am
     8    19     1    1
     9     1     2   ar
    10     2     3   ar
    11     3     4   ar
    12     4     7    1
    13     7     8   ar
    14     8     9   ar
    15     9    10   ar
    16    10    11   ar
    17    11    13    1
    18    13    14    1
    19    14    15    1
    20    15    16    1
    21    11    12   ar
    22     4     5   ar
    23     5     6   ar
    24    25    26   ar
    25    26    27   ar
    26    27    22   ar
    27     6     1   ar
    28    12     7   ar
    29    16    14    1
    30    19    20    1
@<TRIPOS>MOLECULE
*****
 27 30 0 0 0
SMALL
GASTEIGER

@<TRIPOS>ATOM
      1 C           2.8334    0.8542   26.2920 C.ar    1  UNL1        0.1344
      2 C           3.6210   -0.4173   26.4068 C.ar    1  UNL1        0.0345
      3 C           3.9058   -1.2362   25.1828 C.ar    1  UNL1        0.0044
      4 C           3.4031   -0.7836   23.8439 C.ar    1  UNL1        0.0194
      5 C           2.6156    0.4879   23.7292 C.ar    1  UNL1        0.1003
      6 N           2.3307    1.3068   24.9532 N.ar    1  UNL1       -0.2290
      7 C           3.6879   -1.6025   22.6199 C.ar    1  UNL1        0.0045
      8 C           4.3581   -2.9381   22.7503 C.ar    1  UNL1        0.0002
      9 C           4.6429   -3.7570   21.5262 C.ar    1  UNL1        0.0031
     10 C           4.2576   -3.2402   20.1718 C.ar    1  UNL1        0.0369
     11 C           3.5874   -1.9047   20.0414 C.ar    1  UNL1        0.1384
     12 C           3.3026   -1.0858   21.2655 C.ar    1  UNL1        0.0369
     13 O           3.2020   -1.3880   18.6870 O.3     1  UNL1       -0.4792
     14 C           2.5347   -0.0509   18.5563 C.3     1  UNL1        0.1661
     15 C           2.6279    1.4420   18.4450 C.3     1  UNL1        0.0472
     16 C           1.2859    0.7719   18.4412 C.3     1  UNL1        0.0472
     17 C           1.1947    1.6149   28.1590 C.2     1  UNL1        0.2536
     18 O           0.1255    0.7379   27.5779 O.2     1  UNL1       -0.2697
     19 N           2.5486    1.6731   27.5161 N.am    1  UNL1       -0.2657
     20 H           3.2503    2.2487   27.8975 H       1  UNL1        0.1566
     21 C           0.0553    4.8905   33.0552 C.3     1  UNL1        0.0737
     22 C           0.3402    4.0716   31.8312 C.ar    1  UNL1        0.1396
     23 N           0.4864    2.5829   31.9420 N.ar    1  UNL1       -0.2290
     24 C           0.7712    1.7640   30.7180 C.ar    1  UNL1        0.1063
     25 C           0.9098    2.4338   29.3831 C.ar    1  UNL1        0.0919
     26 C           0.7636    3.9225   29.2722 C.ar    1  UNL1        0.1063
     27 N           0.4788    4.7414   30.4962 N.ar    1  UNL1       -0.2290
@<TRIPOS>BOND
     1    21    22    1
     2    22    23   ar
     3    23    24   ar
     4    24    25   ar
     5    25    17    1
     6    17    18    2
     7    17    19   am
     8    19     1    1
     9     1     2   ar
    10     2     3   ar
    11     3     4   ar
    12     4     7    1
    13     7     8   ar
    14     8     9   ar
    15     9    10   ar
    16    10    11   ar
    17    11    13    1
    18    13    14    1
    19    14    15    1
    20    15    16    1
    21    11    12   ar
    22     4     5   ar
    23     5     6   ar
    24    25    26   ar
    25    26    27   ar
    26    27    22   ar
    27     6     1   ar
    28    12     7   ar
    29    16    14    1
    30    19    20    1
@<TRIPOS>MOLECULE
*****
 27 30 0 0 0
SMALL
GASTEIGER

@<TRIPOS>ATOM
      1 C           4.0920   -1.6394   24.9436 C.ar    1  UNL1        0.1344
      2 C           4.4919   -2.3755   23.6993 C.ar    1  UNL1        0.0345
      3 C           3.9581   -1.9409   22.3666 C.ar    1  UNL1        0.0044
      4 C           3.0244   -0.7702   22.2782 C.ar    1  UNL1        0.0194
      5 C           2.6246   -0.0342   23.5225 C.ar    1  UNL1        0.1003
      6 N           3.1584   -0.4688   24.8552 N.ar    1  UNL1       -0.2290
      7 C           2.4905   -0.3356   20.9454 C.ar    1  UNL1        0.0045
      8 C           1.1490    0.3293   20.8555 C.ar    1  UNL1        0.0002
      9 C           0.6151    0.7639   19.5228 C.ar    1  UNL1        0.0031
     10 C           1.4229    0.5335   18.2800 C.ar    1  UNL1        0.0369
     11 C           2.7644   -0.1314   18.3699 C.ar    1  UNL1        0.1384
     12 C           3.2982   -0.5660   19.7027 C.ar    1  UNL1        0.0369
     13 O           3.5721   -0.3618   17.1272 O.3     1  UNL1       -0.4792
     14 C           5.0561   -0.1440   17.1460 C.3     1  UNL1        0.1661
     15 C           6.2554    0.6652   16.7502 C.3     1  UNL1        0.0472
     16 C           6.4271   -0.5761   17.5746 C.3     1  UNL1        0.0472
     17 C           5.8807   -1.4569   26.8191 C.2     1  UNL1        0.2536
     18 O           6.6017   -0.4053   26.0291 O.2     1  UNL1       -0.2697
     19 N           4.6258   -2.0740   26.2764 N.am    1  UNL1       -0.2657
     20 H           4.1526   -2.7642   26.7949 H       1  UNL1        0.1566
     21 C           8.0160   -3.1953   32.1500 C.3     1  UNL1        0.0737
     22 C           7.4821   -2.7607   30.8173 C.ar    1  UNL1        0.1396
     23 N           6.9977   -3.7841   29.8335 N.ar    1  UNL1       -0.2290
     24 C           6.4639   -3.3495   28.5007 C.ar    1  UNL1        0.1063
     25 C           6.4145   -1.8915   28.1518 C.ar    1  UNL1        0.0919
     26 C           6.8989   -0.8681   29.1356 C.ar    1  UNL1        0.1063
     27 N           7.4328   -1.3027   30.4683 N.ar    1  UNL1       -0.2290
@<TRIPOS>BOND
     1    21    22    1
     2    22    23   ar
     3    23    24   ar
     4    24    25   ar
     5    25    17    1
     6    17    18    2
     7    17    19   am
     8    19     1    1
     9     1     2   ar
    10     2     3   ar
    11     3     4   ar
    12     4     7    1
    13     7     8   ar
    14     8     9   ar
    15     9    10   ar
    16    10    11   ar
    17    11    13    1
    18    13    14    1
    19    14    15    1
    20    15    16    1
    21    11    12   ar
    22     4     5   ar
    23     5     6   ar
    24    25    26   ar
    25    26    27   ar
    26    27    22   ar
    27     6     1   ar
    28    12     7   ar
    29    16    14    1
    30    19    20    1
