@<TRIPOS>MOLECULE
*****
 29 30 0 0 0
SMALL
GASTEIGER

@<TRIPOS>ATOM
      1 C          -7.4635  -18.7562   21.9247 C.3     1  UNL1        0.1759
      2 N          -7.6082  -17.8842   23.1365 N.am    1  UNL1       -0.2954
      3 C          -7.7888  -16.4036   22.9780 C.2     1  UNL1        0.2368
      4 O          -7.8247  -15.7950   21.6075 O.2     1  UNL1       -0.2737
      5 H          -7.5846  -18.2837   24.0360 H       1  UNL1        0.1499
      6 C          -7.9334  -15.5316   24.1899 C.3     1  UNL1        0.1283
      7 N          -7.6100  -14.0693   24.1047 N.3     1  UNL1       -0.3150
      8 H          -7.7635  -13.6336   25.0141 H       1  UNL1        0.1192
      9 H          -8.2125  -13.6278   23.4101 H       1  UNL1        0.1192
     10 C          -8.4015  -16.1219   25.4870 C.3     1  UNL1        0.0248
     11 C          -7.8082  -15.6521   26.7821 C.3     1  UNL1        0.0018
     12 C          -8.6673  -14.9447   27.7878 C.3     1  UNL1        0.0001
     13 C          -6.3557  -15.8898   27.0717 C.3     1  UNL1        0.0001
     14 C          -6.0996  -19.0704   21.3852 C.2     1  UNL1        0.3353
     15 O          -5.7640  -18.7465   19.9596 O.2     1  UNL1       -0.2483
     16 O          -5.0714  -19.7084   22.2715 O.3     1  UNL1       -0.4474
     17 C          -2.5740  -19.6494   21.5571 C.3     1  UNL1        0.0513
     18 C          -3.7018  -19.1072   22.3845 C.3     1  UNL1        0.2086
     19 C          -8.6829  -19.3140   21.2521 C.3     1  UNL1        0.0590
     20 C          -9.9584  -18.5248   21.2374 C.ar    1  UNL1       -0.0014
     21 C         -10.4366  -17.6427   20.1224 C.ar    1  UNL1        0.0717
     22 N         -11.7534  -17.0520   20.5310 N.ar    1  UNL1       -0.3243
     23 C         -12.5881  -16.1096   19.7154 C.3     1  UNL1        0.1305
     24 C         -12.0891  -17.5690   21.8985 C.ar    1  UNL1        0.0597
     25 C         -13.2616  -17.3285   22.8026 C.ar    1  UNL1        0.0172
     26 C         -13.3247  -17.9983   24.1432 C.ar    1  UNL1        0.0015
     27 C         -12.2153  -18.9086   24.5798 C.ar    1  UNL1        0.0001
     28 C         -11.0428  -19.1491   23.6757 C.ar    1  UNL1        0.0012
     29 C         -10.9797  -18.4793   22.3351 C.ar    1  UNL1        0.0133
@<TRIPOS>BOND
     1    17    18    1
     2    18    16    1
     3    16    14    1
     4    14    15    2
     5    14     1    1
     6     1    19    1
     7    19    20    1
     8    20    21   ar
     9    21    22   ar
    10    22    23    1
    11    22    24   ar
    12    24    25   ar
    13    25    26   ar
    14    26    27   ar
    15    27    28   ar
    16    28    29   ar
    17     1     2    1
    18     2     3   am
    19     3     4    2
    20     3     6    1
    21     6     7    1
    22     6    10    1
    23    10    11    1
    24    11    12    1
    25    11    13    1
    26    29    20   ar
    27    29    24   ar
    28     2     5    1
    29     7     8    1
    30     7     9    1
@<TRIPOS>MOLECULE
*****
 29 30 0 0 0
SMALL
GASTEIGER

@<TRIPOS>ATOM
      1 C          -5.2977  -16.2925   24.2951 C.3     1  UNL1        0.1759
      2 N          -6.2126  -15.9034   23.1720 N.am    1  UNL1       -0.2954
      3 C          -7.6240  -16.4106   23.1442 C.2     1  UNL1        0.2368
      4 O          -8.1203  -17.3071   24.2397 O.2     1  UNL1       -0.2737
      5 H          -5.8868  -15.3150   22.4530 H       1  UNL1        0.1499
      6 C          -8.5389  -16.0215   22.0211 C.3     1  UNL1        0.1283
      7 N          -8.2999  -14.7475   21.2661 N.3     1  UNL1       -0.3150
      8 H          -9.0115  -14.6422   20.5430 H       1  UNL1        0.1192
      9 H          -7.3768  -14.7770   20.8330 H       1  UNL1        0.1192
     10 C          -9.6928  -16.9062   21.6529 C.3     1  UNL1        0.0248
     11 C         -11.0302  -16.3033   21.3399 C.3     1  UNL1        0.0018
     12 C         -11.4138  -16.0273   19.9163 C.3     1  UNL1        0.0001
     13 C         -11.9839  -15.9763   22.4505 C.3     1  UNL1        0.0001
     14 C          -5.4487  -15.6504   25.6423 C.2     1  UNL1        0.3353
     15 O          -5.0191  -14.2280   25.8476 O.2     1  UNL1       -0.2483
     16 O          -6.0294  -16.4308   26.7841 O.3     1  UNL1       -0.4474
     17 C          -8.3589  -15.3068   27.0295 C.3     1  UNL1        0.0513
     18 C          -7.0915  -15.8179   27.6480 C.3     1  UNL1        0.2086
     19 C          -4.2316  -17.3238   24.0711 C.3     1  UNL1        0.0590
     20 C          -4.1808  -18.0811   22.7772 C.ar    1  UNL1       -0.0014
     21 C          -5.1165  -19.1765   22.3594 C.ar    1  UNL1        0.0717
     22 N          -4.6992  -19.6482   20.9980 N.ar    1  UNL1       -0.3243
     23 C          -5.3596  -20.7333   20.2001 C.3     1  UNL1        0.1305
     24 C          -3.5057  -18.8444   20.5744 C.ar    1  UNL1        0.0597
     25 C          -2.6693  -18.8692   19.3296 C.ar    1  UNL1        0.0172
     26 C          -1.5125  -17.9255   19.1843 C.ar    1  UNL1        0.0015
     27 C          -1.1921  -16.9570   20.2840 C.ar    1  UNL1        0.0001
     28 C          -2.0285  -16.9321   21.5289 C.ar    1  UNL1        0.0012
     29 C          -3.1853  -17.8758   21.6741 C.ar    1  UNL1        0.0133
@<TRIPOS>BOND
     1    17    18    1
     2    18    16    1
     3    16    14    1
     4    14    15    2
     5    14     1    1
     6     1    19    1
     7    19    20    1
     8    20    21   ar
     9    21    22   ar
    10    22    23    1
    11    22    24   ar
    12    24    25   ar
    13    25    26   ar
    14    26    27   ar
    15    27    28   ar
    16    28    29   ar
    17     1     2    1
    18     2     3   am
    19     3     4    2
    20     3     6    1
    21     6     7    1
    22     6    10    1
    23    10    11    1
    24    11    12    1
    25    11    13    1
    26    29    20   ar
    27    29    24   ar
    28     2     5    1
    29     7     8    1
    30     7     9    1
@<TRIPOS>MOLECULE
*****
 29 30 0 0 0
SMALL
GASTEIGER

@<TRIPOS>ATOM
      1 C          -5.9600  -16.1706   24.1128 C.3     1  UNL1        0.1759
      2 N          -6.8467  -16.1858   22.9031 N.am    1  UNL1       -0.2954
      3 C          -8.1854  -16.8598   22.9627 C.2     1  UNL1        0.2368
      4 O          -8.6374  -17.5186   24.2322 O.2     1  UNL1       -0.2737
      5 H          -6.5500  -15.7533   22.0699 H       1  UNL1        0.1499
      6 C          -9.0721  -16.8749   21.7530 C.3     1  UNL1        0.1283
      7 N          -9.5123  -15.5836   21.1295 N.3     1  UNL1       -0.3150
      8 H         -10.1056  -15.7802   20.3234 H       1  UNL1        0.1192
      9 H          -8.6936  -15.0550   20.8283 H       1  UNL1        0.1192
     10 C          -9.5186  -18.1814   21.1667 C.3     1  UNL1        0.0248
     11 C         -10.8159  -18.7950   21.6031 C.3     1  UNL1        0.0018
     12 C         -12.1113  -18.0976   21.3108 C.3     1  UNL1        0.0001
     13 C         -10.8179  -20.1061   22.3319 C.3     1  UNL1        0.0001
     14 C          -6.2102  -15.1830   25.2138 C.2     1  UNL1        0.3353
     15 O          -5.0725  -14.3849   25.7782 O.2     1  UNL1       -0.2483
     16 O          -7.5981  -14.9936   25.7502 O.3     1  UNL1       -0.4474
     17 C          -8.4355  -16.6170   27.5978 C.3     1  UNL1        0.0513
     18 C          -7.8897  -15.2794   27.1935 C.3     1  UNL1        0.2086
     19 C          -4.8231  -17.1431   24.2217 C.3     1  UNL1        0.0590
     20 C          -4.1455  -17.6466   22.9818 C.ar    1  UNL1       -0.0014
     21 C          -2.8486  -17.1442   22.4199 C.ar    1  UNL1        0.0717
     22 N          -2.5474  -17.9279   21.1770 N.ar    1  UNL1       -0.3243
     23 C          -1.3463  -17.7553   20.2951 C.3     1  UNL1        0.1305
     24 C          -3.6581  -18.9147   20.9706 C.ar    1  UNL1        0.0597
     25 C          -3.8978  -19.9491   19.9111 C.ar    1  UNL1        0.0172
     26 C          -5.1251  -20.8095   19.9671 C.ar    1  UNL1        0.0015
     27 C          -6.1128  -20.6356   21.0825 C.ar    1  UNL1        0.0001
     28 C          -5.8732  -19.6013   22.1420 C.ar    1  UNL1        0.0012
     29 C          -4.6458  -18.7408   22.0861 C.ar    1  UNL1        0.0133
@<TRIPOS>BOND
     1    17    18    1
     2    18    16    1
     3    16    14    1
     4    14    15    2
     5    14     1    1
     6     1    19    1
     7    19    20    1
     8    20    21   ar
     9    21    22   ar
    10    22    23    1
    11    22    24   ar
    12    24    25   ar
    13    25    26   ar
    14    26    27   ar
    15    27    28   ar
    16    28    29   ar
    17     1     2    1
    18     2     3   am
    19     3     4    2
    20     3     6    1
    21     6     7    1
    22     6    10    1
    23    10    11    1
    24    11    12    1
    25    11    13    1
    26    29    20   ar
    27    29    24   ar
    28     2     5    1
    29     7     8    1
    30     7     9    1
@<TRIPOS>MOLECULE
*****
 29 30 0 0 0
SMALL
GASTEIGER

@<TRIPOS>ATOM
      1 C          -6.5615  -16.8206   23.2876 C.3     1  UNL1        0.1759
      2 N          -6.0017  -17.7572   22.2584 N.am    1  UNL1       -0.2954
      3 C          -4.7354  -18.5104   22.5395 C.2     1  UNL1        0.2368
      4 O          -4.0290  -18.3270   23.8500 O.2     1  UNL1       -0.2737
      5 H          -6.4654  -17.8775   21.3983 H       1  UNL1        0.1499
      6 C          -4.1756  -19.4470   21.5103 C.3     1  UNL1        0.1283
      7 N          -5.0851  -20.3919   20.7822 N.3     1  UNL1       -0.3150
      8 H          -4.5402  -20.9496   20.1248 H       1  UNL1        0.1192
      9 H          -5.7911  -19.8599   20.2733 H       1  UNL1        0.1192
     10 C          -2.7062  -19.4388   21.2091 C.3     1  UNL1        0.0248
     11 C          -2.1509  -18.4681   20.2093 C.3     1  UNL1        0.0018
     12 C          -3.0327  -17.9194   19.1270 C.3     1  UNL1        0.0001
     13 C          -0.7139  -18.0460   20.2919 C.3     1  UNL1        0.0001
     14 C          -5.7664  -15.6269   23.7269 C.2     1  UNL1        0.3353
     15 O          -4.5403  -15.2205   22.9644 O.2     1  UNL1       -0.2483
     16 O          -6.1975  -14.8397   24.9287 O.3     1  UNL1       -0.4474
     17 C          -6.8521  -15.7412   27.2759 C.3     1  UNL1        0.0513
     18 C          -5.8021  -15.2924   26.3030 C.3     1  UNL1        0.2086
     19 C          -7.9166  -17.0776   23.8775 C.3     1  UNL1        0.0590
     20 C          -9.1465  -16.8984   23.0377 C.ar    1  UNL1       -0.0014
     21 C          -9.2225  -16.1670   21.7304 C.ar    1  UNL1        0.0717
     22 N         -10.6393  -16.2357   21.2426 N.ar    1  UNL1       -0.3243
     23 C         -11.1643  -15.6358   19.9719 C.3     1  UNL1        0.1305
     24 C         -11.4389  -17.0095   22.2484 C.ar    1  UNL1        0.0597
     25 C         -12.8879  -17.3941   22.2974 C.ar    1  UNL1        0.0172
     26 C         -13.4143  -18.1883   23.4559 C.ar    1  UNL1        0.0015
     27 C         -12.4916  -18.5979   24.5654 C.ar    1  UNL1        0.0001
     28 C         -11.0426  -18.2133   24.5164 C.ar    1  UNL1        0.0012
     29 C         -10.5163  -17.4191   23.3579 C.ar    1  UNL1        0.0133
@<TRIPOS>BOND
     1    17    18    1
     2    18    16    1
     3    16    14    1
     4    14    15    2
     5    14     1    1
     6     1    19    1
     7    19    20    1
     8    20    21   ar
     9    21    22   ar
    10    22    23    1
    11    22    24   ar
    12    24    25   ar
    13    25    26   ar
    14    26    27   ar
    15    27    28   ar
    16    28    29   ar
    17     1     2    1
    18     2     3   am
    19     3     4    2
    20     3     6    1
    21     6     7    1
    22     6    10    1
    23    10    11    1
    24    11    12    1
    25    11    13    1
    26    29    20   ar
    27    29    24   ar
    28     2     5    1
    29     7     8    1
    30     7     9    1
@<TRIPOS>MOLECULE
*****
 29 30 0 0 0
SMALL
GASTEIGER

@<TRIPOS>ATOM
      1 C          -6.4178  -16.8234   23.4080 C.3     1  UNL1        0.1759
      2 N          -5.6447  -17.6392   22.4147 N.am    1  UNL1       -0.2954
      3 C          -4.3417  -18.2673   22.8119 C.2     1  UNL1        0.2368
      4 O          -3.8120  -18.0796   24.2027 O.2     1  UNL1       -0.2737
      5 H          -5.9924  -17.7624   21.5019 H       1  UNL1        0.1499
      6 C          -3.5686  -19.0830   21.8186 C.3     1  UNL1        0.1283
      7 N          -4.2845  -20.0505   20.9234 N.3     1  UNL1       -0.3150
      8 H          -3.6095  -20.5156   20.3164 H       1  UNL1        0.1192
      9 H          -4.9641  -19.5472   20.3531 H       1  UNL1        0.1192
     10 C          -2.0796  -18.9313   21.7204 C.3     1  UNL1        0.0248
     11 C          -1.4915  -17.7791   20.9610 C.3     1  UNL1        0.0018
     12 C          -1.8196  -16.3713   21.3614 C.3     1  UNL1        0.0001
     13 C          -0.5755  -18.0348   19.8011 C.3     1  UNL1        0.0001
     14 C          -5.9071  -15.4789   23.8339 C.2     1  UNL1        0.3353
     15 O          -4.8409  -14.7932   23.0320 O.2     1  UNL1       -0.2483
     16 O          -6.4626  -14.8201   25.0616 O.3     1  UNL1       -0.4474
     17 C          -6.9812  -15.7731   27.4224 C.3     1  UNL1        0.0513
     18 C          -5.9949  -15.2503   26.4203 C.3     1  UNL1        0.2086
     19 C          -7.7017  -17.3523   23.9756 C.3     1  UNL1        0.0590
     20 C          -8.9700  -17.2535   23.1808 C.ar    1  UNL1       -0.0014
     21 C         -10.1567  -16.3996   23.5166 C.ar    1  UNL1        0.0717
     22 N         -11.1943  -16.6096   22.4540 N.ar    1  UNL1       -0.3243
     23 C         -12.5409  -15.9515   22.3943 C.3     1  UNL1        0.1305
     24 C         -10.6490  -17.5933   21.4615 C.ar    1  UNL1        0.0597
     25 C         -11.2266  -18.1781   20.2068 C.ar    1  UNL1        0.0172
     26 C         -10.4295  -19.1608   19.4013 C.ar    1  UNL1        0.0015
     27 C          -9.0548  -19.5587   19.8505 C.ar    1  UNL1        0.0001
     28 C          -8.4772  -18.9739   21.1052 C.ar    1  UNL1        0.0012
     29 C          -9.2743  -17.9912   21.9107 C.ar    1  UNL1        0.0133
@<TRIPOS>BOND
     1    17    18    1
     2    18    16    1
     3    16    14    1
     4    14    15    2
     5    14     1    1
     6     1    19    1
     7    19    20    1
     8    20    21   ar
     9    21    22   ar
    10    22    23    1
    11    22    24   ar
    12    24    25   ar
    13    25    26   ar
    14    26    27   ar
    15    27    28   ar
    16    28    29   ar
    17     1     2    1
    18     2     3   am
    19     3     4    2
    20     3     6    1
    21     6     7    1
    22     6    10    1
    23    10    11    1
    24    11    12    1
    25    11    13    1
    26    29    20   ar
    27    29    24   ar
    28     2     5    1
    29     7     8    1
    30     7     9    1
@<TRIPOS>MOLECULE
*****
 29 30 0 0 0
SMALL
GASTEIGER

@<TRIPOS>ATOM
      1 C          -6.4996  -15.8845   23.8800 C.3     1  UNL1        0.1759
      2 N          -5.2658  -16.6584   23.5209 N.am    1  UNL1       -0.2954
      3 C          -4.1091  -15.9640   22.8655 C.2     1  UNL1        0.2368
      4 O          -4.1861  -14.4956   22.5691 O.2     1  UNL1       -0.2737
      5 H          -5.2153  -17.6222   23.7154 H       1  UNL1        0.1499
      6 C          -2.8753  -16.7379   22.5064 C.3     1  UNL1        0.1283
      7 N          -1.7528  -16.0629   21.7754 N.3     1  UNL1       -0.3150
      8 H          -1.0005  -16.7327   21.6145 H       1  UNL1        0.1192
      9 H          -1.4019  -15.2854   22.3346 H       1  UNL1        0.1192
     10 C          -2.7642  -18.1868   22.8783 C.3     1  UNL1        0.0248
     11 C          -3.3102  -19.2406   21.9610 C.3     1  UNL1        0.0018
     12 C          -4.7398  -19.6767   22.0865 C.3     1  UNL1        0.0001
     13 C          -2.4264  -19.8583   20.9181 C.3     1  UNL1        0.0001
     14 C          -6.5627  -15.1332   25.1767 C.2     1  UNL1        0.3353
     15 O          -5.3141  -14.5457   25.7648 O.2     1  UNL1       -0.2483
     16 O          -7.8746  -14.9694   25.8854 O.3     1  UNL1       -0.4474
     17 C          -8.7072  -16.9500   27.3463 C.3     1  UNL1        0.0513
     18 C          -8.0808  -15.5916   27.2346 C.3     1  UNL1        0.2086
     19 C          -7.6702  -15.8618   22.9422 C.3     1  UNL1        0.0590
     20 C          -8.7427  -16.9043   23.0563 C.ar    1  UNL1       -0.0014
     21 C          -8.6988  -18.1225   23.9303 C.ar    1  UNL1        0.0717
     22 N          -9.9765  -18.8826   23.7304 N.ar    1  UNL1       -0.3243
     23 C         -10.3543  -20.1659   24.4090 C.3     1  UNL1        0.1305
     24 C         -10.8100  -18.1341   22.7329 C.ar    1  UNL1        0.0597
     25 C         -12.1647  -18.4079   22.1502 C.ar    1  UNL1        0.0172
     26 C         -12.7570  -17.4590   21.1508 C.ar    1  UNL1        0.0015
     27 C         -11.9945  -16.2364   20.7341 C.ar    1  UNL1        0.0001
     28 C         -10.6397  -15.9625   21.3168 C.ar    1  UNL1        0.0012
     29 C         -10.0475  -16.9114   22.3162 C.ar    1  UNL1        0.0133
@<TRIPOS>BOND
     1    17    18    1
     2    18    16    1
     3    16    14    1
     4    14    15    2
     5    14     1    1
     6     1    19    1
     7    19    20    1
     8    20    21   ar
     9    21    22   ar
    10    22    23    1
    11    22    24   ar
    12    24    25   ar
    13    25    26   ar
    14    26    27   ar
    15    27    28   ar
    16    28    29   ar
    17     1     2    1
    18     2     3   am
    19     3     4    2
    20     3     6    1
    21     6     7    1
    22     6    10    1
    23    10    11    1
    24    11    12    1
    25    11    13    1
    26    29    20   ar
    27    29    24   ar
    28     2     5    1
    29     7     8    1
    30     7     9    1
@<TRIPOS>MOLECULE
*****
 29 30 0 0 0
SMALL
GASTEIGER

@<TRIPOS>ATOM
      1 C          -7.0022  -17.0600   23.2719 C.3     1  UNL1        0.1759
      2 N          -8.1761  -17.9867   23.1571 N.am    1  UNL1       -0.2954
      3 C          -9.2587  -17.9581   24.1949 C.2     1  UNL1        0.2368
      4 O          -9.1674  -17.0026   25.3476 O.2     1  UNL1       -0.2737
      5 H          -8.2360  -18.6138   22.4005 H       1  UNL1        0.1499
      6 C         -10.4326  -18.8848   24.0801 C.3     1  UNL1        0.1283
      7 N         -10.5941  -20.0148   25.0532 N.3     1  UNL1       -0.3150
      8 H         -11.4399  -20.5387   24.8286 H       1  UNL1        0.1192
      9 H         -10.6670  -19.6408   25.9994 H       1  UNL1        0.1192
     10 C         -11.4449  -18.6815   22.9921 C.3     1  UNL1        0.0248
     11 C         -12.5268  -17.6555   23.1564 C.3     1  UNL1        0.0018
     12 C         -12.3625  -16.2899   22.5581 C.3     1  UNL1        0.0001
     13 C         -13.7729  -17.9952   23.9191 C.3     1  UNL1        0.0001
     14 C          -7.1959  -15.5810   23.1135 C.2     1  UNL1        0.3353
     15 O          -7.6604  -15.0218   21.8014 O.2     1  UNL1       -0.2483
     16 O          -6.9252  -14.6614   24.2671 O.3     1  UNL1       -0.4474
     17 C          -6.4325  -15.3475   26.7241 C.3     1  UNL1        0.0513
     18 C          -5.9490  -15.0627   25.3330 C.3     1  UNL1        0.2086
     19 C          -5.6345  -17.6123   23.5452 C.3     1  UNL1        0.0590
     20 C          -4.8612  -18.2783   22.4459 C.ar    1  UNL1       -0.0014
     21 C          -5.2449  -19.5452   21.7405 C.ar    1  UNL1        0.0717
     22 N          -4.1892  -19.8442   20.7177 N.ar    1  UNL1       -0.3243
     23 C          -4.1726  -21.0190   19.7853 C.3     1  UNL1        0.1305
     24 C          -3.1531  -18.7620   20.7910 C.ar    1  UNL1        0.0597
     25 C          -1.8851  -18.5328   20.0232 C.ar    1  UNL1        0.0172
     26 C          -1.0324  -17.3359   20.3234 C.ar    1  UNL1        0.0015
     27 C          -1.4478  -16.3681   21.3916 C.ar    1  UNL1        0.0001
     28 C          -2.7157  -16.5973   22.1594 C.ar    1  UNL1        0.0012
     29 C          -3.5684  -17.7942   21.8591 C.ar    1  UNL1        0.0133
@<TRIPOS>BOND
     1    17    18    1
     2    18    16    1
     3    16    14    1
     4    14    15    2
     5    14     1    1
     6     1    19    1
     7    19    20    1
     8    20    21   ar
     9    21    22   ar
    10    22    23    1
    11    22    24   ar
    12    24    25   ar
    13    25    26   ar
    14    26    27   ar
    15    27    28   ar
    16    28    29   ar
    17     1     2    1
    18     2     3   am
    19     3     4    2
    20     3     6    1
    21     6     7    1
    22     6    10    1
    23    10    11    1
    24    11    12    1
    25    11    13    1
    26    29    20   ar
    27    29    24   ar
    28     2     5    1
    29     7     8    1
    30     7     9    1
@<TRIPOS>MOLECULE
*****
 29 30 0 0 0
SMALL
GASTEIGER

@<TRIPOS>ATOM
      1 C          -7.0396  -16.9550   23.0886 C.3     1  UNL1        0.1759
      2 N          -7.6586  -17.3325   21.7755 N.am    1  UNL1       -0.2954
      3 C          -8.5800  -18.5131   21.6924 C.2     1  UNL1        0.2368
      4 O          -8.8825  -19.3163   22.9226 O.2     1  UNL1       -0.2737
      5 H          -7.4600  -16.8053   20.9681 H       1  UNL1        0.1499
      6 C          -9.1990  -18.8906   20.3793 C.3     1  UNL1        0.1283
      7 N          -8.3252  -19.2344   19.2095 N.3     1  UNL1       -0.3150
      8 H          -8.9088  -19.4645   18.4052 H       1  UNL1        0.1192
      9 H          -7.7406  -20.0361   19.4459 H       1  UNL1        0.1192
     10 C         -10.6917  -18.9242   20.2359 C.3     1  UNL1        0.0248
     11 C         -11.5116  -17.7374   20.6471 C.3     1  UNL1        0.0018
     12 C         -12.3388  -17.7940   21.8971 C.3     1  UNL1        0.0001
     13 C         -11.5043  -16.4938   19.8084 C.3     1  UNL1        0.0001
     14 C          -7.8037  -16.1070   24.0618 C.2     1  UNL1        0.3353
     15 O          -9.2906  -15.9634   23.9252 O.2     1  UNL1       -0.2483
     16 O          -7.0809  -15.4026   25.1714 O.3     1  UNL1       -0.4474
     17 C          -8.3108  -16.5780   27.1350 C.3     1  UNL1        0.0513
     18 C          -7.6831  -15.3504   26.5442 C.3     1  UNL1        0.2086
     19 C          -5.6564  -17.4256   23.4287 C.3     1  UNL1        0.0590
     20 C          -4.8381  -18.1524   22.4029 C.ar    1  UNL1       -0.0014
     21 C          -5.1863  -19.4650   21.7660 C.ar    1  UNL1        0.0717
     22 N          -4.0913  -19.8180   20.8035 N.ar    1  UNL1       -0.3243
     23 C          -4.0317  -21.0493   19.9488 C.3     1  UNL1        0.1305
     24 C          -3.0664  -18.7235   20.8456 C.ar    1  UNL1        0.0597
     25 C          -1.7726  -18.5313   20.1115 C.ar    1  UNL1        0.0172
     26 C          -0.9403  -17.3097   20.3660 C.ar    1  UNL1        0.0015
     27 C          -1.4019  -16.2802   21.3545 C.ar    1  UNL1        0.0001
     28 C          -2.6957  -16.4725   22.0886 C.ar    1  UNL1        0.0012
     29 C          -3.5280  -17.6941   21.8341 C.ar    1  UNL1        0.0133
@<TRIPOS>BOND
     1    17    18    1
     2    18    16    1
     3    16    14    1
     4    14    15    2
     5    14     1    1
     6     1    19    1
     7    19    20    1
     8    20    21   ar
     9    21    22   ar
    10    22    23    1
    11    22    24   ar
    12    24    25   ar
    13    25    26   ar
    14    26    27   ar
    15    27    28   ar
    16    28    29   ar
    17     1     2    1
    18     2     3   am
    19     3     4    2
    20     3     6    1
    21     6     7    1
    22     6    10    1
    23    10    11    1
    24    11    12    1
    25    11    13    1
    26    29    20   ar
    27    29    24   ar
    28     2     5    1
    29     7     8    1
    30     7     9    1
@<TRIPOS>MOLECULE
*****
 29 30 0 0 0
SMALL
GASTEIGER

@<TRIPOS>ATOM
      1 C         -14.2944   -8.1111   17.7120 C.3     1  UNL1        0.1759
      2 N         -12.7962   -8.1366   17.6415 N.am    1  UNL1       -0.2954
      3 C         -11.9873   -7.2701   18.5605 C.2     1  UNL1        0.2368
      4 O         -12.6765   -6.3780   19.5501 O.2     1  UNL1       -0.2737
      5 H         -12.3439   -8.7221   16.9920 H       1  UNL1        0.1499
      6 C         -10.4891   -7.2956   18.4900 C.3     1  UNL1        0.1283
      7 N          -9.7849   -8.4962   17.9309 N.3     1  UNL1       -0.3150
      8 H          -8.7769   -8.3428   17.9589 H       1  UNL1        0.1192
      9 H         -10.0796   -8.6443   16.9657 H       1  UNL1        0.1192
     10 C          -9.6952   -6.1204   18.9786 C.3     1  UNL1        0.0248
     11 C          -9.7716   -4.8098   18.2531 C.3     1  UNL1        0.0018
     12 C         -10.4150   -3.6250   18.9105 C.3     1  UNL1        0.0001
     13 C          -9.2046   -4.6840   16.8701 C.3     1  UNL1        0.0001
     14 C         -15.0227   -9.1155   18.5551 C.2     1  UNL1        0.3353
     15 O         -14.9338  -10.5763   18.2261 O.2     1  UNL1       -0.2483
     16 O         -15.8400   -8.6590   19.7271 O.3     1  UNL1       -0.4474
     17 C         -18.3078   -7.9175   20.0601 C.3     1  UNL1        0.0513
     18 C         -17.2995   -8.9975   19.8009 C.3     1  UNL1        0.2086
     19 C         -15.0642   -7.0812   16.9394 C.3     1  UNL1        0.0590
     20 C         -15.1759   -5.6798   17.4626 C.ar    1  UNL1       -0.0014
     21 C         -16.1902   -5.1860   18.4511 C.ar    1  UNL1        0.0717
     22 N         -15.9340   -3.7273   18.6886 N.ar    1  UNL1       -0.3243
     23 C         -16.7137   -2.8331   19.6066 C.3     1  UNL1        0.1305
     24 C         -14.7613   -3.3195   17.8468 C.ar    1  UNL1        0.0597
     25 C         -14.0596   -2.0053   17.6724 C.ar    1  UNL1        0.0172
     26 C         -12.8894   -1.8979   16.7403 C.ar    1  UNL1        0.0015
     27 C         -12.4208   -3.1047   15.9826 C.ar    1  UNL1        0.0001
     28 C         -13.1225   -4.4189   16.1570 C.ar    1  UNL1        0.0012
     29 C         -14.2927   -4.5263   17.0891 C.ar    1  UNL1        0.0133
@<TRIPOS>BOND
     1    17    18    1
     2    18    16    1
     3    16    14    1
     4    14    15    2
     5    14     1    1
     6     1    19    1
     7    19    20    1
     8    20    21   ar
     9    21    22   ar
    10    22    23    1
    11    22    24   ar
    12    24    25   ar
    13    25    26   ar
    14    26    27   ar
    15    27    28   ar
    16    28    29   ar
    17     1     2    1
    18     2     3   am
    19     3     4    2
    20     3     6    1
    21     6     7    1
    22     6    10    1
    23    10    11    1
    24    11    12    1
    25    11    13    1
    26    29    20   ar
    27    29    24   ar
    28     2     5    1
    29     7     8    1
    30     7     9    1
