@<TRIPOS>MOLECULE
*****
 34 37 0 0 0
SMALL
GASTEIGER

@<TRIPOS>ATOM
      1 N          -7.7428  -19.6072   21.4773 N.3     1  UNL1       -0.2641
      2 C          -8.5728  -19.1689   22.6474 C.3     1  UNL1        0.0981
      3 C          -9.6039  -20.0933   23.2238 C.3     1  UNL1        0.0224
      4 C         -10.4338  -19.6550   24.3938 C.3     1  UNL1        0.0065
      5 C         -10.2327  -18.2922   24.9875 C.3     1  UNL1        0.0277
      6 C          -9.2016  -17.3679   24.4111 C.ar    1  UNL1       -0.0073
      7 C          -9.0004  -16.0050   25.0048 C.ar    1  UNL1       -0.0015
      8 C          -7.9693  -15.0807   24.4284 C.ar    1  UNL1        0.0203
      9 C          -7.1393  -15.5190   23.2583 C.ar    1  UNL1        0.0985
     10 N          -7.3405  -16.8817   22.6646 N.ar    1  UNL1       -0.2471
     11 C          -8.3716  -17.8062   23.2410 C.ar    1  UNL1        0.0695
     12 C          -8.2503  -19.4055   20.0803 C.3     1  UNL1        0.0989
     13 C         -10.7627  -19.3754   19.4190 C.2     1  UNL1       -0.0081
     14 C          -9.4806  -20.1282   19.6175 C.2     1  UNL1       -0.0117
     15 C         -10.8146  -17.8997   19.6834 C.3     1  UNL1        0.1171
     16 N         -11.8350  -15.5753   22.7339 N.am    1  UNL1       -0.3133
     17 C         -11.1061  -16.0966   21.5309 C.2     1  UNL1        0.2979
     18 O          -9.9400  -15.3360   20.9727 O.2     1  UNL1       -0.2531
     19 N         -11.5434  -17.3784   20.8863 N.am    1  UNL1       -0.2851
     20 H         -11.5480  -14.7339   23.1570 H       1  UNL1        0.1465
     21 H         -12.6003  -16.0745   23.1003 H       1  UNL1        0.1465
     22 H         -12.3087  -17.8777   21.2527 H       1  UNL1        0.1513
     23 C          -6.4054  -20.2473   21.7042 C.3     1  UNL1        0.0888
     24 C          -5.1563  -19.4197   21.6343 C.3     1  UNL1        0.0748
     25 C          -4.3223  -19.4245   20.3875 C.3     1  UNL1        0.0432
     26 C          -3.0732  -18.5969   20.3175 C.ar    1  UNL1       -0.0234
     27 C          -2.2393  -18.6017   19.0708 C.ar    1  UNL1       -0.0045
     28 C          -0.9902  -17.7741   19.0008 C.ar    1  UNL1       -0.0003
     29 C          -0.5750  -16.9418   20.1777 C.ar    1  UNL1       -0.0003
     30 C          -1.4090  -16.9371   21.4244 C.ar    1  UNL1       -0.0032
     31 C          -2.6580  -17.7646   21.4944 C.ar    1  UNL1       -0.0103
     32 C          -3.4920  -17.7599   22.7412 C.3     1  UNL1        0.0953
     33 N          -4.7411  -18.5875   22.8111 N.3     1  UNL1       -0.2934
     34 H          -5.5097  -17.9449   23.0031 H       1  UNL1        0.1236
@<TRIPOS>BOND
     1    16    17   am
     2    17    18    2
     3    17    19   am
     4    19    15    1
     5    15    13    1
     6    13    14    2
     7    14    12    1
     8    12     1    1
     9     1    23    1
    10    24    23    1
    11    24    25    1
    12    25    26    1
    13    26    27   ar
    14    27    28   ar
    15    28    29   ar
    16    29    30   ar
    17    30    31   ar
    18    31    32    1
    19    32    33    1
    20     2     1    1
    21     2     3    1
    22     3     4    1
    23     4     5    1
    24     5     6    1
    25     6     7   ar
    26     7     8   ar
    27     8     9   ar
    28     9    10   ar
    29    10    11   ar
    30    33    24    1
    31    11     2    1
    32    31    26   ar
    33    11     6   ar
    34    16    20    1
    35    16    21    1
    36    19    22    1
    37    33    34    1
@<TRIPOS>MOLECULE
*****
 34 37 0 0 0
SMALL
GASTEIGER

@<TRIPOS>ATOM
      1 N          -8.8938  -18.7835   22.5901 N.3     1  UNL1       -0.2641
      2 C          -8.4680  -17.4255   23.0639 C.3     1  UNL1        0.0981
      3 C          -7.9604  -16.4131   22.0804 C.3     1  UNL1        0.0224
      4 C          -7.5346  -15.0551   22.5542 C.3     1  UNL1        0.0065
      5 C          -7.6164  -14.7095   24.0115 C.3     1  UNL1        0.0277
      6 C          -8.1240  -15.7219   24.9950 C.ar    1  UNL1       -0.0073
      7 C          -8.2059  -15.3763   26.4524 C.ar    1  UNL1       -0.0015
      8 C          -8.7135  -16.3887   27.4359 C.ar    1  UNL1        0.0203
      9 C          -9.1393  -17.7467   26.9621 C.ar    1  UNL1        0.0985
     10 N          -9.0575  -18.0923   25.5048 N.ar    1  UNL1       -0.2471
     11 C          -8.5498  -17.0799   24.5212 C.ar    1  UNL1        0.0695
     12 C         -10.2884  -18.9969   22.0806 C.3     1  UNL1        0.0989
     13 C         -12.2876  -17.9256   23.3476 C.2     1  UNL1       -0.0081
     14 C         -11.4295  -19.1185   23.0466 C.2     1  UNL1       -0.0117
     15 C         -12.0047  -16.6112   22.6827 C.3     1  UNL1        0.1171
     16 N         -12.5730  -15.6096   18.8848 N.am    1  UNL1       -0.3133
     17 C         -11.8843  -15.9638   20.1694 C.2     1  UNL1        0.2979
     18 O         -10.3866  -16.0249   20.2254 O.2     1  UNL1       -0.2531
     19 N         -12.6934  -16.2570   21.3981 N.am    1  UNL1       -0.2851
     20 H         -12.0420  -15.4172   18.0784 H       1  UNL1        0.1465
     21 H         -13.5560  -15.5695   18.8480 H       1  UNL1        0.1465
     22 H         -13.6764  -16.2169   21.3613 H       1  UNL1        0.1513
     23 C          -7.9251  -19.9281   22.6258 C.3     1  UNL1        0.0888
     24 C          -6.5914  -19.8034   21.9506 C.3     1  UNL1        0.0748
     25 C          -5.5534  -18.8742   22.5065 C.3     1  UNL1        0.0432
     26 C          -4.2197  -18.7494   21.8313 C.ar    1  UNL1       -0.0234
     27 C          -3.1817  -17.8202   22.3872 C.ar    1  UNL1       -0.0045
     28 C          -1.8481  -17.6955   21.7120 C.ar    1  UNL1       -0.0003
     29 C          -1.5525  -18.5000   20.4810 C.ar    1  UNL1       -0.0003
     30 C          -2.5905  -19.4291   19.9251 C.ar    1  UNL1       -0.0032
     31 C          -3.9241  -19.5539   20.6003 C.ar    1  UNL1       -0.0103
     32 C          -4.9623  -20.4831   20.0444 C.3     1  UNL1        0.0953
     33 N          -6.2959  -20.6078   20.7196 N.3     1  UNL1       -0.2934
     34 H          -6.4056  -21.5890   20.9757 H       1  UNL1        0.1236
@<TRIPOS>BOND
     1    16    17   am
     2    17    18    2
     3    17    19   am
     4    19    15    1
     5    15    13    1
     6    13    14    2
     7    14    12    1
     8    12     1    1
     9     1    23    1
    10    24    23    1
    11    24    25    1
    12    25    26    1
    13    26    27   ar
    14    27    28   ar
    15    28    29   ar
    16    29    30   ar
    17    30    31   ar
    18    31    32    1
    19    32    33    1
    20     2     1    1
    21     2     3    1
    22     3     4    1
    23     4     5    1
    24     5     6    1
    25     6     7   ar
    26     7     8   ar
    27     8     9   ar
    28     9    10   ar
    29    10    11   ar
    30    33    24    1
    31    11     2    1
    32    31    26   ar
    33    11     6   ar
    34    16    20    1
    35    16    21    1
    36    19    22    1
    37    33    34    1
@<TRIPOS>MOLECULE
*****
 34 37 0 0 0
SMALL
GASTEIGER

@<TRIPOS>ATOM
      1 N          -7.5088  -18.9371   20.8077 N.3     1  UNL1       -0.2641
      2 C          -7.9630  -18.0479   21.9271 C.3     1  UNL1        0.0981
      3 C          -7.5820  -16.5971   21.9341 C.3     1  UNL1        0.0224
      4 C          -8.0362  -15.7078   23.0535 C.3     1  UNL1        0.0065
      5 C          -8.8713  -16.2694   24.1658 C.3     1  UNL1        0.0277
      6 C          -9.2522  -17.7201   24.1588 C.ar    1  UNL1       -0.0073
      7 C         -10.0873  -18.2817   25.2711 C.ar    1  UNL1       -0.0015
      8 C         -10.4682  -19.7325   25.2641 C.ar    1  UNL1        0.0203
      9 C         -10.0141  -20.6218   24.1447 C.ar    1  UNL1        0.0985
     10 N          -9.1790  -20.0602   23.0324 N.ar    1  UNL1       -0.2471
     11 C          -8.7980  -18.6094   23.0394 C.ar    1  UNL1        0.0695
     12 C          -8.2101  -18.8922   19.4825 C.3     1  UNL1        0.0989
     13 C         -10.6502  -19.7826   19.5408 C.2     1  UNL1       -0.0081
     14 C          -9.2168  -19.9472   19.1306 C.2     1  UNL1       -0.0117
     15 C         -11.0769  -18.5632   20.3030 C.3     1  UNL1        0.1171
     16 N         -13.2713  -17.6625   23.4847 N.am    1  UNL1       -0.3133
     17 C         -12.5080  -17.5160   22.2017 C.2     1  UNL1        0.2979
     18 O         -12.4124  -16.1759   21.5347 O.2     1  UNL1       -0.2531
     19 N         -11.8402  -18.7097   21.5859 N.am    1  UNL1       -0.2851
     20 H         -13.7096  -16.8791   23.8890 H       1  UNL1        0.1465
     21 H         -13.3341  -18.5421   23.9225 H       1  UNL1        0.1465
     22 H         -11.9030  -19.5892   22.0237 H       1  UNL1        0.1513
     23 C          -6.3534  -19.8712   21.0135 C.3     1  UNL1        0.0888
     24 C          -4.9552  -19.3318   21.0785 C.3     1  UNL1        0.0748
     25 C          -4.2005  -19.0501   19.8132 C.3     1  UNL1        0.0432
     26 C          -2.8022  -18.5107   19.8782 C.ar    1  UNL1       -0.0234
     27 C          -2.0475  -18.2290   18.6129 C.ar    1  UNL1       -0.0045
     28 C          -0.6494  -17.6896   18.6779 C.ar    1  UNL1       -0.0003
     29 C          -0.0060  -17.4320   20.0082 C.ar    1  UNL1       -0.0003
     30 C          -0.7607  -17.7137   21.2735 C.ar    1  UNL1       -0.0032
     31 C          -2.1589  -18.2531   21.2085 C.ar    1  UNL1       -0.0103
     32 C          -2.9137  -18.5348   22.4738 C.3     1  UNL1        0.0953
     33 N          -4.3118  -19.0742   22.4088 N.3     1  UNL1       -0.2934
     34 H          -4.9077  -18.4077   22.8999 H       1  UNL1        0.1236
@<TRIPOS>BOND
     1    16    17   am
     2    17    18    2
     3    17    19   am
     4    19    15    1
     5    15    13    1
     6    13    14    2
     7    14    12    1
     8    12     1    1
     9     1    23    1
    10    24    23    1
    11    24    25    1
    12    25    26    1
    13    26    27   ar
    14    27    28   ar
    15    28    29   ar
    16    29    30   ar
    17    30    31   ar
    18    31    32    1
    19    32    33    1
    20     2     1    1
    21     2     3    1
    22     3     4    1
    23     4     5    1
    24     5     6    1
    25     6     7   ar
    26     7     8   ar
    27     8     9   ar
    28     9    10   ar
    29    10    11   ar
    30    33    24    1
    31    11     2    1
    32    31    26   ar
    33    11     6   ar
    34    16    20    1
    35    16    21    1
    36    19    22    1
    37    33    34    1
@<TRIPOS>MOLECULE
*****
 34 37 0 0 0
SMALL
GASTEIGER

@<TRIPOS>ATOM
      1 N         -10.1499  -19.2288   23.6816 N.3     1  UNL1       -0.2641
      2 C          -9.5238  -18.1652   24.5340 C.3     1  UNL1        0.0981
      3 C          -9.5300  -18.3009   26.0278 C.3     1  UNL1        0.0224
      4 C          -8.9038  -17.2373   26.8802 C.3     1  UNL1        0.0065
      5 C          -8.2714  -16.0379   26.2388 C.3     1  UNL1        0.0277
      6 C          -8.2652  -15.9021   24.7450 C.ar    1  UNL1       -0.0073
      7 C          -7.6327  -14.7027   24.1036 C.ar    1  UNL1       -0.0015
      8 C          -7.6265  -14.5669   22.6098 C.ar    1  UNL1        0.0203
      9 C          -8.2526  -15.6305   21.7573 C.ar    1  UNL1        0.0985
     10 N          -8.8851  -16.8299   22.3987 N.ar    1  UNL1       -0.2471
     11 C          -8.8913  -16.9658   23.8926 C.ar    1  UNL1        0.0695
     12 C         -11.6266  -19.2067   23.4190 C.3     1  UNL1        0.0989
     13 C         -12.8887  -16.9438   23.2287 C.2     1  UNL1       -0.0081
     14 C         -12.4823  -18.1406   24.0364 C.2     1  UNL1       -0.0117
     15 C         -12.4393  -16.8130   21.8035 C.3     1  UNL1        0.1171
     16 N         -10.6497  -19.0745   19.0771 N.am    1  UNL1       -0.3133
     17 C         -11.1146  -17.8638   19.8310 C.2     1  UNL1        0.2979
     18 O         -10.7197  -16.4934   19.3662 O.2     1  UNL1       -0.2531
     19 N         -11.9744  -18.0236   21.0497 N.am    1  UNL1       -0.2851
     20 H         -10.0853  -18.9696   18.2773 H       1  UNL1        0.1465
     21 H         -10.9088  -19.9739   19.3822 H       1  UNL1        0.1465
     22 H         -12.2336  -18.9230   21.3547 H       1  UNL1        0.1513
     23 C          -9.2995  -20.3145   23.0918 C.3     1  UNL1        0.0888
     24 C          -8.1333  -19.9618   22.2167 C.3     1  UNL1        0.0748
     25 C          -6.7400  -20.0046   22.7705 C.3     1  UNL1        0.0432
     26 C          -5.5738  -19.6519   21.8955 C.ar    1  UNL1       -0.0234
     27 C          -4.1805  -19.6948   22.4493 C.ar    1  UNL1       -0.0045
     28 C          -3.0144  -19.3421   21.5743 C.ar    1  UNL1       -0.0003
     29 C          -3.2416  -18.9466   20.1453 C.ar    1  UNL1       -0.0003
     30 C          -4.6349  -18.9037   19.5914 C.ar    1  UNL1       -0.0032
     31 C          -5.8010  -19.2564   20.4665 C.ar    1  UNL1       -0.0103
     32 C          -7.1944  -19.2136   19.9126 C.3     1  UNL1        0.0953
     33 N          -8.3605  -19.5663   20.7877 N.3     1  UNL1       -0.2934
     34 H          -8.8401  -20.3466   20.3389 H       1  UNL1        0.1236
@<TRIPOS>BOND
     1    16    17   am
     2    17    18    2
     3    17    19   am
     4    19    15    1
     5    15    13    1
     6    13    14    2
     7    14    12    1
     8    12     1    1
     9     1    23    1
    10    24    23    1
    11    24    25    1
    12    25    26    1
    13    26    27   ar
    14    27    28   ar
    15    28    29   ar
    16    29    30   ar
    17    30    31   ar
    18    31    32    1
    19    32    33    1
    20     2     1    1
    21     2     3    1
    22     3     4    1
    23     4     5    1
    24     5     6    1
    25     6     7   ar
    26     7     8   ar
    27     8     9   ar
    28     9    10   ar
    29    10    11   ar
    30    33    24    1
    31    11     2    1
    32    31    26   ar
    33    11     6   ar
    34    16    20    1
    35    16    21    1
    36    19    22    1
    37    33    34    1
