@<TRIPOS>MOLECULE
*****
 18 20 0 0 0
SMALL
GASTEIGER

@<TRIPOS>ATOM
      1 C          -7.1064  -17.3698   22.7946 C.3     1  UNL1        0.0364
      2 C          -6.2204  -16.3518   23.4493 C.3     1  UNL1        0.0236
      3 C          -5.6026  -15.2280   24.2274 C.3     1  UNL1        0.0690
      4 N          -6.7002  -14.5097   24.9549 N.3     1  UNL1       -0.2972
      5 C          -7.9963  -15.1894   24.6264 C.3     1  UNL1        0.0727
      6 C          -7.6998  -16.3279   23.6958 C.3     1  UNL1        0.0372
      7 H          -6.7344  -13.5354   24.6548 H       1  UNL1        0.1233
      8 C          -9.1201  -16.7898   23.5557 C.ar    1  UNL1       -0.0205
      9 C          -9.6810  -17.7930   24.5195 C.ar    1  UNL1       -0.0033
     10 C         -11.1013  -18.2549   24.3793 C.ar    1  UNL1        0.0119
     11 C         -11.9604  -17.7136   23.2754 C.ar    1  UNL1        0.0682
     12 CL        -13.3807  -18.1755   23.1353 Cl      1  UNL1       -0.0814
     13 C         -11.3995  -16.7104   22.3116 C.ar    1  UNL1        0.0679
     14 CL        -12.2587  -16.1690   21.2076 Cl      1  UNL1       -0.0814
     15 C          -9.9792  -16.2485   22.4518 C.ar    1  UNL1        0.0080
     16 C          -7.2753  -18.5591   21.8963 C.3     1  UNL1        0.1426
     17 C          -5.6106  -19.1726   19.9983 C.3     1  UNL1        0.1741
     18 O          -6.8581  -18.4778   20.4578 O.3     1  UNL1       -0.3511
@<TRIPOS>BOND
     1    17    18    1
     2    18    16    1
     3     1    16    1
     4     1     2    1
     5     2     3    1
     6     3     4    1
     7     4     5    1
     8     5     6    1
     9     6     8    1
    10     8     9   ar
    11     9    10   ar
    12    10    11   ar
    13    11    12    1
    14    11    13   ar
    15    13    14    1
    16    13    15   ar
    17     6     1    1
    18    15     8   ar
    19     6     2    1
    20     4     7    1
@<TRIPOS>MOLECULE
*****
 18 20 0 0 0
SMALL
GASTEIGER

@<TRIPOS>ATOM
      1 C         -12.2042  -17.2439   22.2139 C.3     1  UNL1        0.0364
      2 C         -13.2751  -17.5966   23.2032 C.3     1  UNL1        0.0236
      3 C         -14.1106  -18.0845   24.3494 C.3     1  UNL1        0.0690
      4 N         -13.2084  -18.8051   25.3069 N.3     1  UNL1       -0.2972
      5 C         -11.8152  -18.7625   24.7524 C.3     1  UNL1        0.0727
      6 C         -11.8565  -18.0156   23.4522 C.3     1  UNL1        0.0372
      7 H         -13.5119  -19.7738   25.4062 H       1  UNL1        0.1233
      8 C         -10.3907  -18.1344   23.1566 C.ar    1  UNL1       -0.0205
      9 C          -9.8309  -19.4293   22.6470 C.ar    1  UNL1       -0.0033
     10 C          -8.3651  -19.5480   22.3513 C.ar    1  UNL1        0.0119
     11 C          -7.4592  -18.3719   22.5654 C.ar    1  UNL1        0.0682
     12 CL         -5.9934  -18.4906   22.2698 Cl      1  UNL1       -0.0814
     13 C          -8.0190  -17.0770   23.0751 C.ar    1  UNL1        0.0679
     14 CL         -7.1130  -15.9007   23.2891 Cl      1  UNL1       -0.0814
     15 C          -9.4848  -16.9582   23.3707 C.ar    1  UNL1        0.0080
     16 C         -11.7866  -16.5947   20.9277 C.3     1  UNL1        0.1426
     17 C         -10.7549  -18.5206   19.5219 C.3     1  UNL1        0.1741
     18 O         -11.7405  -17.3986   19.6622 O.3     1  UNL1       -0.3511
@<TRIPOS>BOND
     1    17    18    1
     2    18    16    1
     3     1    16    1
     4     1     2    1
     5     2     3    1
     6     3     4    1
     7     4     5    1
     8     5     6    1
     9     6     8    1
    10     8     9   ar
    11     9    10   ar
    12    10    11   ar
    13    11    12    1
    14    11    13   ar
    15    13    14    1
    16    13    15   ar
    17     6     1    1
    18    15     8   ar
    19     6     2    1
    20     4     7    1
@<TRIPOS>MOLECULE
*****
 18 20 0 0 0
SMALL
GASTEIGER

@<TRIPOS>ATOM
      1 C          -9.8448  -18.6635   22.3947 C.3     1  UNL1        0.0364
      2 C         -11.1690  -18.3361   21.7709 C.3     1  UNL1        0.0236
      3 C         -12.4448  -17.7252   21.2719 C.3     1  UNL1        0.0690
      4 N         -12.4898  -16.3002   21.7382 N.3     1  UNL1       -0.2972
      5 C         -11.2418  -16.0305   22.5255 C.3     1  UNL1        0.0727
      6 C         -10.4255  -17.2887   22.5457 C.3     1  UNL1        0.0372
      7 H         -13.3092  -16.1547   22.3279 H       1  UNL1        0.1233
      8 C          -9.2989  -16.7316   23.3645 C.ar    1  UNL1       -0.0205
      9 C          -8.1155  -16.1080   22.6859 C.ar    1  UNL1       -0.0033
     10 C          -6.9889  -15.5509   23.5047 C.ar    1  UNL1        0.0119
     11 C          -7.0457  -15.6174   25.0021 C.ar    1  UNL1        0.0682
     12 CL         -5.9191  -15.0603   25.8209 Cl      1  UNL1       -0.0814
     13 C          -8.2292  -16.2411   25.6807 C.ar    1  UNL1        0.0679
     14 CL         -8.2860  -16.3077   27.1782 Cl      1  UNL1       -0.0814
     15 C          -9.3558  -16.7982   24.8619 C.ar    1  UNL1        0.0080
     16 C          -8.7449  -19.6462   22.6677 C.3     1  UNL1        0.1426
     17 C         -10.0252  -20.5138   24.7553 C.3     1  UNL1        0.1741
     18 O          -8.8768  -20.6250   23.7967 O.3     1  UNL1       -0.3511
@<TRIPOS>BOND
     1    17    18    1
     2    18    16    1
     3     1    16    1
     4     1     2    1
     5     2     3    1
     6     3     4    1
     7     4     5    1
     8     5     6    1
     9     6     8    1
    10     8     9   ar
    11     9    10   ar
    12    10    11   ar
    13    11    12    1
    14    11    13   ar
    15    13    14    1
    16    13    15   ar
    17     6     1    1
    18    15     8   ar
    19     6     2    1
    20     4     7    1
@<TRIPOS>MOLECULE
*****
 18 20 0 0 0
SMALL
GASTEIGER

@<TRIPOS>ATOM
      1 C          -9.3691  -17.8560   24.2661 C.3     1  UNL1        0.0364
      2 C          -8.9168  -16.5153   24.7637 C.3     1  UNL1        0.0236
      3 C          -8.3708  -15.1328   24.9651 C.3     1  UNL1        0.0690
      4 N          -7.8281  -14.6530   23.6516 N.3     1  UNL1       -0.2972
      5 C          -8.0386  -15.7389   22.6385 C.3     1  UNL1        0.0727
      6 C          -8.7115  -16.8899   23.3258 C.3     1  UNL1        0.0372
      7 H          -6.8322  -14.4517   23.7413 H       1  UNL1        0.1233
      8 C          -8.7846  -17.7739   22.1162 C.ar    1  UNL1       -0.0205
      9 C         -10.0195  -17.7793   21.2647 C.ar    1  UNL1       -0.0033
     10 C         -10.0927  -18.6633   20.0551 C.ar    1  UNL1        0.0119
     11 C          -8.9309  -19.5418   19.6969 C.ar    1  UNL1        0.0682
     12 CL         -9.0040  -20.4258   18.4873 Cl      1  UNL1       -0.0814
     13 C          -7.6960  -19.5364   20.5483 C.ar    1  UNL1        0.0679
     14 CL         -6.5341  -20.4150   20.1901 Cl      1  UNL1       -0.0814
     15 C          -7.6229  -18.6524   21.7580 C.ar    1  UNL1        0.0080
     16 C         -10.0100  -19.1880   24.5216 C.3     1  UNL1        0.1426
     17 C         -12.3681  -18.2642   23.9423 C.3     1  UNL1        0.1741
     18 O         -11.4343  -19.4253   24.1155 O.3     1  UNL1       -0.3511
@<TRIPOS>BOND
     1    17    18    1
     2    18    16    1
     3     1    16    1
     4     1     2    1
     5     2     3    1
     6     3     4    1
     7     4     5    1
     8     5     6    1
     9     6     8    1
    10     8     9   ar
    11     9    10   ar
    12    10    11   ar
    13    11    12    1
    14    11    13   ar
    15    13    14    1
    16    13    15   ar
    17     6     1    1
    18    15     8   ar
    19     6     2    1
    20     4     7    1
@<TRIPOS>MOLECULE
*****
 18 20 0 0 0
SMALL
GASTEIGER

@<TRIPOS>ATOM
      1 C          -9.0798  -17.2727   25.1636 C.3     1  UNL1        0.0364
      2 C          -8.2210  -16.1272   25.6112 C.3     1  UNL1        0.0236
      3 C          -7.3102  -14.9437   25.7519 C.3     1  UNL1        0.0690
      4 N          -6.8821  -14.5224   24.3774 N.3     1  UNL1       -0.2972
      5 C          -7.5282  -15.4455   23.3872 C.3     1  UNL1        0.0727
      6 C          -8.3557  -16.4373   24.1498 C.3     1  UNL1        0.0372
      7 H          -5.8671  -14.5840   24.2969 H       1  UNL1        0.1233
      8 C          -8.8505  -17.1858   22.9477 C.ar    1  UNL1       -0.0205
      9 C          -7.9706  -18.2023   22.2825 C.ar    1  UNL1       -0.0033
     10 C          -8.4654  -18.9508   21.0804 C.ar    1  UNL1        0.0119
     11 C          -9.8401  -18.6827   20.5435 C.ar    1  UNL1        0.0682
     12 CL        -10.3349  -19.4311   19.3414 Cl      1  UNL1       -0.0814
     13 C         -10.7200  -17.6661   21.2086 C.ar    1  UNL1        0.0679
     14 CL        -12.0947  -17.3980   20.6717 Cl      1  UNL1       -0.0814
     15 C         -10.2252  -16.9176   22.4107 C.ar    1  UNL1        0.0080
     16 C          -9.9937  -18.4163   25.4905 C.3     1  UNL1        0.1426
     17 C         -10.2636  -20.5111   23.9776 C.3     1  UNL1        0.1741
     18 O          -9.5995  -19.8180   25.1303 O.3     1  UNL1       -0.3511
@<TRIPOS>BOND
     1    17    18    1
     2    18    16    1
     3     1    16    1
     4     1     2    1
     5     2     3    1
     6     3     4    1
     7     4     5    1
     8     5     6    1
     9     6     8    1
    10     8     9   ar
    11     9    10   ar
    12    10    11   ar
    13    11    12    1
    14    11    13   ar
    15    13    14    1
    16    13    15   ar
    17     6     1    1
    18    15     8   ar
    19     6     2    1
    20     4     7    1
@<TRIPOS>MOLECULE
*****
 18 20 0 0 0
SMALL
GASTEIGER

@<TRIPOS>ATOM
      1 C          -7.5386  -17.0717   22.7785 C.3     1  UNL1        0.0364
      2 C          -6.4556  -18.0447   22.4174 C.3     1  UNL1        0.0236
      3 C          -5.6044  -19.2288   22.0662 C.3     1  UNL1        0.0690
      4 N          -6.4864  -20.4418   22.0386 N.3     1  UNL1       -0.2972
      5 C          -7.8827  -20.0074   22.3727 C.3     1  UNL1        0.0727
      6 C          -7.8637  -18.5259   22.6068 C.3     1  UNL1        0.0372
      7 H          -6.1616  -21.1216   22.7261 H       1  UNL1        0.1233
      8 C          -9.3280  -18.3955   22.9049 C.ar    1  UNL1       -0.0205
      9 C          -9.8493  -18.7399   24.2685 C.ar    1  UNL1       -0.0033
     10 C         -11.3136  -18.6095   24.5667 C.ar    1  UNL1        0.0119
     11 C         -12.2565  -18.1346   23.5012 C.ar    1  UNL1        0.0682
     12 CL        -13.7208  -18.0042   23.7993 Cl      1  UNL1       -0.0814
     13 C         -11.7352  -17.7902   22.1375 C.ar    1  UNL1        0.0679
     14 CL        -12.6781  -17.3152   21.0720 Cl      1  UNL1       -0.0814
     15 C         -10.2709  -17.9206   21.8394 C.ar    1  UNL1        0.0080
     16 C          -7.9761  -15.6702   23.0862 C.3     1  UNL1        0.1426
     17 C          -8.4518  -15.5211   25.6360 C.3     1  UNL1        0.1741
     18 O          -7.6826  -15.0708   24.4295 O.3     1  UNL1       -0.3511
@<TRIPOS>BOND
     1    17    18    1
     2    18    16    1
     3     1    16    1
     4     1     2    1
     5     2     3    1
     6     3     4    1
     7     4     5    1
     8     5     6    1
     9     6     8    1
    10     8     9   ar
    11     9    10   ar
    12    10    11   ar
    13    11    12    1
    14    11    13   ar
    15    13    14    1
    16    13    15   ar
    17     6     1    1
    18    15     8   ar
    19     6     2    1
    20     4     7    1
@<TRIPOS>MOLECULE
*****
 18 20 0 0 0
SMALL
GASTEIGER

@<TRIPOS>ATOM
      1 C          -6.7381  -17.2659   22.8007 C.3     1  UNL1        0.0364
      2 C          -5.9263  -16.3541   23.6724 C.3     1  UNL1        0.0236
      3 C          -5.3941  -15.3290   24.6295 C.3     1  UNL1        0.0690
      4 N          -6.5620  -14.5966   25.2207 N.3     1  UNL1       -0.2972
      5 C          -7.8159  -15.1689   24.6290 C.3     1  UNL1        0.0727
      6 C          -7.4230  -16.2551   23.6720 C.3     1  UNL1        0.0372
      7 H          -6.4963  -13.6033   24.9981 H       1  UNL1        0.1233
      8 C          -8.8202  -16.6162   23.2624 C.ar    1  UNL1       -0.0205
      9 C          -9.3960  -16.0633   21.9925 C.ar    1  UNL1       -0.0033
     10 C         -10.7931  -16.4243   21.5829 C.ar    1  UNL1        0.0119
     11 C         -11.6143  -17.3382   22.4433 C.ar    1  UNL1        0.0682
     12 CL        -13.0114  -17.6992   22.0337 Cl      1  UNL1       -0.0814
     13 C         -11.0385  -17.8911   23.7132 C.ar    1  UNL1        0.0679
     14 CL        -11.8598  -18.8050   24.5737 Cl      1  UNL1       -0.0814
     15 C          -9.6414  -17.5300   24.1228 C.ar    1  UNL1        0.0080
     16 C          -6.8112  -18.3758   21.7944 C.3     1  UNL1        0.1426
     17 C          -5.4968  -20.2362   20.5449 C.3     1  UNL1        0.1741
     18 O          -5.5651  -18.8461   21.1046 O.3     1  UNL1       -0.3511
@<TRIPOS>BOND
     1    17    18    1
     2    18    16    1
     3     1    16    1
     4     1     2    1
     5     2     3    1
     6     3     4    1
     7     4     5    1
     8     5     6    1
     9     6     8    1
    10     8     9   ar
    11     9    10   ar
    12    10    11   ar
    13    11    12    1
    14    11    13   ar
    15    13    14    1
    16    13    15   ar
    17     6     1    1
    18    15     8   ar
    19     6     2    1
    20     4     7    1
@<TRIPOS>MOLECULE
*****
 18 20 0 0 0
SMALL
GASTEIGER

@<TRIPOS>ATOM
      1 C         -10.8326  -19.2238   22.5823 C.3     1  UNL1        0.0364
      2 C         -11.9680  -18.3201   22.2023 C.3     1  UNL1        0.0236
      3 C         -12.9096  -17.3234   21.5941 C.3     1  UNL1        0.0690
      4 N         -12.2198  -16.6890   20.4228 N.3     1  UNL1       -0.2972
      5 C         -10.8520  -17.2937   20.3072 C.3     1  UNL1        0.0727
      6 C         -10.6963  -18.3018   21.4069 C.3     1  UNL1        0.0372
      7 H         -12.1421  -15.6828   20.5703 H       1  UNL1        0.1233
      8 C          -9.3000  -18.7137   21.0456 C.ar    1  UNL1       -0.0205
      9 C          -9.0514  -19.5068   19.7969 C.ar    1  UNL1       -0.0033
     10 C          -7.6550  -19.9187   19.4356 C.ar    1  UNL1        0.0119
     11 C          -6.5074  -19.5376   20.3229 C.ar    1  UNL1        0.0682
     12 CL         -5.1110  -19.9495   19.9616 Cl      1  UNL1       -0.0814
     13 C          -6.7560  -18.7445   21.5716 C.ar    1  UNL1        0.0679
     14 CL         -5.6082  -18.3633   22.4590 Cl      1  UNL1       -0.0814
     15 C          -8.1523  -18.3325   21.9329 C.ar    1  UNL1        0.0080
     16 C         -10.2558  -20.2778   23.4802 C.3     1  UNL1        0.1426
     17 C          -9.8998  -18.5393   25.3778 C.3     1  UNL1        0.1741
     18 O          -9.6238  -19.8887   24.7837 O.3     1  UNL1       -0.3511
@<TRIPOS>BOND
     1    17    18    1
     2    18    16    1
     3     1    16    1
     4     1     2    1
     5     2     3    1
     6     3     4    1
     7     4     5    1
     8     5     6    1
     9     6     8    1
    10     8     9   ar
    11     9    10   ar
    12    10    11   ar
    13    11    12    1
    14    11    13   ar
    15    13    14    1
    16    13    15   ar
    17     6     1    1
    18    15     8   ar
    19     6     2    1
    20     4     7    1
@<TRIPOS>MOLECULE
*****
 18 20 0 0 0
SMALL
GASTEIGER

@<TRIPOS>ATOM
      1 C          -9.9942  -17.3284   22.6295 C.3     1  UNL1        0.0364
      2 C         -10.8404  -17.9835   23.6806 C.3     1  UNL1        0.0236
      3 C         -11.4789  -18.8722   24.7066 C.3     1  UNL1        0.0690
      4 N         -10.6623  -20.1265   24.8059 N.3     1  UNL1       -0.2972
      5 C          -9.5192  -20.0131   23.8414 C.3     1  UNL1        0.0727
      6 C          -9.6292  -18.6886   23.1459 C.3     1  UNL1        0.0372
      7 H         -11.2379  -20.9340   24.5671 H       1  UNL1        0.1233
      8 C          -8.4097  -18.8595   22.2893 C.ar    1  UNL1       -0.0205
      9 C          -8.5471  -19.3483   20.8779 C.ar    1  UNL1       -0.0033
     10 C          -7.3276  -19.5192   20.0213 C.ar    1  UNL1        0.0119
     11 C          -5.9709  -19.2013   20.5762 C.ar    1  UNL1        0.0682
     12 CL         -4.7514  -19.3722   19.7197 Cl      1  UNL1       -0.0814
     13 C          -5.8335  -18.7126   21.9877 C.ar    1  UNL1        0.0679
     14 CL         -4.4766  -18.3947   22.5427 Cl      1  UNL1       -0.0814
     15 C          -7.0529  -18.5417   22.8443 C.ar    1  UNL1        0.0080
     16 C          -9.7164  -16.1649   21.7245 C.3     1  UNL1        0.1426
     17 C         -11.3854  -17.1168   19.9757 C.3     1  UNL1        0.1741
     18 O         -10.3549  -16.1001   20.3687 O.3     1  UNL1       -0.3511
@<TRIPOS>BOND
     1    17    18    1
     2    18    16    1
     3     1    16    1
     4     1     2    1
     5     2     3    1
     6     3     4    1
     7     4     5    1
     8     5     6    1
     9     6     8    1
    10     8     9   ar
    11     9    10   ar
    12    10    11   ar
    13    11    12    1
    14    11    13   ar
    15    13    14    1
    16    13    15   ar
    17     6     1    1
    18    15     8   ar
    19     6     2    1
    20     4     7    1
