@<TRIPOS>MOLECULE
*****
 35 38 0 0 0
SMALL
GASTEIGER

@<TRIPOS>ATOM
      1 C           7.5657   -2.1864   22.6575 C.3     1  UNL1        0.0545
      2 C           6.5449   -1.2342   23.2063 C.3     1  UNL1        0.0157
      3 C           5.7637   -1.5978   24.4342 C.3     1  UNL1        0.0017
      4 C           6.0033   -2.9137   25.1131 C.3     1  UNL1        0.0044
      5 C           7.0242   -3.8660   24.5642 C.3     1  UNL1        0.0237
      6 C           7.8053   -3.5023   23.3364 C.3     1  UNL1        0.0201
      7 C           7.2638   -5.1819   25.2432 C.ar    1  UNL1       -0.0225
      8 C           6.8782   -5.3650   26.6812 C.ar    1  UNL1       -0.0041
      9 C           7.1179   -6.6810   27.3601 C.ar    1  UNL1        0.0042
     10 C           7.7430   -7.8137   26.6011 C.ar    1  UNL1        0.0533
     11 C           8.1285   -7.6305   25.1631 C.ar    1  UNL1        0.0042
     12 C           7.8889   -6.3146   24.4842 C.ar    1  UNL1       -0.0041
     13 C           7.9826   -9.1296   27.2801 C.2     1  UNL1        0.2459
     14 O           9.3715   -9.5194   27.6913 O.2     1  UNL1       -0.2701
     15 N           6.8334  -10.0556   27.5478 N.am    1  UNL1       -0.3005
     16 H           5.9218   -9.7998   27.2779 H       1  UNL1        0.1498
     17 C           7.0731  -11.3716   28.2268 C.3     1  UNL1        0.0956
     18 C           5.9123  -12.1828   28.7212 C.3     1  UNL1        0.0629
     19 C           5.3202  -13.2522   27.8520 C.2     1  UNL1        0.0520
     20 O           5.6368  -13.2880   26.3862 O.co2   1  UNL1       -0.5491
     21 O           4.4116  -14.2860   28.4485 O.co2   1  UNL1       -0.5491
     22 N           8.3468   -1.8227   21.4296 N.3     1  UNL1       -0.2962
     23 H           8.3674   -0.8039   21.3847 H       1  UNL1        0.1235
     24 C           8.8983   -2.5159   18.9872 C.3     1  UNL1        0.0220
     25 C           7.8959   -2.3065   20.0832 C.3     1  UNL1        0.0768
     26 C           6.4426   -2.5809   19.8329 C.ar    1  UNL1       -0.0080
     27 C           5.8851   -3.9517   20.0779 C.ar    1  UNL1       -0.0030
     28 C           4.4318   -4.2260   19.8276 C.ar    1  UNL1       -0.0003
     29 C           3.5360   -3.1296   19.3324 C.ar    1  UNL1       -0.0000
     30 C           4.0935   -1.7587   19.0874 C.ar    1  UNL1       -0.0003
     31 C           3.1977   -0.6623   18.5921 C.ar    1  UNL1       -0.0000
     32 C           3.7552    0.7085   18.3471 C.ar    1  UNL1       -0.0000
     33 C           5.2085    0.9829   18.5974 C.ar    1  UNL1       -0.0000
     34 C           6.1043   -0.1136   19.0927 C.ar    1  UNL1       -0.0003
     35 C           5.5468   -1.4843   19.3377 C.ar    1  UNL1       -0.0027
@<TRIPOS>UNITY_ATOM_ATTR
20 1
charge -1
@<TRIPOS>BOND
     1    25    24    1
     2    25    22    1
     3     1    22    1
     4     1     2    1
     5     2     3    1
     6     3     4    1
     7     4     5    1
     8     5     7    1
     9     7     8   ar
    10     8     9   ar
    11     9    10   ar
    12    10    13    1
    13    13    14    2
    14    13    15   am
    15    15    17    1
    16    17    18    1
    17    18    19    1
    18    19    20   ar
    19    19    21   ar
    20    10    11   ar
    21    11    12   ar
    22     5     6    1
    23    25    26    1
    24    26    27   ar
    25    27    28   ar
    26    28    29   ar
    27    29    30   ar
    28    30    31   ar
    29    31    32   ar
    30    32    33   ar
    31    33    34   ar
    32    34    35   ar
    33     6     1    1
    34    35    26   ar
    35    12     7   ar
    36    35    30   ar
    37    22    23    1
    38    15    16    1
@<TRIPOS>MOLECULE
*****
 35 38 0 0 0
SMALL
GASTEIGER

@<TRIPOS>ATOM
      1 C           6.5778   -2.7100   19.3310 C.3     1  UNL1        0.0545
      2 C           7.8539   -2.3110   18.6509 C.3     1  UNL1        0.0157
      3 C           9.1736   -2.7339   19.2249 C.3     1  UNL1        0.0017
      4 C           9.2173   -3.5557   20.4790 C.3     1  UNL1        0.0044
      5 C           7.9412   -3.9547   21.1591 C.3     1  UNL1        0.0237
      6 C           6.6215   -3.5318   20.5851 C.3     1  UNL1        0.0201
      7 C           7.9849   -4.7765   22.4131 C.ar    1  UNL1       -0.0225
      8 C           7.2550   -4.3135   23.6391 C.ar    1  UNL1       -0.0041
      9 C           7.2988   -5.1354   24.8931 C.ar    1  UNL1        0.0042
     10 C           8.0723   -6.4202   24.9212 C.ar    1  UNL1        0.0533
     11 C           8.8022   -6.8832   23.6953 C.ar    1  UNL1        0.0042
     12 C           8.7585   -6.0614   22.4413 C.ar    1  UNL1       -0.0041
     13 C           8.1160   -7.2420   26.1753 C.2     1  UNL1        0.2459
     14 O           7.2350   -8.4483   26.3126 O.2     1  UNL1       -0.2701
     15 N           9.0407   -6.8576   27.2921 N.am    1  UNL1       -0.3005
     16 H           9.6189   -6.0659   27.2020 H       1  UNL1        0.1498
     17 C           9.0844   -7.6795   28.5462 C.3     1  UNL1        0.0956
     18 C           8.9515   -7.0141   29.8839 C.3     1  UNL1        0.0629
     19 C           7.8887   -5.9789   30.1044 C.2     1  UNL1        0.0520
     20 O           7.8195   -4.7737   29.2142 O.co2   1  UNL1       -0.5491
     21 O           6.8950   -6.1490   31.2152 O.co2   1  UNL1       -0.5491
     22 N           5.2581   -2.2871   18.7569 N.3     1  UNL1       -0.2962
     23 H           5.2714   -1.2684   18.7075 H       1  UNL1        0.1235
     24 C           3.5019   -4.0907   19.3997 C.3     1  UNL1        0.0220
     25 C           3.9826   -2.6706   19.4471 C.3     1  UNL1        0.0768
     26 C           3.1879   -1.6340   20.1845 C.ar    1  UNL1       -0.0080
     27 C           2.2171   -0.7646   19.4418 C.ar    1  UNL1       -0.0030
     28 C           1.4224    0.2720   20.1792 C.ar    1  UNL1       -0.0003
     29 C           1.5985    0.4393   21.6594 C.ar    1  UNL1       -0.0000
     30 C           2.5694   -0.4300   22.4022 C.ar    1  UNL1       -0.0003
     31 C           2.7456   -0.2627   23.8823 C.ar    1  UNL1       -0.0000
     32 C           3.7165   -1.1320   24.6251 C.ar    1  UNL1       -0.0000
     33 C           4.5112   -2.1686   23.8876 C.ar    1  UNL1       -0.0000
     34 C           4.3350   -2.3359   22.4075 C.ar    1  UNL1       -0.0003
     35 C           3.3641   -1.4666   21.6647 C.ar    1  UNL1       -0.0027
@<TRIPOS>UNITY_ATOM_ATTR
20 1
charge -1
@<TRIPOS>BOND
     1    25    24    1
     2    25    22    1
     3     1    22    1
     4     1     2    1
     5     2     3    1
     6     3     4    1
     7     4     5    1
     8     5     7    1
     9     7     8   ar
    10     8     9   ar
    11     9    10   ar
    12    10    13    1
    13    13    14    2
    14    13    15   am
    15    15    17    1
    16    17    18    1
    17    18    19    1
    18    19    20   ar
    19    19    21   ar
    20    10    11   ar
    21    11    12   ar
    22     5     6    1
    23    25    26    1
    24    26    27   ar
    25    27    28   ar
    26    28    29   ar
    27    29    30   ar
    28    30    31   ar
    29    31    32   ar
    30    32    33   ar
    31    33    34   ar
    32    34    35   ar
    33     6     1    1
    34    35    26   ar
    35    12     7   ar
    36    35    30   ar
    37    22    23    1
    38    15    16    1
@<TRIPOS>MOLECULE
*****
 35 38 0 0 0
SMALL
GASTEIGER

@<TRIPOS>ATOM
      1 C           7.7039   -6.0903   24.3950 C.3     1  UNL1        0.0545
      2 C           8.3365   -7.4468   24.4934 C.3     1  UNL1        0.0157
      3 C           8.6192   -8.0467   25.8388 C.3     1  UNL1        0.0017
      4 C           8.2693   -7.2902   27.0858 C.3     1  UNL1        0.0044
      5 C           7.6367   -5.9336   26.9875 C.3     1  UNL1        0.0237
      6 C           7.3541   -5.3336   25.6421 C.3     1  UNL1        0.0201
      7 C           7.2869   -5.1770   28.2345 C.ar    1  UNL1       -0.0225
      8 C           7.2966   -5.8744   29.5625 C.ar    1  UNL1       -0.0041
      9 C           6.9468   -5.1178   30.8096 C.ar    1  UNL1        0.0042
     10 C           6.5872   -3.6638   30.7287 C.ar    1  UNL1        0.0533
     11 C           6.5774   -2.9664   29.4007 C.ar    1  UNL1        0.0042
     12 C           6.9273   -3.7229   28.1537 C.ar    1  UNL1       -0.0041
     13 C           6.2373   -2.9072   31.9757 C.2     1  UNL1        0.2459
     14 O           7.2991   -2.1488   32.7156 O.2     1  UNL1       -0.2701
     15 N           4.8257   -2.9091   32.4829 N.am    1  UNL1       -0.3005
     16 H           4.1288   -3.4068   31.9974 H       1  UNL1        0.1498
     17 C           4.4758   -2.1524   33.7301 C.3     1  UNL1        0.0956
     18 C           4.0319   -0.7225   33.6401 C.3     1  UNL1        0.0629
     19 C           3.5461   -0.1688   32.3334 C.2     1  UNL1        0.0520
     20 O           2.6949   -1.0125   31.4314 O.co2   1  UNL1       -0.5491
     21 O           3.9117    1.2285   31.9286 O.co2   1  UNL1       -0.5491
     22 N           7.4213   -5.4903   23.0496 N.3     1  UNL1       -0.2962
     23 H           8.1067   -5.8809   22.4031 H       1  UNL1        0.1235
     24 C           8.7719   -3.2885   22.7701 C.3     1  UNL1        0.0220
     25 C           7.4559   -4.0015   22.8700 C.3     1  UNL1        0.0768
     26 C           6.1746   -3.2256   22.7904 C.ar    1  UNL1       -0.0080
     27 C           5.6295   -2.5503   24.0138 C.ar    1  UNL1       -0.0030
     28 C           4.3482   -1.7745   23.9341 C.ar    1  UNL1       -0.0003
     29 C           3.6121   -1.6739   22.6311 C.ar    1  UNL1       -0.0000
     30 C           4.1572   -2.3492   21.4076 C.ar    1  UNL1       -0.0003
     31 C           3.4211   -2.2486   20.1046 C.ar    1  UNL1       -0.0000
     32 C           3.9662   -2.9239   18.8812 C.ar    1  UNL1       -0.0000
     33 C           5.2475   -3.6998   18.9608 C.ar    1  UNL1       -0.0000
     34 C           5.9837   -3.8003   20.2639 C.ar    1  UNL1       -0.0003
     35 C           5.4385   -3.1251   21.4873 C.ar    1  UNL1       -0.0027
@<TRIPOS>UNITY_ATOM_ATTR
20 1
charge -1
@<TRIPOS>BOND
     1    25    24    1
     2    25    22    1
     3     1    22    1
     4     1     2    1
     5     2     3    1
     6     3     4    1
     7     4     5    1
     8     5     7    1
     9     7     8   ar
    10     8     9   ar
    11     9    10   ar
    12    10    13    1
    13    13    14    2
    14    13    15   am
    15    15    17    1
    16    17    18    1
    17    18    19    1
    18    19    20   ar
    19    19    21   ar
    20    10    11   ar
    21    11    12   ar
    22     5     6    1
    23    25    26    1
    24    26    27   ar
    25    27    28   ar
    26    28    29   ar
    27    29    30   ar
    28    30    31   ar
    29    31    32   ar
    30    32    33   ar
    31    33    34   ar
    32    34    35   ar
    33     6     1    1
    34    35    26   ar
    35    12     7   ar
    36    35    30   ar
    37    22    23    1
    38    15    16    1
@<TRIPOS>MOLECULE
*****
 35 38 0 0 0
SMALL
GASTEIGER

@<TRIPOS>ATOM
      1 C           3.7355   -1.2770   18.4333 C.3     1  UNL1        0.0545
      2 C           4.2367   -0.1300   17.6069 C.3     1  UNL1        0.0157
      3 C           4.0251    1.2797   18.0740 C.3     1  UNL1        0.0017
      4 C           3.3124    1.5423   19.3674 C.3     1  UNL1        0.0044
      5 C           2.8112    0.3951   20.1939 C.3     1  UNL1        0.0237
      6 C           3.0227   -1.0145   19.7268 C.3     1  UNL1        0.0201
      7 C           2.0985    0.6577   21.4874 C.ar    1  UNL1       -0.0225
      8 C           0.8664    1.5131   21.5046 C.ar    1  UNL1       -0.0041
      9 C           0.1537    1.7757   22.7981 C.ar    1  UNL1        0.0042
     10 C           0.6730    1.1828   24.0743 C.ar    1  UNL1        0.0533
     11 C           1.9051    0.3274   24.0571 C.ar    1  UNL1        0.0042
     12 C           2.6178    0.0649   22.7637 C.ar    1  UNL1       -0.0041
     13 C          -0.0397    1.4454   25.3678 C.2     1  UNL1        0.2459
     14 O          -1.1606    2.4410   25.4178 O.2     1  UNL1       -0.2701
     15 N           0.3685    0.7125   26.6113 N.am    1  UNL1       -0.3005
     16 H           1.1042    0.0591   26.5784 H       1  UNL1        0.1498
     17 C          -0.3443    0.9751   27.9047 C.3     1  UNL1        0.0956
     18 C          -0.0058    0.1702   29.1244 C.3     1  UNL1        0.0629
     19 C           1.4117   -0.2510   29.3755 C.2     1  UNL1        0.0520
     20 O           1.9817   -0.1774   30.7610 O.co2   1  UNL1       -0.5491
     21 O           2.2593   -0.7457   28.2411 O.co2   1  UNL1       -0.5491
     22 N           3.9470   -2.6867   17.9663 N.3     1  UNL1       -0.2962
     23 H           3.0341   -3.1415   17.9799 H       1  UNL1        0.1235
     24 C           4.6616   -5.0704   18.7129 C.3     1  UNL1        0.0220
     25 C           4.8910   -3.5881   18.7056 C.3     1  UNL1        0.0768
     26 C           6.0642   -3.0070   19.4376 C.ar    1  UNL1       -0.0080
     27 C           7.2752   -2.5564   18.6757 C.ar    1  UNL1       -0.0030
     28 C           8.4485   -1.9754   19.4077 C.ar    1  UNL1       -0.0003
     29 C           8.4108   -1.8450   20.9015 C.ar    1  UNL1       -0.0000
     30 C           7.1998   -2.2957   21.6635 C.ar    1  UNL1       -0.0003
     31 C           7.1621   -2.1653   23.1573 C.ar    1  UNL1       -0.0000
     32 C           5.9511   -2.6159   23.9191 C.ar    1  UNL1       -0.0000
     33 C           4.7779   -3.1969   23.1871 C.ar    1  UNL1       -0.0000
     34 C           4.8155   -3.3273   21.6933 C.ar    1  UNL1       -0.0003
     35 C           6.0265   -2.8767   20.9315 C.ar    1  UNL1       -0.0027
@<TRIPOS>UNITY_ATOM_ATTR
20 1
charge -1
@<TRIPOS>BOND
     1    25    24    1
     2    25    22    1
     3     1    22    1
     4     1     2    1
     5     2     3    1
     6     3     4    1
     7     4     5    1
     8     5     7    1
     9     7     8   ar
    10     8     9   ar
    11     9    10   ar
    12    10    13    1
    13    13    14    2
    14    13    15   am
    15    15    17    1
    16    17    18    1
    17    18    19    1
    18    19    20   ar
    19    19    21   ar
    20    10    11   ar
    21    11    12   ar
    22     5     6    1
    23    25    26    1
    24    26    27   ar
    25    27    28   ar
    26    28    29   ar
    27    29    30   ar
    28    30    31   ar
    29    31    32   ar
    30    32    33   ar
    31    33    34   ar
    32    34    35   ar
    33     6     1    1
    34    35    26   ar
    35    12     7   ar
    36    35    30   ar
    37    22    23    1
    38    15    16    1
@<TRIPOS>MOLECULE
*****
 35 38 0 0 0
SMALL
GASTEIGER

@<TRIPOS>ATOM
      1 C           4.6366   -3.2802   21.8018 C.3     1  UNL1        0.0545
      2 C           4.9818   -4.2634   20.7228 C.3     1  UNL1        0.0157
      3 C           4.4651   -4.0599   19.3294 C.3     1  UNL1        0.0017
      4 C           3.6032   -2.8733   19.0149 C.3     1  UNL1        0.0044
      5 C           3.2580   -1.8900   20.0939 C.3     1  UNL1        0.0237
      6 C           3.7747   -2.0935   21.4873 C.3     1  UNL1        0.0201
      7 C           2.3961   -0.7034   19.7794 C.ar    1  UNL1       -0.0225
      8 C           2.8323    0.2860   18.7398 C.ar    1  UNL1       -0.0041
      9 C           1.9704    1.4727   18.4253 C.ar    1  UNL1        0.0042
     10 C           0.6722    1.6700   19.1505 C.ar    1  UNL1        0.0533
     11 C           0.2360    0.6806   20.1901 C.ar    1  UNL1        0.0042
     12 C           1.0979   -0.5060   20.5046 C.ar    1  UNL1       -0.0041
     13 C          -0.1897    2.8566   18.8360 C.2     1  UNL1        0.2459
     14 O          -0.3710    3.2959   17.4132 O.2     1  UNL1       -0.2701
     15 N          -0.8702    3.6041   19.9442 N.am    1  UNL1       -0.3005
     16 H          -0.7512    3.3158   20.8780 H       1  UNL1        0.1498
     17 C          -1.7322    4.7908   19.6297 C.3     1  UNL1        0.0956
     18 C          -3.1280    4.5895   19.1187 C.3     1  UNL1        0.0629
     19 C          -4.0200    3.5662   19.7568 C.2     1  UNL1        0.0520
     20 O          -3.5397    2.7909   20.9477 O.co2   1  UNL1       -0.5491
     21 O          -5.3922    3.3182   19.2041 O.co2   1  UNL1       -0.5491
     22 N           5.1533   -3.4837   23.1952 N.3     1  UNL1       -0.2962
     23 H           4.7255   -2.7626   23.7761 H       1  UNL1        0.1235
     24 C           7.2849   -2.1352   23.8181 C.3     1  UNL1        0.0220
     25 C           6.6286   -3.4363   23.4624 C.3     1  UNL1        0.0768
     26 C           7.4475   -4.6899   23.3740 C.ar    1  UNL1       -0.0080
     27 C           8.1997   -5.0072   22.1157 C.ar    1  UNL1       -0.0030
     28 C           9.0186   -6.2608   22.0273 C.ar    1  UNL1       -0.0003
     29 C           9.0853   -7.1972   23.1972 C.ar    1  UNL1       -0.0000
     30 C           8.3331   -6.8799   24.4556 C.ar    1  UNL1       -0.0003
     31 C           8.3997   -7.8163   25.6255 C.ar    1  UNL1       -0.0000
     32 C           7.6475   -7.4990   26.8838 C.ar    1  UNL1       -0.0000
     33 C           6.8286   -6.2454   26.9722 C.ar    1  UNL1       -0.0000
     34 C           6.7619   -5.3090   25.8023 C.ar    1  UNL1       -0.0003
     35 C           7.5142   -5.6263   24.5440 C.ar    1  UNL1       -0.0027
@<TRIPOS>UNITY_ATOM_ATTR
20 1
charge -1
@<TRIPOS>BOND
     1    25    24    1
     2    25    22    1
     3     1    22    1
     4     1     2    1
     5     2     3    1
     6     3     4    1
     7     4     5    1
     8     5     7    1
     9     7     8   ar
    10     8     9   ar
    11     9    10   ar
    12    10    13    1
    13    13    14    2
    14    13    15   am
    15    15    17    1
    16    17    18    1
    17    18    19    1
    18    19    20   ar
    19    19    21   ar
    20    10    11   ar
    21    11    12   ar
    22     5     6    1
    23    25    26    1
    24    26    27   ar
    25    27    28   ar
    26    28    29   ar
    27    29    30   ar
    28    30    31   ar
    29    31    32   ar
    30    32    33   ar
    31    33    34   ar
    32    34    35   ar
    33     6     1    1
    34    35    26   ar
    35    12     7   ar
    36    35    30   ar
    37    22    23    1
    38    15    16    1
@<TRIPOS>MOLECULE
*****
 35 38 0 0 0
SMALL
GASTEIGER

@<TRIPOS>ATOM
      1 C           4.5584   -0.8314   17.6640 C.3     1  UNL1        0.0545
      2 C           5.6937    0.0835   17.3124 C.3     1  UNL1        0.0157
      3 C           5.5505    1.5644   17.5037 C.3     1  UNL1        0.0017
      4 C           4.2719    2.1302   18.0467 C.3     1  UNL1        0.0044
      5 C           3.1364    1.2152   18.3984 C.3     1  UNL1        0.0237
      6 C           3.2797   -0.2656   18.2071 C.3     1  UNL1        0.0201
      7 C           1.8578    1.7811   18.9414 C.ar    1  UNL1       -0.0225
      8 C           1.3940    3.1394   18.5057 C.ar    1  UNL1       -0.0041
      9 C           0.1153    3.7053   19.0488 C.ar    1  UNL1        0.0042
     10 C          -0.6995    2.9128   20.0275 C.ar    1  UNL1        0.0533
     11 C          -0.2358    1.5544   20.4632 C.ar    1  UNL1        0.0042
     12 C           1.0428    0.9886   19.9202 C.ar    1  UNL1       -0.0041
     13 C          -1.9781    3.4786   20.5705 C.2     1  UNL1        0.2459
     14 O          -1.9975    4.8581   21.1593 O.2     1  UNL1       -0.2701
     15 N          -3.2375    2.6650   20.5247 N.am    1  UNL1       -0.3005
     16 H          -3.2249    1.7596   20.1382 H       1  UNL1        0.1498
     17 C          -4.5162    3.2309   21.0677 C.3     1  UNL1        0.0956
     18 C          -5.3632    4.1258   20.2123 C.3     1  UNL1        0.0629
     19 C          -5.8124    3.6632   18.8580 C.2     1  UNL1        0.0520
     20 O          -7.2760    3.5913   18.5374 O.co2   1  UNL1       -0.5491
     21 O          -4.7981    3.2726   17.8244 O.co2   1  UNL1       -0.5491
     22 N           4.7016   -2.3123   17.4727 N.3     1  UNL1       -0.2962
     23 H           3.8175   -2.6465   17.0892 H       1  UNL1        0.1235
     24 C           4.4543   -4.5765   18.7226 C.3     1  UNL1        0.0220
     25 C           5.0258   -3.1919   18.6437 C.3     1  UNL1        0.0768
     26 C           5.9216   -2.6869   19.7357 C.ar    1  UNL1       -0.0080
     27 C           7.4111   -2.7918   19.5926 C.ar    1  UNL1       -0.0030
     28 C           8.3068   -2.2868   20.6847 C.ar    1  UNL1       -0.0003
     29 C           7.7132   -1.6770   21.9198 C.ar    1  UNL1       -0.0000
     30 C           6.2236   -1.5721   22.0630 C.ar    1  UNL1       -0.0003
     31 C           5.6300   -0.9623   23.2981 C.ar    1  UNL1       -0.0000
     32 C           4.1405   -0.8575   23.4413 C.ar    1  UNL1       -0.0000
     33 C           3.2448   -1.3625   22.3492 C.ar    1  UNL1       -0.0000
     34 C           3.8384   -1.9723   21.1140 C.ar    1  UNL1       -0.0003
     35 C           5.3279   -2.0771   20.9709 C.ar    1  UNL1       -0.0027
@<TRIPOS>UNITY_ATOM_ATTR
20 1
charge -1
@<TRIPOS>BOND
     1    25    24    1
     2    25    22    1
     3     1    22    1
     4     1     2    1
     5     2     3    1
     6     3     4    1
     7     4     5    1
     8     5     7    1
     9     7     8   ar
    10     8     9   ar
    11     9    10   ar
    12    10    13    1
    13    13    14    2
    14    13    15   am
    15    15    17    1
    16    17    18    1
    17    18    19    1
    18    19    20   ar
    19    19    21   ar
    20    10    11   ar
    21    11    12   ar
    22     5     6    1
    23    25    26    1
    24    26    27   ar
    25    27    28   ar
    26    28    29   ar
    27    29    30   ar
    28    30    31   ar
    29    31    32   ar
    30    32    33   ar
    31    33    34   ar
    32    34    35   ar
    33     6     1    1
    34    35    26   ar
    35    12     7   ar
    36    35    30   ar
    37    22    23    1
    38    15    16    1
@<TRIPOS>MOLECULE
*****
 35 38 0 0 0
SMALL
GASTEIGER

@<TRIPOS>ATOM
      1 C           4.3353   -3.0652   22.1668 C.3     1  UNL1        0.0545
      2 C           4.9548   -2.7858   23.5040 C.3     1  UNL1        0.0157
      3 C           4.5542   -1.5633   24.2755 C.3     1  UNL1        0.0017
      4 C           3.5341   -0.6203   23.7098 C.3     1  UNL1        0.0044
      5 C           2.9145   -0.8997   22.3726 C.3     1  UNL1        0.0237
      6 C           3.3151   -2.1222   21.6011 C.3     1  UNL1        0.0201
      7 C           1.8944    0.0433   21.8069 C.ar    1  UNL1       -0.0225
      8 C           1.4200   -0.1246   20.3938 C.ar    1  UNL1       -0.0041
      9 C           0.3998    0.8184   19.8282 C.ar    1  UNL1        0.0042
     10 C          -0.1459    1.9293   20.6755 C.ar    1  UNL1        0.0533
     11 C           0.3285    2.0972   22.0886 C.ar    1  UNL1        0.0042
     12 C           1.3487    1.1542   22.6543 C.ar    1  UNL1       -0.0041
     13 C          -1.1660    2.8723   20.1098 C.2     1  UNL1        0.2459
     14 O          -0.7687    3.8630   19.0559 O.2     1  UNL1       -0.2701
     15 N          -2.5836    2.8247   20.5980 N.am    1  UNL1       -0.3005
     16 H          -2.8444    2.1745   21.2898 H       1  UNL1        0.1498
     17 C          -3.6037    3.7678   20.0323 C.3     1  UNL1        0.0956
     18 C          -5.0566    3.5839   20.3571 C.3     1  UNL1        0.0629
     19 C          -5.5119    3.5879   21.7862 C.2     1  UNL1        0.0520
     20 O          -6.7370    4.3583   22.1809 O.co2   1  UNL1       -0.5491
     21 O          -4.7423    2.8215   22.8208 O.co2   1  UNL1       -0.5491
     22 N           4.7359   -4.2876   21.3954 N.3     1  UNL1       -0.2962
     23 H           5.5115   -4.7145   21.9020 H       1  UNL1        0.1235
     24 C           4.6117   -5.0925   18.9282 C.3     1  UNL1        0.0220
     25 C           5.1697   -4.1629   19.9648 C.3     1  UNL1        0.0768
     26 C           6.1613   -3.1087   19.5709 C.ar    1  UNL1       -0.0080
     27 C           7.5620   -3.1596   20.1051 C.ar    1  UNL1       -0.0030
     28 C           8.5537   -2.1053   19.7113 C.ar    1  UNL1       -0.0003
     29 C           8.1447   -1.0002   18.7832 C.ar    1  UNL1       -0.0000
     30 C           6.7440   -0.9493   18.2489 C.ar    1  UNL1       -0.0003
     31 C           6.3349    0.1558   17.3209 C.ar    1  UNL1       -0.0000
     32 C           4.9343    0.2067   16.7866 C.ar    1  UNL1       -0.0000
     33 C           3.9426   -0.8475   17.1805 C.ar    1  UNL1       -0.0000
     34 C           4.3516   -1.9527   18.1086 C.ar    1  UNL1       -0.0003
     35 C           5.7523   -2.0035   18.6428 C.ar    1  UNL1       -0.0027
@<TRIPOS>UNITY_ATOM_ATTR
20 1
charge -1
@<TRIPOS>BOND
     1    25    24    1
     2    25    22    1
     3     1    22    1
     4     1     2    1
     5     2     3    1
     6     3     4    1
     7     4     5    1
     8     5     7    1
     9     7     8   ar
    10     8     9   ar
    11     9    10   ar
    12    10    13    1
    13    13    14    2
    14    13    15   am
    15    15    17    1
    16    17    18    1
    17    18    19    1
    18    19    20   ar
    19    19    21   ar
    20    10    11   ar
    21    11    12   ar
    22     5     6    1
    23    25    26    1
    24    26    27   ar
    25    27    28   ar
    26    28    29   ar
    27    29    30   ar
    28    30    31   ar
    29    31    32   ar
    30    32    33   ar
    31    33    34   ar
    32    34    35   ar
    33     6     1    1
    34    35    26   ar
    35    12     7   ar
    36    35    30   ar
    37    22    23    1
    38    15    16    1
@<TRIPOS>MOLECULE
*****
 35 38 0 0 0
SMALL
GASTEIGER

@<TRIPOS>ATOM
      1 C           4.4244   -0.7607   17.7182 C.3     1  UNL1        0.0545
      2 C           5.5971    0.1329   17.4423 C.3     1  UNL1        0.0157
      3 C           5.4810    1.6121   17.6621 C.3     1  UNL1        0.0017
      4 C           4.1921    2.1978   18.1576 C.3     1  UNL1        0.0044
      5 C           3.0192    1.3042   18.4335 C.3     1  UNL1        0.0237
      6 C           3.1354   -0.1750   18.2138 C.3     1  UNL1        0.0201
      7 C           1.7303    1.8900   18.9291 C.ar    1  UNL1       -0.0225
      8 C           0.9889    1.2284   20.0527 C.ar    1  UNL1       -0.0041
      9 C          -0.3001    1.8142   20.5483 C.ar    1  UNL1        0.0042
     10 C          -0.8475    3.0614   19.9202 C.ar    1  UNL1        0.0533
     11 C          -0.1061    3.7230   18.7965 C.ar    1  UNL1        0.0042
     12 C           1.1828    3.1373   18.3009 C.ar    1  UNL1       -0.0041
     13 C          -2.1365    3.6471   20.4157 C.2     1  UNL1        0.2459
     14 O          -2.3063    5.1360   20.4844 O.2     1  UNL1       -0.2701
     15 N          -3.2555    2.7441   20.8426 N.am    1  UNL1       -0.3005
     16 H          -3.1440    1.7670   20.7975 H       1  UNL1        0.1498
     17 C          -4.5445    3.3299   21.3382 C.3     1  UNL1        0.0956
     18 C          -5.0805    2.9340   22.6821 C.3     1  UNL1        0.0629
     19 C          -4.3367    3.3143   23.9279 C.2     1  UNL1        0.0520
     20 O          -2.8747    3.6420   23.8579 O.co2   1  UNL1       -0.5491
     21 O          -5.0550    3.3669   25.2437 O.co2   1  UNL1       -0.5491
     22 N           4.5405   -2.2400   17.4984 N.3     1  UNL1       -0.2962
     23 H           3.6285   -2.5621   17.1746 H       1  UNL1        0.1235
     24 C           4.4357   -4.5496   18.6837 C.3     1  UNL1        0.0220
     25 C           4.9392   -3.1376   18.6322 C.3     1  UNL1        0.0768
     26 C           5.8415   -2.6231   19.7145 C.ar    1  UNL1       -0.0080
     27 C           7.3302   -2.7197   19.5588 C.ar    1  UNL1       -0.0030
     28 C           8.2324   -2.2052   20.6410 C.ar    1  UNL1       -0.0003
     29 C           7.6459   -1.5942   21.8790 C.ar    1  UNL1       -0.0000
     30 C           6.1571   -1.4976   22.0348 C.ar    1  UNL1       -0.0003
     31 C           5.5706   -0.8865   23.2727 C.ar    1  UNL1       -0.0000
     32 C           4.0819   -0.7899   23.4284 C.ar    1  UNL1       -0.0000
     33 C           3.1797   -1.3044   22.3461 C.ar    1  UNL1       -0.0000
     34 C           3.7662   -1.9155   21.1082 C.ar    1  UNL1       -0.0003
     35 C           5.2549   -2.0120   20.9525 C.ar    1  UNL1       -0.0027
@<TRIPOS>UNITY_ATOM_ATTR
20 1
charge -1
@<TRIPOS>BOND
     1    25    24    1
     2    25    22    1
     3     1    22    1
     4     1     2    1
     5     2     3    1
     6     3     4    1
     7     4     5    1
     8     5     7    1
     9     7     8   ar
    10     8     9   ar
    11     9    10   ar
    12    10    13    1
    13    13    14    2
    14    13    15   am
    15    15    17    1
    16    17    18    1
    17    18    19    1
    18    19    20   ar
    19    19    21   ar
    20    10    11   ar
    21    11    12   ar
    22     5     6    1
    23    25    26    1
    24    26    27   ar
    25    27    28   ar
    26    28    29   ar
    27    29    30   ar
    28    30    31   ar
    29    31    32   ar
    30    32    33   ar
    31    33    34   ar
    32    34    35   ar
    33     6     1    1
    34    35    26   ar
    35    12     7   ar
    36    35    30   ar
    37    22    23    1
    38    15    16    1
@<TRIPOS>MOLECULE
*****
 35 38 0 0 0
SMALL
GASTEIGER

@<TRIPOS>ATOM
      1 C           5.3809   -3.6746   21.8381 C.3     1  UNL1        0.0545
      2 C           6.6289   -3.9641   21.0580 C.3     1  UNL1        0.0157
      3 C           7.8973   -4.3178   21.7762 C.3     1  UNL1        0.0017
      4 C           7.9178   -4.3821   23.2747 C.3     1  UNL1        0.0044
      5 C           6.6698   -4.0926   24.0549 C.3     1  UNL1        0.0237
      6 C           5.4014   -3.7388   23.3367 C.3     1  UNL1        0.0201
      7 C           6.6903   -4.1568   25.5534 C.ar    1  UNL1       -0.0225
      8 C           6.8599   -5.4769   26.2453 C.ar    1  UNL1       -0.0041
      9 C           6.8804   -5.5411   27.7438 C.ar    1  UNL1        0.0042
     10 C           6.7313   -4.2852   28.5504 C.ar    1  UNL1        0.0533
     11 C           6.5617   -2.9652   27.8585 C.ar    1  UNL1        0.0042
     12 C           6.5412   -2.9009   26.3601 C.ar    1  UNL1       -0.0041
     13 C           6.7518   -4.3495   30.0488 C.2     1  UNL1        0.2459
     14 O           7.0752   -5.6410   30.7398 O.2     1  UNL1       -0.2701
     15 N           6.4488   -3.1222   30.8564 N.am    1  UNL1       -0.3005
     16 H           6.2366   -2.2746   30.4029 H       1  UNL1        0.1498
     17 C           6.4693   -3.1865   32.3549 C.3     1  UNL1        0.0956
     18 C           5.8222   -2.0997   33.1611 C.3     1  UNL1        0.0629
     19 C           4.3289   -2.0533   33.2953 C.2     1  UNL1        0.0520
     20 O           3.5906   -3.2265   33.8683 O.co2   1  UNL1       -0.5491
     21 O           3.5740   -0.8337   32.8564 O.co2   1  UNL1       -0.5491
     22 N           4.1125   -3.3208   21.1199 N.3     1  UNL1       -0.2962
     23 H           3.4163   -4.0145   21.3928 H       1  UNL1        0.1235
     24 C           3.8909   -4.5039   18.8174 C.3     1  UNL1        0.0220
     25 C           4.0928   -3.2538   19.6214 C.3     1  UNL1        0.0768
     26 C           4.2749   -1.9367   18.9272 C.ar    1  UNL1       -0.0080
     27 C           5.5112   -1.6804   18.1174 C.ar    1  UNL1       -0.0030
     28 C           5.6934   -0.3632   17.4231 C.ar    1  UNL1       -0.0003
     29 C           4.6392    0.6976   17.5386 C.ar    1  UNL1       -0.0000
     30 C           3.4028    0.4413   18.3484 C.ar    1  UNL1       -0.0003
     31 C           2.3487    1.5021   18.4639 C.ar    1  UNL1       -0.0000
     32 C           1.1123    1.2458   19.2737 C.ar    1  UNL1       -0.0000
     33 C           0.9302   -0.0714   19.9680 C.ar    1  UNL1       -0.0000
     34 C           1.9844   -1.1322   19.8525 C.ar    1  UNL1       -0.0003
     35 C           3.2207   -0.8758   19.0427 C.ar    1  UNL1       -0.0027
@<TRIPOS>UNITY_ATOM_ATTR
20 1
charge -1
@<TRIPOS>BOND
     1    25    24    1
     2    25    22    1
     3     1    22    1
     4     1     2    1
     5     2     3    1
     6     3     4    1
     7     4     5    1
     8     5     7    1
     9     7     8   ar
    10     8     9   ar
    11     9    10   ar
    12    10    13    1
    13    13    14    2
    14    13    15   am
    15    15    17    1
    16    17    18    1
    17    18    19    1
    18    19    20   ar
    19    19    21   ar
    20    10    11   ar
    21    11    12   ar
    22     5     6    1
    23    25    26    1
    24    26    27   ar
    25    27    28   ar
    26    28    29   ar
    27    29    30   ar
    28    30    31   ar
    29    31    32   ar
    30    32    33   ar
    31    33    34   ar
    32    34    35   ar
    33     6     1    1
    34    35    26   ar
    35    12     7   ar
    36    35    30   ar
    37    22    23    1
    38    15    16    1
