@<TRIPOS>MOLECULE
*****
 28 31 0 0 0
SMALL
GASTEIGER

@<TRIPOS>ATOM
      1 C         -15.7679    0.6481   19.3651 C.ar    1  UNL1        0.1384
      2 C         -14.7363    0.9569   18.3210 C.ar    1  UNL1        0.0369
      3 C         -13.6829   -0.0566   17.9846 C.ar    1  UNL1        0.0031
      4 C         -13.6612   -1.3789   18.6923 C.ar    1  UNL1        0.0003
      5 C         -12.6078   -2.3925   18.3559 C.ar    1  UNL1        0.0045
      6 C         -12.5861   -3.7149   19.0636 C.ar    1  UNL1        0.0536
      7 C         -13.6179   -4.0237   20.1077 C.ar    1  UNL1        0.0045
      8 C         -14.6712   -3.0102   20.4441 C.ar    1  UNL1        0.0002
      9 C         -14.6929   -1.6878   19.7364 C.ar    1  UNL1        0.0030
     10 C         -15.7463   -0.6743   20.0728 C.ar    1  UNL1        0.0369
     11 C         -11.5328   -4.7284   18.7272 C.2     1  UNL1        0.2492
     12 O         -10.1550   -4.5985   19.3058 O.2     1  UNL1       -0.2699
     13 N         -11.8572   -5.8718   17.8121 N.am    1  UNL1       -0.2709
     14 C         -13.2350   -6.0017   17.2334 C.3     1  UNL1        0.1258
     15 C         -13.5594   -7.1451   16.3184 C.3     1  UNL1        0.1637
     16 O         -12.5061   -8.1586   15.9820 O.3     1  UNL1       -0.3501
     17 C         -11.1283   -8.0287   16.5606 C.3     1  UNL1        0.1637
     18 C         -10.8038   -6.8853   17.4757 C.3     1  UNL1        0.1258
     19 O         -16.8214    1.6616   19.7016 O.3     1  UNL1       -0.4791
     20 N         -16.5266    4.0320   23.5153 N.3     1  UNL1       -0.2737
     21 C         -17.3370    2.7704   23.4772 C.3     1  UNL1        0.0758
     22 C         -17.4352    1.9802   22.2059 C.3     1  UNL1        0.0609
     23 C         -16.7231    2.4517   20.9728 C.3     1  UNL1        0.1687
     24 C         -15.9127    3.7134   21.0109 C.3     1  UNL1        0.0609
     25 C         -15.8145    4.5036   22.2821 C.3     1  UNL1        0.0758
     26 C         -15.1258    4.8928   25.5268 C.3     1  UNL1        0.0173
     27 C         -16.4284    4.8222   24.7865 C.3     1  UNL1        0.0576
     28 C         -17.6328    5.5417   25.3173 C.3     1  UNL1        0.0173
@<TRIPOS>BOND
     1    26    27    1
     2    27    28    1
     3    27    20    1
     4    20    21    1
     5    21    22    1
     6    22    23    1
     7    23    19    1
     8    19     1    1
     9     1     2   ar
    10     2     3   ar
    11     3     4   ar
    12     4     5   ar
    13     5     6   ar
    14     6    11    1
    15    11    12    2
    16    11    13   am
    17    13    14    1
    18    14    15    1
    19    15    16    1
    20    16    17    1
    21    17    18    1
    22     6     7   ar
    23     7     8   ar
    24     8     9   ar
    25     9    10   ar
    26    23    24    1
    27    24    25    1
    28    25    20    1
    29    10     1   ar
    30     9     4   ar
    31    18    13    1
@<TRIPOS>MOLECULE
*****
 28 31 0 0 0
SMALL
GASTEIGER

@<TRIPOS>ATOM
      1 C           0.1643    1.9541   19.7029 C.ar    1  UNL1        0.1384
      2 C          -0.0172    1.0039   20.8492 C.ar    1  UNL1        0.0369
      3 C           0.8973   -0.1758   20.9974 C.ar    1  UNL1        0.0031
      4 C           1.9933   -0.4052   19.9993 C.ar    1  UNL1        0.0003
      5 C           2.9078   -1.5849   20.1476 C.ar    1  UNL1        0.0045
      6 C           4.0038   -1.8143   19.1495 C.ar    1  UNL1        0.0536
      7 C           4.1853   -0.8640   18.0032 C.ar    1  UNL1        0.0045
      8 C           3.2708    0.3157   17.8550 C.ar    1  UNL1        0.0002
      9 C           2.1748    0.5451   18.8530 C.ar    1  UNL1        0.0030
     10 C           1.2603    1.7248   18.7048 C.ar    1  UNL1        0.0369
     11 C           4.9184   -2.9940   19.2977 C.2     1  UNL1        0.2492
     12 O           4.6190   -4.2711   18.5702 O.2     1  UNL1       -0.2699
     13 N           6.1323   -2.8965   20.1734 N.am    1  UNL1       -0.2709
     14 C           6.4317   -1.6194   20.9009 C.3     1  UNL1        0.1258
     15 C           7.6456   -1.5219   21.7766 C.3     1  UNL1        0.1637
     16 O           8.5601   -2.7015   21.9248 O.3     1  UNL1       -0.3501
     17 C           8.2608   -3.9787   21.1973 C.3     1  UNL1        0.1637
     18 C           7.0469   -4.0762   20.3216 C.3     1  UNL1        0.1258
     19 O          -0.7503    3.1339   19.5547 O.3     1  UNL1       -0.4791
     20 N          -4.1971    3.6799   22.3956 N.3     1  UNL1       -0.2737
     21 C          -2.7883    3.8307   22.8880 C.3     1  UNL1        0.0758
     22 C          -1.6393    3.6487   21.9410 C.3     1  UNL1        0.0609
     23 C          -1.8992    3.3159   20.5016 C.3     1  UNL1        0.1687
     24 C          -3.3081    3.1651   20.0093 C.3     1  UNL1        0.0609
     25 C          -4.4570    3.3470   20.9563 C.3     1  UNL1        0.0758
     26 C          -6.7095    4.1934   22.8126 C.3     1  UNL1        0.0173
     27 C          -5.3460    3.8618   23.3426 C.3     1  UNL1        0.0576
     28 C          -5.1315    3.7123   24.8197 C.3     1  UNL1        0.0173
@<TRIPOS>BOND
     1    26    27    1
     2    27    28    1
     3    27    20    1
     4    20    21    1
     5    21    22    1
     6    22    23    1
     7    23    19    1
     8    19     1    1
     9     1     2   ar
    10     2     3   ar
    11     3     4   ar
    12     4     5   ar
    13     5     6   ar
    14     6    11    1
    15    11    12    2
    16    11    13   am
    17    13    14    1
    18    14    15    1
    19    15    16    1
    20    16    17    1
    21    17    18    1
    22     6     7   ar
    23     7     8   ar
    24     8     9   ar
    25     9    10   ar
    26    23    24    1
    27    24    25    1
    28    25    20    1
    29    10     1   ar
    30     9     4   ar
    31    18    13    1
@<TRIPOS>MOLECULE
*****
 28 31 0 0 0
SMALL
GASTEIGER

@<TRIPOS>ATOM
      1 C           6.0391   -0.2564   33.7263 C.ar    1  UNL1        0.1384
      2 C           4.9035   -1.2069   33.4877 C.ar    1  UNL1        0.0369
      3 C           5.1592   -2.5310   32.8310 C.ar    1  UNL1        0.0031
      4 C           6.5505   -2.9046   32.4129 C.ar    1  UNL1        0.0003
      5 C           6.8061   -4.2288   31.7562 C.ar    1  UNL1        0.0045
      6 C           8.1974   -4.6025   31.3381 C.ar    1  UNL1        0.0536
      7 C           9.3330   -3.6519   31.5767 C.ar    1  UNL1        0.0045
      8 C           9.0773   -2.3278   32.2335 C.ar    1  UNL1        0.0002
      9 C           7.6861   -1.9542   32.6515 C.ar    1  UNL1        0.0030
     10 C           7.4304   -0.6300   33.3083 C.ar    1  UNL1        0.0369
     11 C           8.4530   -5.9266   30.6814 C.2     1  UNL1        0.2492
     12 O           9.0760   -7.0442   31.4642 O.2     1  UNL1       -0.2699
     13 N           8.0857   -6.1331   29.2417 N.am    1  UNL1       -0.2709
     14 C           7.4628   -5.0155   28.4589 C.3     1  UNL1        0.1258
     15 C           7.0954   -5.2220   27.0193 C.3     1  UNL1        0.1637
     16 O           7.3511   -6.5461   26.3626 O.3     1  UNL1       -0.3501
     17 C           7.9741   -7.6637   27.1455 C.3     1  UNL1        0.1637
     18 C           8.3414   -7.4572   28.5850 C.3     1  UNL1        0.1258
     19 O           5.7835    1.0678   34.3831 O.3     1  UNL1       -0.4791
     20 N           2.7321    1.3953   37.6742 N.3     1  UNL1       -0.2737
     21 C           3.8731    0.4302   37.8028 C.3     1  UNL1        0.0758
     22 C           4.8903    0.3210   36.7057 C.3     1  UNL1        0.0609
     23 C           4.7664    1.1769   35.4801 C.3     1  UNL1        0.1687
     24 C           3.6252    2.1421   35.3516 C.3     1  UNL1        0.0609
     25 C           2.6081    2.2512   36.4486 C.3     1  UNL1        0.0758
     26 C           1.2459    0.2711   39.4846 C.3     1  UNL1        0.0173
     27 C           1.7149    1.5045   38.7712 C.3     1  UNL1        0.0576
     28 C           1.1668    2.8470   39.1549 C.3     1  UNL1        0.0173
@<TRIPOS>BOND
     1    26    27    1
     2    27    28    1
     3    27    20    1
     4    20    21    1
     5    21    22    1
     6    22    23    1
     7    23    19    1
     8    19     1    1
     9     1     2   ar
    10     2     3   ar
    11     3     4   ar
    12     4     5   ar
    13     5     6   ar
    14     6    11    1
    15    11    12    2
    16    11    13   am
    17    13    14    1
    18    14    15    1
    19    15    16    1
    20    16    17    1
    21    17    18    1
    22     6     7   ar
    23     7     8   ar
    24     8     9   ar
    25     9    10   ar
    26    23    24    1
    27    24    25    1
    28    25    20    1
    29    10     1   ar
    30     9     4   ar
    31    18    13    1
@<TRIPOS>MOLECULE
*****
 28 31 0 0 0
SMALL
GASTEIGER

@<TRIPOS>ATOM
      1 C           0.0043    2.6710   19.4307 C.ar    1  UNL1        0.1384
      2 C           1.1427    3.3144   18.6958 C.ar    1  UNL1        0.0369
      3 C           2.4062    2.5448   18.4485 C.ar    1  UNL1        0.0031
      4 C           2.5313    1.1318   18.9361 C.ar    1  UNL1        0.0003
      5 C           3.7949    0.3622   18.6888 C.ar    1  UNL1        0.0045
      6 C           3.9201   -1.0508   19.1764 C.ar    1  UNL1        0.0536
      7 C           2.7816   -1.6942   19.9112 C.ar    1  UNL1        0.0045
      8 C           1.5181   -0.9246   20.1585 C.ar    1  UNL1        0.0002
      9 C           1.3929    0.4884   19.6709 C.ar    1  UNL1        0.0030
     10 C           0.1294    1.2580   19.9182 C.ar    1  UNL1        0.0369
     11 C           5.1836   -1.8204   18.9291 C.2     1  UNL1        0.2492
     12 O           5.4048   -2.4943   17.6074 O.2     1  UNL1       -0.2699
     13 N           6.2259   -1.9162   20.0036 N.am    1  UNL1       -0.2709
     14 C           6.0047   -1.2423   21.3253 C.3     1  UNL1        0.1258
     15 C           7.0470   -1.3380   22.3997 C.3     1  UNL1        0.1637
     16 O           8.3105   -2.1076   22.1524 O.3     1  UNL1       -0.3501
     17 C           8.5317   -2.7815   20.8307 C.3     1  UNL1        0.1637
     18 C           7.4894   -2.6858   19.7563 C.3     1  UNL1        0.1258
     19 O          -1.2593    3.4406   19.6780 O.3     1  UNL1       -0.4791
     20 N          -2.9688    3.6840   23.8335 N.3     1  UNL1       -0.2737
     21 C          -1.4868    3.7839   23.6252 C.3     1  UNL1        0.0758
     22 C          -0.9169    3.7027   22.2400 C.3     1  UNL1        0.0609
     23 C          -1.8291    3.5218   21.0631 C.3     1  UNL1        0.1687
     24 C          -3.3113    3.4219   21.2714 C.3     1  UNL1        0.0609
     25 C          -3.8811    3.5031   22.6566 C.3     1  UNL1        0.0758
     26 C          -5.0205    3.8916   25.4138 C.3     1  UNL1        0.0173
     27 C          -3.5387    3.7652   25.2186 C.3     1  UNL1        0.0576
     28 C          -2.6266    3.7199   26.4087 C.3     1  UNL1        0.0173
@<TRIPOS>BOND
     1    26    27    1
     2    27    28    1
     3    27    20    1
     4    20    21    1
     5    21    22    1
     6    22    23    1
     7    23    19    1
     8    19     1    1
     9     1     2   ar
    10     2     3   ar
    11     3     4   ar
    12     4     5   ar
    13     5     6   ar
    14     6    11    1
    15    11    12    2
    16    11    13   am
    17    13    14    1
    18    14    15    1
    19    15    16    1
    20    16    17    1
    21    17    18    1
    22     6     7   ar
    23     7     8   ar
    24     8     9   ar
    25     9    10   ar
    26    23    24    1
    27    24    25    1
    28    25    20    1
    29    10     1   ar
    30     9     4   ar
    31    18    13    1
@<TRIPOS>MOLECULE
*****
 28 31 0 0 0
SMALL
GASTEIGER

@<TRIPOS>ATOM
      1 C           0.5133    2.0031   24.2182 C.ar    1  UNL1        0.1384
      2 C           1.5375    3.0384   24.5775 C.ar    1  UNL1        0.0369
      3 C           1.8369    3.3287   26.0183 C.ar    1  UNL1        0.0031
      4 C           1.1121    2.5837   27.0998 C.ar    1  UNL1        0.0003
      5 C           1.4116    2.8740   28.5407 C.ar    1  UNL1        0.0045
      6 C           0.6869    2.1290   29.6223 C.ar    1  UNL1        0.0536
      7 C          -0.3374    1.0936   29.2629 C.ar    1  UNL1        0.0045
      8 C          -0.6368    0.8033   27.8221 C.ar    1  UNL1        0.0002
      9 C           0.0880    1.5483   26.7405 C.ar    1  UNL1        0.0030
     10 C          -0.2115    1.2581   25.2997 C.ar    1  UNL1        0.0369
     11 C           0.9863    2.4193   31.0631 C.2     1  UNL1        0.2492
     12 O           0.2594    3.5230   31.7726 O.2     1  UNL1       -0.2699
     13 N           2.0127    1.6058   31.7945 N.am    1  UNL1       -0.2709
     14 C           2.7396    0.5021   31.0850 C.3     1  UNL1        0.1258
     15 C           3.7660   -0.3113   31.8163 C.3     1  UNL1        0.1637
     16 O           4.0654   -0.0210   33.2572 O.3     1  UNL1       -0.3501
     17 C           3.3385    1.0827   33.9666 C.3     1  UNL1        0.1637
     18 C           2.3121    1.8961   33.2353 C.3     1  UNL1        0.1258
     19 O           0.2138    1.7127   22.7773 O.3     1  UNL1       -0.4791
     20 N           2.7373   -1.2404   20.5055 N.3     1  UNL1       -0.2737
     21 C           1.4994   -0.6721   19.8773 C.3     1  UNL1        0.0758
     22 C           0.6582    0.3124   20.6346 C.3     1  UNL1        0.0609
     23 C           1.0549    0.7284   22.0200 C.3     1  UNL1        0.1687
     24 C           2.2928    0.1600   22.6483 C.3     1  UNL1        0.0609
     25 C           3.1340   -0.8244   21.8910 C.3     1  UNL1        0.0758
     26 C           4.0639   -1.8915   18.3687 C.3     1  UNL1        0.0173
     27 C           3.5784   -2.2248   19.7483 C.3     1  UNL1        0.0576
     28 C           3.9340   -3.5425   20.3706 C.3     1  UNL1        0.0173
@<TRIPOS>BOND
     1    26    27    1
     2    27    28    1
     3    27    20    1
     4    20    21    1
     5    21    22    1
     6    22    23    1
     7    23    19    1
     8    19     1    1
     9     1     2   ar
    10     2     3   ar
    11     3     4   ar
    12     4     5   ar
    13     5     6   ar
    14     6    11    1
    15    11    12    2
    16    11    13   am
    17    13    14    1
    18    14    15    1
    19    15    16    1
    20    16    17    1
    21    17    18    1
    22     6     7   ar
    23     7     8   ar
    24     8     9   ar
    25     9    10   ar
    26    23    24    1
    27    24    25    1
    28    25    20    1
    29    10     1   ar
    30     9     4   ar
    31    18    13    1
@<TRIPOS>MOLECULE
*****
 28 31 0 0 0
SMALL
GASTEIGER

@<TRIPOS>ATOM
      1 C           0.3050    2.6587   21.8939 C.ar    1  UNL1        0.1384
      2 C           1.6465    3.3004   22.0907 C.ar    1  UNL1        0.0369
      3 C           2.8934    2.5702   21.6883 C.ar    1  UNL1        0.0031
      4 C           2.7988    1.1983   21.0891 C.ar    1  UNL1        0.0003
      5 C           4.0459    0.4681   20.6867 C.ar    1  UNL1        0.0045
      6 C           3.9513   -0.9038   20.0876 C.ar    1  UNL1        0.0536
      7 C           2.6098   -1.5455   19.8909 C.ar    1  UNL1        0.0045
      8 C           1.3629   -0.8153   20.2933 C.ar    1  UNL1        0.0002
      9 C           1.4574    0.5566   20.8924 C.ar    1  UNL1        0.0030
     10 C           0.2105    1.2868   21.2948 C.ar    1  UNL1        0.0369
     11 C           5.1983   -1.6340   19.6852 C.2     1  UNL1        0.2492
     12 O           5.8162   -1.3794   18.3423 O.2     1  UNL1       -0.2699
     13 N           5.8273   -2.6188   20.6257 N.am    1  UNL1       -0.2709
     14 C           5.2093   -2.8734   21.9686 C.3     1  UNL1        0.1258
     15 C           5.8383   -3.8582   22.9091 C.3     1  UNL1        0.1637
     16 O           7.0852   -4.5884   22.5067 O.3     1  UNL1       -0.3501
     17 C           7.7032   -4.3338   21.1638 C.3     1  UNL1        0.1637
     18 C           7.0742   -3.3490   20.2233 C.3     1  UNL1        0.1258
     19 O          -0.9420    3.3890   22.2963 O.3     1  UNL1       -0.4791
     20 N          -4.3234    3.8528   19.3636 N.3     1  UNL1       -0.2737
     21 C          -2.9072    4.0577   18.9139 C.3     1  UNL1        0.0758
     22 C          -1.7800    3.9031   19.8915 C.3     1  UNL1        0.0609
     23 C          -2.0691    3.5436   21.3188 C.3     1  UNL1        0.1687
     24 C          -3.4854    3.3387   21.7685 C.3     1  UNL1        0.0609
     25 C          -4.6125    3.4933   20.7909 C.3     1  UNL1        0.0758
     26 C          -6.7967    3.4221   18.6948 C.3     1  UNL1        0.0173
     27 C          -5.4505    4.0074   18.3861 C.3     1  UNL1        0.0576
     28 C          -5.2315    4.7473   17.0997 C.3     1  UNL1        0.0173
@<TRIPOS>BOND
     1    26    27    1
     2    27    28    1
     3    27    20    1
     4    20    21    1
     5    21    22    1
     6    22    23    1
     7    23    19    1
     8    19     1    1
     9     1     2   ar
    10     2     3   ar
    11     3     4   ar
    12     4     5   ar
    13     5     6   ar
    14     6    11    1
    15    11    12    2
    16    11    13   am
    17    13    14    1
    18    14    15    1
    19    15    16    1
    20    16    17    1
    21    17    18    1
    22     6     7   ar
    23     7     8   ar
    24     8     9   ar
    25     9    10   ar
    26    23    24    1
    27    24    25    1
    28    25    20    1
    29    10     1   ar
    30     9     4   ar
    31    18    13    1
@<TRIPOS>MOLECULE
*****
 28 31 0 0 0
SMALL
GASTEIGER

@<TRIPOS>ATOM
      1 C          -0.4085    2.6541   22.6315 C.ar    1  UNL1        0.1384
      2 C          -1.5602    3.3354   23.3091 C.ar    1  UNL1        0.0369
      3 C          -1.6952    3.2737   24.8017 C.ar    1  UNL1        0.0031
      4 C          -0.6785    2.5307   25.6167 C.ar    1  UNL1        0.0003
      5 C          -0.8135    2.4690   27.1094 C.ar    1  UNL1        0.0045
      6 C           0.2032    1.7260   27.9243 C.ar    1  UNL1        0.0536
      7 C           1.3550    1.0446   27.2466 C.ar    1  UNL1        0.0045
      8 C           1.4900    1.1063   25.7540 C.ar    1  UNL1        0.0002
      9 C           0.4733    1.8493   24.9391 C.ar    1  UNL1        0.0030
     10 C           0.6083    1.9110   23.4464 C.ar    1  UNL1        0.0369
     11 C           0.0682    1.6643   29.4169 C.2     1  UNL1        0.2492
     12 O          -0.7403    0.5723   30.0524 O.2     1  UNL1       -0.2699
     13 N           0.7417    2.6947   30.2742 N.am    1  UNL1       -0.2709
     14 C           1.5502    3.7867   29.6387 C.3     1  UNL1        0.1258
     15 C           2.2237    4.8170   30.4959 C.3     1  UNL1        0.1637
     16 O           2.0887    4.7553   31.9885 O.3     1  UNL1       -0.3501
     17 C           1.2802    3.6633   32.6240 C.3     1  UNL1        0.1637
     18 C           0.6067    2.6330   31.7668 C.3     1  UNL1        0.1258
     19 O          -0.2734    2.7157   21.1388 O.3     1  UNL1       -0.4791
     20 N           2.5244   -0.0968   19.0146 N.3     1  UNL1       -0.2737
     21 C           2.7578    1.3836   18.9508 C.3     1  UNL1        0.0758
     22 C           1.8252    2.3211   19.6589 C.3     1  UNL1        0.0609
     23 C           0.6592    1.7783   20.4307 C.3     1  UNL1        0.1687
     24 C           0.4258    0.2979   20.4945 C.3     1  UNL1        0.0609
     25 C           1.3584   -0.6396   19.7865 C.3     1  UNL1        0.0758
     26 C           4.0023   -0.6724   16.9569 C.3     1  UNL1        0.0173
     27 C           3.4570   -1.0342   18.3066 C.3     1  UNL1        0.0576
     28 C           3.8443   -2.3336   18.9482 C.3     1  UNL1        0.0173
@<TRIPOS>BOND
     1    26    27    1
     2    27    28    1
     3    27    20    1
     4    20    21    1
     5    21    22    1
     6    22    23    1
     7    23    19    1
     8    19     1    1
     9     1     2   ar
    10     2     3   ar
    11     3     4   ar
    12     4     5   ar
    13     5     6   ar
    14     6    11    1
    15    11    12    2
    16    11    13   am
    17    13    14    1
    18    14    15    1
    19    15    16    1
    20    16    17    1
    21    17    18    1
    22     6     7   ar
    23     7     8   ar
    24     8     9   ar
    25     9    10   ar
    26    23    24    1
    27    24    25    1
    28    25    20    1
    29    10     1   ar
    30     9     4   ar
    31    18    13    1
@<TRIPOS>MOLECULE
*****
 28 31 0 0 0
SMALL
GASTEIGER

@<TRIPOS>ATOM
      1 C           5.3135   -1.3660   20.0725 C.ar    1  UNL1        0.1384
      2 C           5.7470    0.0357   20.3840 C.ar    1  UNL1        0.0369
      3 C           4.7204    1.1070   20.6038 C.ar    1  UNL1        0.0031
      4 C           3.2601    0.7765   20.5120 C.ar    1  UNL1        0.0003
      5 C           2.2334    1.8478   20.7318 C.ar    1  UNL1        0.0045
      6 C           0.7732    1.5173   20.6399 C.ar    1  UNL1        0.0536
      7 C           0.3396    0.1155   20.3283 C.ar    1  UNL1        0.0045
      8 C           1.3663   -0.9557   20.1086 C.ar    1  UNL1        0.0002
      9 C           2.8265   -0.6252   20.2004 C.ar    1  UNL1        0.0030
     10 C           3.8532   -1.6965   19.9806 C.ar    1  UNL1        0.0369
     11 C          -0.2535    2.5886   20.8597 C.2     1  UNL1        0.2492
     12 O          -0.7807    2.8505   22.2394 O.2     1  UNL1       -0.2699
     13 N          -0.7531    3.3979   19.6997 N.am    1  UNL1       -0.2709
     14 C          -0.2259    3.1360   18.3201 C.3     1  UNL1        0.1258
     15 C          -0.7255    3.9453   17.1602 C.3     1  UNL1        0.1637
     16 O          -1.7521    5.0165   17.3799 O.3     1  UNL1       -0.3501
     17 C          -2.2793    5.2785   18.7596 C.3     1  UNL1        0.1637
     18 C          -1.7798    4.4692   19.9195 C.3     1  UNL1        0.1258
     19 O           6.3402   -2.4373   19.8527 O.3     1  UNL1       -0.4791
     20 N           7.5067   -5.1640   23.2371 N.3     1  UNL1       -0.2737
     21 C           8.2916   -5.1770   21.9589 C.3     1  UNL1        0.0758
     22 C           7.9027   -4.2681   20.8307 C.3     1  UNL1        0.0609
     23 C           6.7290   -3.3462   20.9808 C.3     1  UNL1        0.1687
     24 C           5.9442   -3.3332   22.2591 C.3     1  UNL1        0.0609
     25 C           6.3330   -4.2421   23.3872 C.3     1  UNL1        0.0758
     26 C           7.6270   -5.6652   25.7835 C.3     1  UNL1        0.0173
     27 C           7.8956   -6.0729   24.3652 C.3     1  UNL1        0.0576
     28 C           8.5531   -7.3896   24.0750 C.3     1  UNL1        0.0173
@<TRIPOS>BOND
     1    26    27    1
     2    27    28    1
     3    27    20    1
     4    20    21    1
     5    21    22    1
     6    22    23    1
     7    23    19    1
     8    19     1    1
     9     1     2   ar
    10     2     3   ar
    11     3     4   ar
    12     4     5   ar
    13     5     6   ar
    14     6    11    1
    15    11    12    2
    16    11    13   am
    17    13    14    1
    18    14    15    1
    19    15    16    1
    20    16    17    1
    21    17    18    1
    22     6     7   ar
    23     7     8   ar
    24     8     9   ar
    25     9    10   ar
    26    23    24    1
    27    24    25    1
    28    25    20    1
    29    10     1   ar
    30     9     4   ar
    31    18    13    1
@<TRIPOS>MOLECULE
*****
 28 31 0 0 0
SMALL
GASTEIGER

@<TRIPOS>ATOM
      1 C          -1.6946    4.2069   25.3544 C.ar    1  UNL1        0.1384
      2 C          -0.2525    4.4302   25.0075 C.ar    1  UNL1        0.0369
      3 C           0.8116    3.5879   25.6462 C.ar    1  UNL1        0.0031
      4 C           0.4336    2.5222   26.6319 C.ar    1  UNL1        0.0003
      5 C           1.4978    1.6799   27.2707 C.ar    1  UNL1        0.0045
      6 C           1.1198    0.6143   28.2564 C.ar    1  UNL1        0.0536
      7 C          -0.3224    0.3910   28.6033 C.ar    1  UNL1        0.0045
      8 C          -1.3865    1.2333   27.9645 C.ar    1  UNL1        0.0002
      9 C          -1.0085    2.2989   26.9788 C.ar    1  UNL1        0.0030
     10 C          -2.0726    3.1413   26.3401 C.ar    1  UNL1        0.0369
     11 C           2.1840   -0.2281   28.8951 C.2     1  UNL1        0.2492
     12 O           2.8324   -1.3345   28.1171 O.2     1  UNL1       -0.2699
     13 N           2.5997    0.0360   30.3120 N.am    1  UNL1       -0.2709
     14 C           1.9513    1.1425   31.0901 C.3     1  UNL1        0.1258
     15 C           2.3670    1.4066   32.5069 C.3     1  UNL1        0.1637
     16 O           3.4312    0.5643   33.1456 O.3     1  UNL1       -0.3501
     17 C           4.0796   -0.5422   32.3676 C.3     1  UNL1        0.1637
     18 C           3.6639   -0.8063   30.9508 C.3     1  UNL1        0.1258
     19 O          -2.7589    5.0493   24.7156 O.3     1  UNL1       -0.4791
     20 N          -4.2378    4.0542   20.5837 N.3     1  UNL1       -0.2737
     21 C          -3.3623    5.2531   20.7984 C.3     1  UNL1        0.0758
     22 C          -2.8693    5.5848   22.1757 C.3     1  UNL1        0.0609
     23 C          -3.2518    4.7176   23.3383 C.3     1  UNL1        0.1687
     24 C          -4.1274    3.5187   23.1236 C.3     1  UNL1        0.0609
     25 C          -4.6203    3.1870   21.7463 C.3     1  UNL1        0.0758
     26 C          -6.1254    3.2050   19.0134 C.3     1  UNL1        0.0173
     27 C          -4.7308    3.7226   19.2064 C.3     1  UNL1        0.0576
     28 C          -3.8292    3.9084   18.0221 C.3     1  UNL1        0.0173
@<TRIPOS>BOND
     1    26    27    1
     2    27    28    1
     3    27    20    1
     4    20    21    1
     5    21    22    1
     6    22    23    1
     7    23    19    1
     8    19     1    1
     9     1     2   ar
    10     2     3   ar
    11     3     4   ar
    12     4     5   ar
    13     5     6   ar
    14     6    11    1
    15    11    12    2
    16    11    13   am
    17    13    14    1
    18    14    15    1
    19    15    16    1
    20    16    17    1
    21    17    18    1
    22     6     7   ar
    23     7     8   ar
    24     8     9   ar
    25     9    10   ar
    26    23    24    1
    27    24    25    1
    28    25    20    1
    29    10     1   ar
    30     9     4   ar
    31    18    13    1
