@<TRIPOS>MOLECULE
*****
 25 28 0 0 0
SMALL
GASTEIGER

@<TRIPOS>ATOM
      1 C          -8.3726  -19.2647   20.9555 C.3     1  UNL1        0.1473
      2 O          -9.0125  -19.0000   19.6250 O.3     1  UNL1       -0.3787
      3 H          -9.9760  -18.9637   19.7311 H       1  UNL1        0.2108
      4 C          -9.2253  -19.4265   22.1790 C.ar    1  UNL1        0.0087
      5 C          -8.7768  -20.3263   23.2921 C.ar    1  UNL1        0.0188
      6 C          -9.6295  -20.4880   24.5155 C.ar    1  UNL1        0.0986
      7 N         -10.9307  -19.7498   24.6257 N.ar    1  UNL1       -0.2439
      8 C         -11.3791  -18.8500   23.5126 C.ar    1  UNL1        0.0813
      9 C         -12.6803  -18.1119   23.6228 C.ar    1  UNL1        0.0222
     10 C         -13.1288  -17.2121   22.5097 C.ar    1  UNL1        0.0384
     11 C         -12.2761  -17.0503   21.2862 C.ar    1  UNL1        0.1388
     12 C         -10.9749  -17.7885   21.1760 C.ar    1  UNL1        0.0382
     13 C         -10.5265  -18.6883   22.2892 C.ar    1  UNL1        0.0190
     14 O         -12.7245  -16.1505   20.1730 O.3     1  UNL1       -0.4714
     15 C         -11.7257  -15.6240   19.1856 C.3     1  UNL1        0.2525
     16 C          -3.8947  -19.5736   21.2770 C.3     1  UNL1        0.0381
     17 C          -4.6305  -18.5156   22.0446 C.3     1  UNL1        0.0765
     18 N          -6.1232  -18.4126   21.9374 N.3     1  UNL1       -0.2712
     19 C          -6.8800  -19.3677   21.0627 C.3     1  UNL1        0.0722
     20 C          -6.1441  -20.4257   20.2952 C.3     1  UNL1        0.0177
     21 C          -4.6515  -20.5287   20.4023 C.3     1  UNL1        0.0082
     22 C          -5.7910  -19.9800   20.7033 C.3     1  UNL1        0.0192
     23 C          -6.1834  -19.4158   21.1127 C.3     1  UNL1        0.0888
     24 C          -1.5334  -18.5865   20.8302 C.2     1  UNL1       -0.0049
     25 C          -2.4021  -19.6766   21.3842 C.2     1  UNL1       -0.0251
@<TRIPOS>BOND
     1    24    25    2
     2    16    25    1
     3    16    17    1
     4    17    18    1
     5    18    19    1
     6    19    20    1
     7    21    20    1
     8    21    22    1
     9    23    22    1
    10    23     1    1
    11     1     2    1
    12     1     4    1
    13     4     5   ar
    14     5     6   ar
    15     6     7   ar
    16     7     8   ar
    17     8     9   ar
    18     9    10   ar
    19    10    11   ar
    20    11    14    1
    21    14    15    1
    22    11    12   ar
    23    12    13   ar
    24    21    16    1
    25    13     4   ar
    26    23    18    1
    27    13     8   ar
    28     2     3    1
@<TRIPOS>MOLECULE
*****
 25 28 0 0 0
SMALL
GASTEIGER

@<TRIPOS>ATOM
      1 C          -9.1736  -16.7633   21.9206 C.3     1  UNL1        0.1473
      2 O          -8.9550  -15.3369   21.5112 O.3     1  UNL1       -0.3787
      3 H          -8.0727  -15.2448   21.1187 H       1  UNL1        0.2108
      4 C          -8.0967  -17.7824   21.6933 C.ar    1  UNL1        0.0087
      5 C          -8.3418  -18.9396   20.7709 C.ar    1  UNL1        0.0188
      6 C          -7.2648  -19.9586   20.5436 C.ar    1  UNL1        0.0986
      7 N          -5.9428  -19.8205   21.2387 N.ar    1  UNL1       -0.2439
      8 C          -5.6977  -18.6633   22.1611 C.ar    1  UNL1        0.0813
      9 C          -4.3756  -18.5252   22.8561 C.ar    1  UNL1        0.0222
     10 C          -4.1305  -17.3680   23.7785 C.ar    1  UNL1        0.0384
     11 C          -5.2075  -16.3488   24.0058 C.ar    1  UNL1        0.1388
     12 C          -6.5296  -16.4870   23.3108 C.ar    1  UNL1        0.0382
     13 C          -6.7746  -17.6443   22.3884 C.ar    1  UNL1        0.0190
     14 O          -4.9624  -15.1917   24.9282 O.3     1  UNL1       -0.4714
     15 C          -5.7533  -15.0627   26.1962 C.3     1  UNL1        0.2525
     16 C         -13.0604  -17.9852   23.8310 C.3     1  UNL1        0.0381
     17 C         -13.0640  -17.0693   22.6431 C.3     1  UNL1        0.0765
     18 N         -11.7684  -16.6620   22.0062 N.3     1  UNL1       -0.2712
     19 C         -10.4692  -17.1706   22.5574 C.3     1  UNL1        0.0722
     20 C         -10.4658  -18.0864   23.7453 C.3     1  UNL1        0.0177
     21 C         -11.7614  -18.4937   24.3822 C.3     1  UNL1        0.0082
     22 C         -11.0720  -17.8491   23.4882 C.3     1  UNL1        0.0192
     23 C         -11.0738  -17.3607   22.8546 C.3     1  UNL1        0.0888
     24 C         -14.4597  -18.4902   25.9610 C.2     1  UNL1       -0.0049
     25 C         -14.3560  -18.3925   24.4679 C.2     1  UNL1       -0.0251
@<TRIPOS>BOND
     1    24    25    2
     2    16    25    1
     3    16    17    1
     4    17    18    1
     5    18    19    1
     6    19    20    1
     7    21    20    1
     8    21    22    1
     9    23    22    1
    10    23     1    1
    11     1     2    1
    12     1     4    1
    13     4     5   ar
    14     5     6   ar
    15     6     7   ar
    16     7     8   ar
    17     8     9   ar
    18     9    10   ar
    19    10    11   ar
    20    11    14    1
    21    14    15    1
    22    11    12   ar
    23    12    13   ar
    24    21    16    1
    25    13     4   ar
    26    23    18    1
    27    13     8   ar
    28     2     3    1
@<TRIPOS>MOLECULE
*****
 25 28 0 0 0
SMALL
GASTEIGER

@<TRIPOS>ATOM
      1 C          -8.9228  -17.5304   22.0959 C.3     1  UNL1        0.1473
      2 O          -8.6691  -17.9657   20.6831 O.3     1  UNL1       -0.3787
      3 H          -7.7476  -17.7757   20.4468 H       1  UNL1        0.2108
      4 C          -7.8186  -16.9097   22.8993 C.ar    1  UNL1        0.0087
      5 C          -8.1038  -15.7291   23.7796 C.ar    1  UNL1        0.0188
      6 C          -6.9996  -15.1085   24.5829 C.ar    1  UNL1        0.0986
      7 N          -5.6101  -15.6684   24.5061 N.ar    1  UNL1       -0.2439
      8 C          -5.3249  -16.8490   23.6258 C.ar    1  UNL1        0.0813
      9 C          -3.9355  -17.4089   23.5489 C.ar    1  UNL1        0.0222
     10 C          -3.6502  -18.5895   22.6687 C.ar    1  UNL1        0.0384
     11 C          -4.7545  -19.2102   21.8653 C.ar    1  UNL1        0.1388
     12 C          -6.1439  -18.6502   21.9421 C.ar    1  UNL1        0.0382
     13 C          -6.4291  -17.4696   22.8224 C.ar    1  UNL1        0.0190
     14 O          -4.4693  -20.3907   20.9850 O.3     1  UNL1       -0.4714
     15 C          -5.5947  -21.0951   20.2870 C.3     1  UNL1        0.2525
     16 C         -12.9969  -18.0865   23.9242 C.3     1  UNL1        0.0381
     17 C         -12.8201  -17.1678   22.7517 C.3     1  UNL1        0.0765
     18 N         -11.4621  -16.9824   22.1423 N.3     1  UNL1       -0.2712
     19 C         -10.2809  -17.7158   22.7053 C.3     1  UNL1        0.0722
     20 C         -10.4577  -18.6344   23.8778 C.3     1  UNL1        0.0177
     21 C         -11.8157  -18.8198   24.4872 C.3     1  UNL1        0.0082
     22 C         -11.0089  -18.2922   23.6150 C.3     1  UNL1        0.0192
     23 C         -10.9146  -17.8023   22.9897 C.3     1  UNL1        0.0888
     24 C         -14.4904  -18.4895   26.0116 C.2     1  UNL1       -0.0049
     25 C         -14.3549  -18.2719   24.5337 C.2     1  UNL1       -0.0251
@<TRIPOS>BOND
     1    24    25    2
     2    16    25    1
     3    16    17    1
     4    17    18    1
     5    18    19    1
     6    19    20    1
     7    21    20    1
     8    21    22    1
     9    23    22    1
    10    23     1    1
    11     1     2    1
    12     1     4    1
    13     4     5   ar
    14     5     6   ar
    15     6     7   ar
    16     7     8   ar
    17     8     9   ar
    18     9    10   ar
    19    10    11   ar
    20    11    14    1
    21    14    15    1
    22    11    12   ar
    23    12    13   ar
    24    21    16    1
    25    13     4   ar
    26    23    18    1
    27    13     8   ar
    28     2     3    1
@<TRIPOS>MOLECULE
*****
 25 28 0 0 0
SMALL
GASTEIGER

@<TRIPOS>ATOM
      1 C          -6.5053  -19.8758   21.6860 C.3     1  UNL1        0.1473
      2 O          -6.5737  -21.0276   22.6446 O.3     1  UNL1       -0.3787
      3 H          -7.4917  -21.3318   22.7194 H       1  UNL1        0.2108
      4 C          -7.7541  -19.3795   21.0196 C.ar    1  UNL1        0.0087
      5 C          -8.1042  -19.8482   19.6384 C.ar    1  UNL1        0.0188
      6 C          -9.3530  -19.3518   18.9721 C.ar    1  UNL1        0.0986
      7 N         -10.2518  -18.3868   19.6869 N.ar    1  UNL1       -0.2439
      8 C          -9.9017  -17.9181   21.0681 C.ar    1  UNL1        0.0813
      9 C         -10.8004  -16.9531   21.7829 C.ar    1  UNL1        0.0222
     10 C         -10.4504  -16.4845   23.1641 C.ar    1  UNL1        0.0384
     11 C          -9.2015  -16.9808   23.8306 C.ar    1  UNL1        0.1388
     12 C          -8.3028  -17.9458   23.1157 C.ar    1  UNL1        0.0382
     13 C          -8.6529  -18.4145   21.7344 C.ar    1  UNL1        0.0190
     14 O          -8.8514  -16.5121   25.2118 O.3     1  UNL1       -0.4714
     15 C          -7.7455  -15.5181   25.4087 C.3     1  UNL1        0.2525
     16 C          -2.5536  -17.9096   20.8096 C.3     1  UNL1        0.0381
     17 C          -3.2559  -17.6365   22.1067 C.3     1  UNL1        0.0765
     18 N          -4.5731  -18.2920   22.3988 N.3     1  UNL1       -0.2712
     19 C          -5.1881  -19.2204   21.3939 C.3     1  UNL1        0.0722
     20 C          -4.4858  -19.4934   20.0969 C.3     1  UNL1        0.0177
     21 C          -3.1686  -18.8380   19.8047 C.3     1  UNL1        0.0082
     22 C          -4.1988  -19.0601   20.5658 C.3     1  UNL1        0.0192
     23 C          -4.5734  -18.9145   21.2575 C.3     1  UNL1        0.0888
     24 C          -0.1813  -17.9984   19.7540 C.2     1  UNL1       -0.0049
     25 C          -1.2364  -17.2541   20.5174 C.2     1  UNL1       -0.0251
@<TRIPOS>BOND
     1    24    25    2
     2    16    25    1
     3    16    17    1
     4    17    18    1
     5    18    19    1
     6    19    20    1
     7    21    20    1
     8    21    22    1
     9    23    22    1
    10    23     1    1
    11     1     2    1
    12     1     4    1
    13     4     5   ar
    14     5     6   ar
    15     6     7   ar
    16     7     8   ar
    17     8     9   ar
    18     9    10   ar
    19    10    11   ar
    20    11    14    1
    21    14    15    1
    22    11    12   ar
    23    12    13   ar
    24    21    16    1
    25    13     4   ar
    26    23    18    1
    27    13     8   ar
    28     2     3    1
@<TRIPOS>MOLECULE
*****
 25 28 0 0 0
SMALL
GASTEIGER

@<TRIPOS>ATOM
      1 C          -9.4509  -17.4177   21.6337 C.3     1  UNL1        0.1473
      2 O          -8.7531  -16.0930   21.7239 O.3     1  UNL1       -0.3787
      3 H          -7.9556  -16.1094   21.1720 H       1  UNL1        0.2108
      4 C          -8.8807  -18.5090   20.7769 C.ar    1  UNL1        0.0087
      5 C          -9.7284  -19.1537   19.7207 C.ar    1  UNL1        0.0188
      6 C          -9.1582  -20.2449   18.8640 C.ar    1  UNL1        0.0986
      7 N          -7.7401  -20.6914   19.0635 N.ar    1  UNL1       -0.2439
      8 C          -6.8924  -20.0467   20.1198 C.ar    1  UNL1        0.0813
      9 C          -5.4744  -20.4933   20.3193 C.ar    1  UNL1        0.0222
     10 C          -4.6266  -19.8486   21.3755 C.ar    1  UNL1        0.0384
     11 C          -5.1969  -18.7573   22.2323 C.ar    1  UNL1        0.1388
     12 C          -6.6149  -18.3107   22.0327 C.ar    1  UNL1        0.0382
     13 C          -7.4626  -18.9555   20.9764 C.ar    1  UNL1        0.0190
     14 O          -4.3491  -18.1126   23.2885 O.3     1  UNL1       -0.4714
     15 C          -4.6852  -16.7372   23.7838 C.3     1  UNL1        0.2525
     16 C         -13.2552  -18.1181   23.9330 C.3     1  UNL1        0.0381
     17 C         -11.9595  -18.6807   24.4376 C.3     1  UNL1        0.0765
     18 N         -10.6914  -18.4473   23.6712 N.3     1  UNL1       -0.2712
     19 C         -10.7190  -17.6512   22.4001 C.3     1  UNL1        0.0722
     20 C         -12.0147  -17.0886   21.8955 C.3     1  UNL1        0.0177
     21 C         -13.2828  -17.3221   22.6620 C.3     1  UNL1        0.0082
     22 C         -12.0018  -17.4601   22.4887 C.3     1  UNL1        0.0192
     23 C         -11.3108  -17.7601   22.7578 C.3     1  UNL1        0.0888
     24 C         -14.4844  -18.4757   26.1938 C.2     1  UNL1       -0.0049
     25 C         -14.5233  -18.3516   24.6994 C.2     1  UNL1       -0.0251
@<TRIPOS>BOND
     1    24    25    2
     2    16    25    1
     3    16    17    1
     4    17    18    1
     5    18    19    1
     6    19    20    1
     7    21    20    1
     8    21    22    1
     9    23    22    1
    10    23     1    1
    11     1     2    1
    12     1     4    1
    13     4     5   ar
    14     5     6   ar
    15     6     7   ar
    16     7     8   ar
    17     8     9   ar
    18     9    10   ar
    19    10    11   ar
    20    11    14    1
    21    14    15    1
    22    11    12   ar
    23    12    13   ar
    24    21    16    1
    25    13     4   ar
    26    23    18    1
    27    13     8   ar
    28     2     3    1
@<TRIPOS>MOLECULE
*****
 25 28 0 0 0
SMALL
GASTEIGER

@<TRIPOS>ATOM
      1 C          -7.7164  -16.2074   22.8768 C.3     1  UNL1        0.1473
      2 O          -7.6807  -14.7672   22.4591 O.3     1  UNL1       -0.3787
      3 H          -6.7721  -14.5207   22.2256 H       1  UNL1        0.2108
      4 C          -6.4545  -17.0184   22.8818 C.ar    1  UNL1        0.0087
      5 C          -5.3272  -16.6459   23.7984 C.ar    1  UNL1        0.0188
      6 C          -4.0654  -17.4568   23.8034 C.ar    1  UNL1        0.0986
      7 N          -3.9309  -18.6404   22.8918 N.ar    1  UNL1       -0.2439
      8 C          -5.0583  -19.0130   21.9752 C.ar    1  UNL1        0.0813
      9 C          -4.9238  -20.1966   21.0636 C.ar    1  UNL1        0.0222
     10 C          -6.0511  -20.5692   20.1470 C.ar    1  UNL1        0.0384
     11 C          -7.3130  -19.7582   20.1419 C.ar    1  UNL1        0.1388
     12 C          -7.4475  -18.5746   21.0535 C.ar    1  UNL1        0.0382
     13 C          -6.3201  -18.2020   21.9702 C.ar    1  UNL1        0.0190
     14 O          -8.4404  -20.1308   19.2253 O.3     1  UNL1       -0.4714
     15 C          -9.8248  -19.6190   19.4927 C.3     1  UNL1        0.2525
     16 C         -11.6092  -18.0953   24.1147 C.3     1  UNL1        0.0381
     17 C         -11.5421  -17.2629   22.8685 C.3     1  UNL1        0.0765
     18 N         -10.2446  -16.6336   22.4559 N.3     1  UNL1       -0.2712
     19 C          -9.0140  -16.8367   23.2894 C.3     1  UNL1        0.0722
     20 C          -9.0811  -17.6690   24.5355 C.3     1  UNL1        0.0177
     21 C         -10.3787  -18.2983   24.9481 C.3     1  UNL1        0.0082
     22 C          -9.6554  -17.5743   24.1465 C.3     1  UNL1        0.0192
     23 C          -9.6196  -17.1304   23.4820 C.3     1  UNL1        0.0888
     24 C         -14.2064  -18.0635   24.1751 C.2     1  UNL1       -0.0049
     25 C         -12.9068  -18.7245   24.5273 C.2     1  UNL1       -0.0251
@<TRIPOS>BOND
     1    24    25    2
     2    16    25    1
     3    16    17    1
     4    17    18    1
     5    18    19    1
     6    19    20    1
     7    21    20    1
     8    21    22    1
     9    23    22    1
    10    23     1    1
    11     1     2    1
    12     1     4    1
    13     4     5   ar
    14     5     6   ar
    15     6     7   ar
    16     7     8   ar
    17     8     9   ar
    18     9    10   ar
    19    10    11   ar
    20    11    14    1
    21    14    15    1
    22    11    12   ar
    23    12    13   ar
    24    21    16    1
    25    13     4   ar
    26    23    18    1
    27    13     8   ar
    28     2     3    1
@<TRIPOS>MOLECULE
*****
 25 28 0 0 0
SMALL
GASTEIGER

@<TRIPOS>ATOM
      1 C          -7.6212  -19.9208   22.2308 C.3     1  UNL1        0.1473
      2 O          -7.9075  -20.8596   23.3651 O.3     1  UNL1       -0.3787
      3 H          -7.1115  -21.3763   23.5659 H       1  UNL1        0.2108
      4 C          -6.2597  -19.8980   21.6015 C.ar    1  UNL1        0.0087
      5 C          -5.9118  -20.8889   20.5305 C.ar    1  UNL1        0.0188
      6 C          -4.5504  -20.8660   19.9013 C.ar    1  UNL1        0.0986
      7 N          -3.5369  -19.8522   20.3431 N.ar    1  UNL1       -0.2439
      8 C          -3.8849  -18.8613   21.4140 C.ar    1  UNL1        0.0813
      9 C          -2.8714  -17.8475   21.8558 C.ar    1  UNL1        0.0222
     10 C          -3.2194  -16.8566   22.9267 C.ar    1  UNL1        0.0384
     11 C          -4.5808  -16.8795   23.5560 C.ar    1  UNL1        0.1388
     12 C          -5.5943  -17.8933   23.1143 C.ar    1  UNL1        0.0382
     13 C          -5.2463  -18.8842   22.0432 C.ar    1  UNL1        0.0190
     14 O          -4.9288  -15.8886   24.6270 O.3     1  UNL1       -0.4714
     15 C          -6.3197  -15.3336   24.7120 C.3     1  UNL1        0.2525
     16 C         -10.8467  -17.1730   20.7155 C.3     1  UNL1        0.0381
     17 C         -10.1430  -16.8648   22.0039 C.3     1  UNL1        0.0765
     18 N          -9.0678  -17.7807   22.5090 N.3     1  UNL1       -0.2712
     19 C          -8.6964  -19.0049   21.7257 C.3     1  UNL1        0.0722
     20 C          -9.4000  -19.3131   20.4374 C.3     1  UNL1        0.0177
     21 C         -10.4752  -18.3971   19.9323 C.3     1  UNL1        0.0082
     22 C          -9.5734  -18.7418   20.8029 C.3     1  UNL1        0.0192
     23 C          -9.1981  -18.5775   21.4900 C.3     1  UNL1        0.0888
     24 C         -11.7048  -15.4669   18.9540 C.2     1  UNL1       -0.0049
     25 C         -11.9218  -16.2571   20.2104 C.2     1  UNL1       -0.0251
@<TRIPOS>BOND
     1    24    25    2
     2    16    25    1
     3    16    17    1
     4    17    18    1
     5    18    19    1
     6    19    20    1
     7    21    20    1
     8    21    22    1
     9    23    22    1
    10    23     1    1
    11     1     2    1
    12     1     4    1
    13     4     5   ar
    14     5     6   ar
    15     6     7   ar
    16     7     8   ar
    17     8     9   ar
    18     9    10   ar
    19    10    11   ar
    20    11    14    1
    21    14    15    1
    22    11    12   ar
    23    12    13   ar
    24    21    16    1
    25    13     4   ar
    26    23    18    1
    27    13     8   ar
    28     2     3    1
@<TRIPOS>MOLECULE
*****
 25 28 0 0 0
SMALL
GASTEIGER

@<TRIPOS>ATOM
      1 C          -8.5684  -18.9401   21.0231 C.3     1  UNL1        0.1473
      2 O          -9.3414  -18.6942   19.7614 O.3     1  UNL1       -0.3787
      3 H         -10.2756  -18.5483   19.9779 H       1  UNL1        0.2108
      4 C          -9.2721  -18.9310   22.3478 C.ar    1  UNL1        0.0087
      5 C         -10.3389  -19.9449   22.6373 C.ar    1  UNL1        0.0188
      6 C         -11.0426  -19.9358   23.9619 C.ar    1  UNL1        0.0986
      7 N         -10.6795  -18.9127   24.9970 N.ar    1  UNL1       -0.2439
      8 C          -9.6128  -17.8988   24.7076 C.ar    1  UNL1        0.0813
      9 C          -9.2497  -16.8757   25.7427 C.ar    1  UNL1        0.0222
     10 C          -8.1829  -15.8618   25.4532 C.ar    1  UNL1        0.0384
     11 C          -7.4791  -15.8709   24.1285 C.ar    1  UNL1        0.1388
     12 C          -7.8422  -16.8939   23.0934 C.ar    1  UNL1        0.0382
     13 C          -8.9091  -17.9079   23.3829 C.ar    1  UNL1        0.0190
     14 O          -6.4123  -14.8569   23.8391 O.3     1  UNL1       -0.4714
     15 C          -4.9694  -15.2665   23.8358 C.3     1  UNL1        0.2525
     16 C          -4.1378  -19.7048   20.8344 C.3     1  UNL1        0.0381
     17 C          -4.8004  -18.8699   19.7790 C.3     1  UNL1        0.0765
     18 N          -6.2773  -18.6150   19.8419 N.3     1  UNL1       -0.2712
     19 C          -7.0915  -19.1950   20.9602 C.3     1  UNL1        0.0722
     20 C          -6.4289  -20.0299   22.0156 C.3     1  UNL1        0.0177
     21 C          -4.9521  -20.2848   21.9527 C.3     1  UNL1        0.0082
     22 C          -6.0489  -19.7592   21.4937 C.3     1  UNL1        0.0192
     23 C          -6.4023  -19.3140   20.9309 C.3     1  UNL1        0.0888
     24 C          -1.6983  -18.8111   20.8330 C.2     1  UNL1       -0.0049
     25 C          -2.6610  -19.9598   20.7715 C.2     1  UNL1       -0.0251
@<TRIPOS>BOND
     1    24    25    2
     2    16    25    1
     3    16    17    1
     4    17    18    1
     5    18    19    1
     6    19    20    1
     7    21    20    1
     8    21    22    1
     9    23    22    1
    10    23     1    1
    11     1     2    1
    12     1     4    1
    13     4     5   ar
    14     5     6   ar
    15     6     7   ar
    16     7     8   ar
    17     8     9   ar
    18     9    10   ar
    19    10    11   ar
    20    11    14    1
    21    14    15    1
    22    11    12   ar
    23    12    13   ar
    24    21    16    1
    25    13     4   ar
    26    23    18    1
    27    13     8   ar
    28     2     3    1
@<TRIPOS>MOLECULE
*****
 25 28 0 0 0
SMALL
GASTEIGER

@<TRIPOS>ATOM
      1 C          -8.2496  -16.6714   23.1446 C.3     1  UNL1        0.1473
      2 O          -8.3710  -15.1960   22.9028 O.3     1  UNL1       -0.3787
      3 H          -9.2563  -14.8974   23.1634 H       1  UNL1        0.2108
      4 C          -9.4094  -17.4366   23.7098 C.ar    1  UNL1        0.0087
      5 C          -9.2517  -18.1988   24.9921 C.ar    1  UNL1        0.0188
      6 C         -10.4114  -18.9640   25.5572 C.ar    1  UNL1        0.0986
      7 N         -11.7289  -18.9671   24.8401 N.ar    1  UNL1       -0.2439
      8 C         -11.8866  -18.2049   23.5578 C.ar    1  UNL1        0.0813
      9 C         -13.2041  -18.2080   22.8407 C.ar    1  UNL1        0.0222
     10 C         -13.3618  -17.4458   21.5585 C.ar    1  UNL1        0.0384
     11 C         -12.2021  -16.6806   20.9933 C.ar    1  UNL1        0.1388
     12 C         -10.8846  -16.6775   21.7104 C.ar    1  UNL1        0.0382
     13 C         -10.7269  -17.4397   22.9927 C.ar    1  UNL1        0.0190
     14 O         -12.3598  -15.9184   19.7110 O.3     1  UNL1       -0.4714
     15 C         -11.1545  -15.3461   19.0255 C.3     1  UNL1        0.2525
     16 C          -4.4064  -18.8019   22.1747 C.3     1  UNL1        0.0381
     17 C          -4.3879  -17.5812   23.0463 C.3     1  UNL1        0.0765
     18 N          -5.6690  -16.8710   23.3696 N.3     1  UNL1       -0.2712
     19 C          -6.9686  -17.3816   22.8213 C.3     1  UNL1        0.0722
     20 C          -6.9870  -18.6022   21.9498 C.3     1  UNL1        0.0177
     21 C          -5.7060  -19.3124   21.6265 C.3     1  UNL1        0.0082
     22 C          -6.3806  -18.3640   22.2056 C.3     1  UNL1        0.0192
     23 C          -6.3707  -17.7130   22.6704 C.3     1  UNL1        0.0888
     24 C          -2.9857  -20.2543   20.5554 C.2     1  UNL1       -0.0049
     25 C          -3.1254  -19.5121   21.8514 C.2     1  UNL1       -0.0251
@<TRIPOS>BOND
     1    24    25    2
     2    16    25    1
     3    16    17    1
     4    17    18    1
     5    18    19    1
     6    19    20    1
     7    21    20    1
     8    21    22    1
     9    23    22    1
    10    23     1    1
    11     1     2    1
    12     1     4    1
    13     4     5   ar
    14     5     6   ar
    15     6     7   ar
    16     7     8   ar
    17     8     9   ar
    18     9    10   ar
    19    10    11   ar
    20    11    14    1
    21    14    15    1
    22    11    12   ar
    23    12    13   ar
    24    21    16    1
    25    13     4   ar
    26    23    18    1
    27    13     8   ar
    28     2     3    1
