@<TRIPOS>MOLECULE
*****
 42 46 0 0 0
SMALL
GASTEIGER

@<TRIPOS>ATOM
      1 C           6.7650   -2.1412   25.8553 C.ar    1  UNL1        0.0768
      2 N           5.8438   -1.0493   26.3124 N.ar    1  UNL1       -0.2480
      3 C           4.6755   -0.6484   25.4612 C.ar    1  UNL1        0.0812
      4 C           3.7543    0.4436   25.9182 C.ar    1  UNL1        0.0214
      5 C           2.5861    0.8444   25.0671 C.ar    1  UNL1        0.0312
      6 C           2.3391    0.1534   23.7589 C.ar    1  UNL1        0.1402
      7 F           1.1708    0.5543   22.9077 F       1  UNL1       -0.2042
      8 C           3.2603   -0.9386   23.3018 C.ar    1  UNL1        0.0313
      9 C           4.4285   -1.3395   24.1530 C.ar    1  UNL1        0.0243
     10 C           5.3498   -2.4315   23.6960 C.ar    1  UNL1        0.0563
     11 C           6.5181   -2.8323   24.5471 C.ar    1  UNL1        0.0196
     12 C           5.1029   -3.1225   22.3878 C.2     1  UNL1        0.2492
     13 O           4.3142   -4.3979   22.3504 O.2     1  UNL1       -0.2699
     14 N           5.6446   -2.5382   21.1169 N.am    1  UNL1       -0.2725
     15 C           6.4333   -1.2629   21.1542 C.3     1  UNL1        0.1190
     16 C           6.9750   -0.6786   19.8833 C.3     1  UNL1        0.1723
     17 S           6.7280   -1.3697   18.5751 S.O2    1  UNL1       -0.0066
     18 O           6.7587   -1.6519   17.1022 O.2     1  UNL1       -0.1729
     19 O           7.5274   -0.1924   18.1009 O.2     1  UNL1       -0.1729
     20 C           5.9393   -2.6451   18.5378 C.3     1  UNL1        0.1723
     21 C           5.3976   -3.2293   19.8087 C.3     1  UNL1        0.1190
     22 C           7.4394   -3.9243   24.0901 C.ar    1  UNL1        0.0013
     23 C           8.6143   -3.5977   23.2166 C.ar    1  UNL1        0.0000
     24 C           9.5355   -4.6896   22.7596 C.ar    1  UNL1        0.0000
     25 C           9.2819   -6.1081   23.1761 C.ar    1  UNL1        0.0000
     26 C           8.1070   -6.4347   24.0495 C.ar    1  UNL1        0.0000
     27 C           7.1858   -5.3428   24.5066 C.ar    1  UNL1        0.0000
     28 C           9.1939   -1.7296   26.6807 C.3     1  UNL1        0.0278
     29 C           7.9333   -2.5422   26.7065 C.3     1  UNL1        0.1109
     30 N           7.8410   -3.7555   27.5835 N.pl3   1  UNL1       -0.3142
     31 H           8.1221   -4.6341   27.2395 H       1  UNL1        0.1485
     32 C           7.3203   -3.6304   28.9846 C.ar    1  UNL1        0.1429
     33 N           6.8136   -2.3087   29.4812 N.ar    1  UNL1       -0.2084
     34 C           6.2930   -2.1835   30.8823 C.ar    1  UNL1        0.2012
     35 N           6.2789   -3.3799   31.7869 N.ar    1  UNL1       -0.2087
     36 C           6.7856   -4.7015   31.2904 C.ar    1  UNL1        0.1396
     37 N           6.7715   -5.8980   32.1950 N.pl3   1  UNL1       -0.3420
     38 C           7.3063   -4.8268   29.8892 C.ar    1  UNL1        0.1308
     39 H           6.4298   -5.8158   33.1147 H       1  UNL1        0.1437
     40 H           7.1041   -6.7654   31.8691 H       1  UNL1        0.1437
     41 C           7.8129   -6.1484   29.3927 C.1     1  UNL1        0.1061
     42 N           8.3196   -7.4701   28.8962 N.1     1  UNL1       -0.1906
@<TRIPOS>BOND
     1    29    28    1
     2    29    30    1
     3    30    32    1
     4    32    33   ar
     5    33    34   ar
     6    34    35   ar
     7    35    36   ar
     8    36    37    1
     9    36    38   ar
    10    38    41    1
    11    41    42    3
    12    29     1    1
    13     1     2   ar
    14     2     3   ar
    15     3     4   ar
    16     4     5   ar
    17     5     6   ar
    18     6     7    1
    19     6     8   ar
    20     8     9   ar
    21     9    10   ar
    22    10    12    1
    23    12    13    2
    24    12    14   am
    25    14    15    1
    26    15    16    1
    27    16    17    1
    28    17    18    2
    29    17    19    2
    30    17    20    1
    31    20    21    1
    32    10    11   ar
    33    11    22    1
    34    22    23   ar
    35    23    24   ar
    36    24    25   ar
    37    25    26   ar
    38    26    27   ar
    39    38    32   ar
    40    11     1   ar
    41    27    22   ar
    42     9     3   ar
    43    21    14    1
    44    30    31    1
    45    37    39    1
    46    37    40    1
@<TRIPOS>MOLECULE
*****
 42 46 0 0 0
SMALL
GASTEIGER

@<TRIPOS>ATOM
      1 C           3.3497   -0.5463   24.6911 C.ar    1  UNL1        0.0768
      2 N           4.1545   -1.7321   24.2483 N.ar    1  UNL1       -0.2480
      3 C           4.1050   -2.1801   22.8175 C.ar    1  UNL1        0.0812
      4 C           4.9098   -3.3659   22.3747 C.ar    1  UNL1        0.0214
      5 C           4.8603   -3.8138   20.9440 C.ar    1  UNL1        0.0312
      6 C           4.0060   -3.0760   19.9562 C.ar    1  UNL1        0.1402
      7 F           3.9566   -3.5240   18.5255 F       1  UNL1       -0.2042
      8 C           3.2013   -1.8901   20.3990 C.ar    1  UNL1        0.0313
      9 C           3.2508   -1.4422   21.8297 C.ar    1  UNL1        0.0243
     10 C           2.4460   -0.2563   22.2726 C.ar    1  UNL1        0.0563
     11 C           2.4955    0.1916   23.7033 C.ar    1  UNL1        0.0196
     12 C           1.5917    0.4816   21.2848 C.2     1  UNL1        0.2492
     13 O           0.1290    0.1677   21.1764 O.2     1  UNL1       -0.2699
     14 N           2.2003    1.5334   20.4053 N.am    1  UNL1       -0.2725
     15 C           3.6631    1.8472   20.5136 C.3     1  UNL1        0.1190
     16 C           4.2716    2.8989   19.6342 C.3     1  UNL1        0.1723
     17 S           3.4174    3.6368   18.6463 S.O2    1  UNL1       -0.0066
     18 O           3.0238    4.5999   17.5658 O.2     1  UNL1       -0.1729
     19 O           4.7434    4.2851   18.3794 O.2     1  UNL1       -0.1729
     20 C           1.9546    3.3230   18.5380 C.3     1  UNL1        0.1723
     21 C           1.3461    2.2712   19.4174 C.3     1  UNL1        0.1190
     22 C           1.6907    1.3775   24.1462 C.ar    1  UNL1        0.0013
     23 C           0.3361    1.1781   24.7587 C.ar    1  UNL1        0.0000
     24 C          -0.4687    2.3639   25.2016 C.ar    1  UNL1        0.0000
     25 C           0.0811    3.7491   25.0320 C.ar    1  UNL1        0.0000
     26 C           1.4357    3.9485   24.4194 C.ar    1  UNL1        0.0000
     27 C           2.2405    2.7627   23.9765 C.ar    1  UNL1        0.0000
     28 C           4.1486    1.1472   26.4923 C.3     1  UNL1        0.0278
     29 C           3.3992   -0.0983   26.1218 C.3     1  UNL1        0.1109
     30 N           2.6992   -0.8957   27.1821 N.pl3   1  UNL1       -0.3142
     31 H           2.6319   -1.8743   27.0980 H       1  UNL1        0.1485
     32 C           2.1018   -0.2021   28.3703 C.ar    1  UNL1        0.1429
     33 N           0.7559    0.4508   28.2593 N.ar    1  UNL1       -0.2084
     34 C           0.1585    1.1444   29.4476 C.ar    1  UNL1        0.2012
     35 N           0.9069    1.1850   30.7469 N.ar    1  UNL1       -0.2087
     36 C           2.2527    0.5321   30.8579 C.ar    1  UNL1        0.1396
     37 N           3.0011    0.5727   32.1573 N.pl3   1  UNL1       -0.3420
     38 C           2.8502   -0.1615   29.6696 C.ar    1  UNL1        0.1308
     39 H           2.6090    1.0279   32.9372 H       1  UNL1        0.1437
     40 H           3.8844    0.1441   32.2302 H       1  UNL1        0.1437
     41 C           4.1960   -0.8145   29.7807 C.1     1  UNL1        0.1061
     42 N           5.5419   -1.4674   29.8918 N.1     1  UNL1       -0.1906
@<TRIPOS>BOND
     1    29    28    1
     2    29    30    1
     3    30    32    1
     4    32    33   ar
     5    33    34   ar
     6    34    35   ar
     7    35    36   ar
     8    36    37    1
     9    36    38   ar
    10    38    41    1
    11    41    42    3
    12    29     1    1
    13     1     2   ar
    14     2     3   ar
    15     3     4   ar
    16     4     5   ar
    17     5     6   ar
    18     6     7    1
    19     6     8   ar
    20     8     9   ar
    21     9    10   ar
    22    10    12    1
    23    12    13    2
    24    12    14   am
    25    14    15    1
    26    15    16    1
    27    16    17    1
    28    17    18    2
    29    17    19    2
    30    17    20    1
    31    20    21    1
    32    10    11   ar
    33    11    22    1
    34    22    23   ar
    35    23    24   ar
    36    24    25   ar
    37    25    26   ar
    38    26    27   ar
    39    38    32   ar
    40    11     1   ar
    41    27    22   ar
    42     9     3   ar
    43    21    14    1
    44    30    31    1
    45    37    39    1
    46    37    40    1
@<TRIPOS>MOLECULE
*****
 42 46 0 0 0
SMALL
GASTEIGER

@<TRIPOS>ATOM
      1 C          -0.9920    2.7751   21.8788 C.ar    1  UNL1        0.0768
      2 N          -0.2971    1.6379   21.1905 N.ar    1  UNL1       -0.2480
      3 C           0.8924    0.9872   21.8321 C.ar    1  UNL1        0.0812
      4 C           1.5874   -0.1500   21.1438 C.ar    1  UNL1        0.0214
      5 C           2.7769   -0.8007   21.7854 C.ar    1  UNL1        0.0312
      6 C           3.2715   -0.3141   23.1152 C.ar    1  UNL1        0.1402
      7 F           4.4611   -0.9649   23.7568 F       1  UNL1       -0.2042
      8 C           2.5766    0.8231   23.8036 C.ar    1  UNL1        0.0313
      9 C           1.3871    1.4737   23.1620 C.ar    1  UNL1        0.0243
     10 C           0.6921    2.6110   23.8503 C.ar    1  UNL1        0.0563
     11 C          -0.4974    3.2616   23.2087 C.ar    1  UNL1        0.0196
     12 C           1.1867    3.0975   25.1802 C.2     1  UNL1        0.2492
     13 O           2.1424    4.2516   25.2485 O.2     1  UNL1       -0.2699
     14 N           0.7256    2.4299   26.4419 N.am    1  UNL1       -0.2725
     15 C          -0.2301    1.2758   26.3736 C.3     1  UNL1        0.1190
     16 C          -0.6912    0.6083   27.6353 C.3     1  UNL1        0.1723
     17 S          -0.1966    1.0949   28.9652 S.O2    1  UNL1       -0.0066
     18 O          -0.0116    1.1923   30.4505 O.2     1  UNL1       -0.1729
     19 O          -1.0880   -0.0254   29.4127 O.2     1  UNL1       -0.1729
     20 C           0.7591    2.2490   29.0334 C.3     1  UNL1        0.1723
     21 C           1.2202    2.9165   27.7718 C.3     1  UNL1        0.1190
     22 C          -1.1924    4.3989   23.8971 C.ar    1  UNL1        0.0013
     23 C          -0.6953    5.8023   23.7146 C.ar    1  UNL1        0.0000
     24 C          -1.3902    6.9396   24.4029 C.ar    1  UNL1        0.0000
     25 C          -2.5822    6.6734   25.2736 C.ar    1  UNL1        0.0000
     26 C          -3.0793    5.2699   25.4560 C.ar    1  UNL1        0.0000
     27 C          -2.3844    4.1327   24.7678 C.ar    1  UNL1        0.0000
     28 C          -2.0772    4.8265   20.7108 C.3     1  UNL1        0.0278
     29 C          -2.1816    3.4258   21.2373 C.3     1  UNL1        0.1109
     30 N          -3.4755    2.6758   21.1222 N.pl3   1  UNL1       -0.3142
     31 H          -3.4721    1.7237   20.8720 H       1  UNL1        0.1485
     32 C          -4.7748    3.3766   21.3884 C.ar    1  UNL1        0.1429
     33 N          -5.2380    3.5872   22.7995 N.ar    1  UNL1       -0.2084
     34 C          -6.5373    4.2879   23.0657 C.ar    1  UNL1        0.2012
     35 N          -7.3732    4.7782   21.9208 N.ar    1  UNL1       -0.2087
     36 C          -6.9100    4.5678   20.5098 C.ar    1  UNL1        0.1396
     37 N          -7.7460    5.0581   19.3649 N.pl3   1  UNL1       -0.3420
     38 C          -5.6108    3.8669   20.2435 C.ar    1  UNL1        0.1308
     39 H          -8.5988    5.5180   19.5396 H       1  UNL1        0.1437
     40 H          -7.4420    4.9199   18.4388 H       1  UNL1        0.1437
     41 C          -5.1475    3.6564   18.8325 C.1     1  UNL1        0.1061
     42 N          -4.6843    3.4460   17.4215 N.1     1  UNL1       -0.1906
@<TRIPOS>BOND
     1    29    28    1
     2    29    30    1
     3    30    32    1
     4    32    33   ar
     5    33    34   ar
     6    34    35   ar
     7    35    36   ar
     8    36    37    1
     9    36    38   ar
    10    38    41    1
    11    41    42    3
    12    29     1    1
    13     1     2   ar
    14     2     3   ar
    15     3     4   ar
    16     4     5   ar
    17     5     6   ar
    18     6     7    1
    19     6     8   ar
    20     8     9   ar
    21     9    10   ar
    22    10    12    1
    23    12    13    2
    24    12    14   am
    25    14    15    1
    26    15    16    1
    27    16    17    1
    28    17    18    2
    29    17    19    2
    30    17    20    1
    31    20    21    1
    32    10    11   ar
    33    11    22    1
    34    22    23   ar
    35    23    24   ar
    36    24    25   ar
    37    25    26   ar
    38    26    27   ar
    39    38    32   ar
    40    11     1   ar
    41    27    22   ar
    42     9     3   ar
    43    21    14    1
    44    30    31    1
    45    37    39    1
    46    37    40    1
@<TRIPOS>MOLECULE
*****
 42 46 0 0 0
SMALL
GASTEIGER

@<TRIPOS>ATOM
      1 C           2.8040    0.1128   24.5558 C.ar    1  UNL1        0.0768
      2 N           3.6098   -1.1179   24.2629 N.ar    1  UNL1       -0.2480
      3 C           3.6552   -1.6705   22.8690 C.ar    1  UNL1        0.0812
      4 C           4.4610   -2.9012   22.5761 C.ar    1  UNL1        0.0214
      5 C           4.5064   -3.4537   21.1823 C.ar    1  UNL1        0.0312
      6 C           3.7459   -2.7755   20.0815 C.ar    1  UNL1        0.1402
      7 F           3.7913   -3.3281   18.6877 F       1  UNL1       -0.2042
      8 C           2.9401   -1.5448   20.3745 C.ar    1  UNL1        0.0313
      9 C           2.8947   -0.9923   21.7683 C.ar    1  UNL1        0.0243
     10 C           2.0888    0.2385   22.0613 C.ar    1  UNL1        0.0563
     11 C           2.0435    0.7910   23.4551 C.ar    1  UNL1        0.0196
     12 C           1.3284    0.9167   20.9605 C.2     1  UNL1        0.2492
     13 O          -0.1003    0.5441   20.6960 O.2     1  UNL1       -0.2699
     14 N           1.9966    1.9676   20.1243 N.am    1  UNL1       -0.2725
     15 C           3.4253    2.3401   20.3889 C.3     1  UNL1        0.1190
     16 C           4.0935    3.3909   19.5526 C.3     1  UNL1        0.1723
     17 S           3.3330    4.0691   18.4519 S.O2    1  UNL1       -0.0066
     18 O           3.0326    4.9875   17.3046 O.2     1  UNL1       -0.1729
     19 O           4.6573    4.7607   18.3180 O.2     1  UNL1       -0.1729
     20 C           1.9044    3.6966   18.1873 C.3     1  UNL1        0.1723
     21 C           1.2362    2.6458   19.0235 C.3     1  UNL1        0.1190
     22 C           1.2376    2.0218   23.7481 C.ar    1  UNL1        0.0013
     23 C          -0.1982    1.8968   24.1637 C.ar    1  UNL1        0.0000
     24 C          -1.0041    3.1275   24.4568 C.ar    1  UNL1        0.0000
     25 C          -0.3741    4.4832   24.3342 C.ar    1  UNL1        0.0000
     26 C           1.0617    4.6082   23.9186 C.ar    1  UNL1        0.0000
     27 C           1.8676    3.3775   23.6256 C.ar    1  UNL1        0.0000
     28 C           3.8500    1.5744   26.4320 C.3     1  UNL1        0.0278
     29 C           2.7586    0.6654   25.9497 C.3     1  UNL1        0.1109
     30 N           1.6218    0.3090   26.8611 N.pl3   1  UNL1       -0.3142
     31 H           0.7429    0.0760   26.4838 H       1  UNL1        0.1485
     32 C           1.8243    0.3076   28.3473 C.ar    1  UNL1        0.1429
     33 N           2.5595   -0.8236   29.0031 N.ar    1  UNL1       -0.2084
     34 C           2.7620   -0.8250   30.4893 C.ar    1  UNL1        0.2012
     35 N           2.2294    0.3048   31.3199 N.ar    1  UNL1       -0.2087
     36 C           1.4943    1.4360   30.6642 C.ar    1  UNL1        0.1396
     37 N           0.9616    2.5658   31.4948 N.pl3   1  UNL1       -0.3420
     38 C           1.2917    1.4374   29.1779 C.ar    1  UNL1        0.1308
     39 H           1.0945    2.5649   32.4703 H       1  UNL1        0.1437
     40 H           0.4791    3.3082   31.0644 H       1  UNL1        0.1437
     41 C           0.5566    2.5686   28.5223 C.1     1  UNL1        0.1061
     42 N          -0.1786    3.6998   27.8666 N.1     1  UNL1       -0.1906
@<TRIPOS>BOND
     1    29    28    1
     2    29    30    1
     3    30    32    1
     4    32    33   ar
     5    33    34   ar
     6    34    35   ar
     7    35    36   ar
     8    36    37    1
     9    36    38   ar
    10    38    41    1
    11    41    42    3
    12    29     1    1
    13     1     2   ar
    14     2     3   ar
    15     3     4   ar
    16     4     5   ar
    17     5     6   ar
    18     6     7    1
    19     6     8   ar
    20     8     9   ar
    21     9    10   ar
    22    10    12    1
    23    12    13    2
    24    12    14   am
    25    14    15    1
    26    15    16    1
    27    16    17    1
    28    17    18    2
    29    17    19    2
    30    17    20    1
    31    20    21    1
    32    10    11   ar
    33    11    22    1
    34    22    23   ar
    35    23    24   ar
    36    24    25   ar
    37    25    26   ar
    38    26    27   ar
    39    38    32   ar
    40    11     1   ar
    41    27    22   ar
    42     9     3   ar
    43    21    14    1
    44    30    31    1
    45    37    39    1
    46    37    40    1
@<TRIPOS>MOLECULE
*****
 42 46 0 0 0
SMALL
GASTEIGER

@<TRIPOS>ATOM
      1 C           5.3256    2.3759   33.5216 C.ar    1  UNL1        0.0768
      2 N           4.3758    2.9015   32.4864 N.ar    1  UNL1       -0.2480
      3 C           3.5961    1.9476   31.6307 C.ar    1  UNL1        0.0812
      4 C           2.6463    2.4732   30.5955 C.ar    1  UNL1        0.0214
      5 C           1.8666    1.5194   29.7399 C.ar    1  UNL1        0.0312
      6 C           2.0367    0.0399   29.9194 C.ar    1  UNL1        0.1402
      7 F           1.2569   -0.9140   29.0637 F       1  UNL1       -0.2042
      8 C           2.9864   -0.4857   30.9546 C.ar    1  UNL1        0.0313
      9 C           3.7661    0.4681   31.8102 C.ar    1  UNL1        0.0243
     10 C           4.7159   -0.0575   32.8454 C.ar    1  UNL1        0.0563
     11 C           5.4956    0.8964   33.7011 C.ar    1  UNL1        0.0196
     12 C           4.8860   -1.5369   33.0250 C.2     1  UNL1        0.2492
     13 O           4.0038   -2.2826   33.9818 O.2     1  UNL1       -0.2699
     14 N           5.9384   -2.2707   32.2476 N.am    1  UNL1       -0.2725
     15 C           6.8206   -1.5250   31.2908 C.3     1  UNL1        0.1190
     16 C           7.8728   -2.2588   30.5135 C.3     1  UNL1        0.1723
     17 S           8.0429   -3.7382   30.6930 S.O2    1  UNL1       -0.0066
     18 O           8.5848   -5.1261   30.5192 O.2     1  UNL1       -0.1729
     19 O           9.1133   -3.4745   29.6758 O.2     1  UNL1       -0.1729
     20 C           7.1607   -4.4840   31.6498 C.3     1  UNL1        0.1723
     21 C           6.1084   -3.7502   32.4271 C.3     1  UNL1        0.1190
     22 C           6.4455    0.3708   34.7363 C.ar    1  UNL1        0.0013
     23 C           7.8794    0.1154   34.3777 C.ar    1  UNL1        0.0000
     24 C           8.8292   -0.4102   35.4129 C.ar    1  UNL1        0.0000
     25 C           8.3451   -0.6803   36.8066 C.ar    1  UNL1        0.0000
     26 C           6.9112   -0.4249   37.1652 C.ar    1  UNL1        0.0000
     27 C           5.9613    0.1006   36.1301 C.ar    1  UNL1        0.0000
     28 C           7.5730    3.5250   34.1369 C.3     1  UNL1        0.0278
     29 C           6.1054    3.3298   34.3773 C.3     1  UNL1        0.1109
     30 N           5.4174    4.0883   35.4733 N.pl3   1  UNL1       -0.3142
     31 H           5.2424    5.0516   35.3704 H       1  UNL1        0.1485
     32 C           4.9962    3.3791   36.7261 C.ar    1  UNL1        0.1429
     33 N           5.9676    3.2139   37.8572 N.ar    1  UNL1       -0.2084
     34 C           5.5464    2.5047   39.1100 C.ar    1  UNL1        0.2012
     35 N           4.1538    1.9607   39.2318 N.ar    1  UNL1       -0.2087
     36 C           3.1825    2.1258   38.1008 C.ar    1  UNL1        0.1396
     37 N           1.7899    1.5818   38.2226 N.pl3   1  UNL1       -0.3420
     38 C           3.6037    2.8351   36.8479 C.ar    1  UNL1        0.1308
     39 H           1.5135    1.1163   39.0449 H       1  UNL1        0.1437
     40 H           1.1524    1.6902   37.4803 H       1  UNL1        0.1437
     41 C           2.6323    3.0002   35.7169 C.1     1  UNL1        0.1061
     42 N           1.6610    3.1654   34.5860 N.1     1  UNL1       -0.1906
@<TRIPOS>BOND
     1    29    28    1
     2    29    30    1
     3    30    32    1
     4    32    33   ar
     5    33    34   ar
     6    34    35   ar
     7    35    36   ar
     8    36    37    1
     9    36    38   ar
    10    38    41    1
    11    41    42    3
    12    29     1    1
    13     1     2   ar
    14     2     3   ar
    15     3     4   ar
    16     4     5   ar
    17     5     6   ar
    18     6     7    1
    19     6     8   ar
    20     8     9   ar
    21     9    10   ar
    22    10    12    1
    23    12    13    2
    24    12    14   am
    25    14    15    1
    26    15    16    1
    27    16    17    1
    28    17    18    2
    29    17    19    2
    30    17    20    1
    31    20    21    1
    32    10    11   ar
    33    11    22    1
    34    22    23   ar
    35    23    24   ar
    36    24    25   ar
    37    25    26   ar
    38    26    27   ar
    39    38    32   ar
    40    11     1   ar
    41    27    22   ar
    42     9     3   ar
    43    21    14    1
    44    30    31    1
    45    37    39    1
    46    37    40    1
@<TRIPOS>MOLECULE
*****
 42 46 0 0 0
SMALL
GASTEIGER

@<TRIPOS>ATOM
      1 C           3.7904    2.6783   33.4605 C.ar    1  UNL1        0.0768
      2 N           2.7244    3.1082   32.4967 N.ar    1  UNL1       -0.2480
      3 C           2.1855    2.1343   31.4911 C.ar    1  UNL1        0.0812
      4 C           1.1195    2.5642   30.5273 C.ar    1  UNL1        0.0214
      5 C           0.5807    1.5903   29.5217 C.ar    1  UNL1        0.0312
      6 C           1.1078    0.1866   29.4800 C.ar    1  UNL1        0.1402
      7 F           0.5688   -0.7873   28.4743 F       1  UNL1       -0.2042
      8 C           2.1737   -0.2432   30.4437 C.ar    1  UNL1        0.0313
      9 C           2.7126    0.7306   31.4493 C.ar    1  UNL1        0.0243
     10 C           3.7786    0.3008   32.4131 C.ar    1  UNL1        0.0563
     11 C           4.3175    1.2746   33.4187 C.ar    1  UNL1        0.0196
     12 C           4.3057   -1.1030   32.3713 C.2     1  UNL1        0.2492
     13 O           3.6791   -2.1651   33.2251 O.2     1  UNL1       -0.2699
     14 N           5.4595   -1.4445   31.4757 N.am    1  UNL1       -0.2725
     15 C           6.0862   -0.3823   30.6219 C.3     1  UNL1        0.1190
     16 C           7.2400   -0.7238   29.7263 C.3     1  UNL1        0.1723
     17 S           7.7671   -2.1275   29.6845 S.O2    1  UNL1       -0.0066
     18 O           8.6140   -3.3042   29.2997 O.2     1  UNL1       -0.1729
     19 O           8.6878   -1.4740   28.6970 O.2     1  UNL1       -0.1729
     20 C           7.1404   -3.1897   30.5383 C.3     1  UNL1        0.1723
     21 C           5.9866   -2.8482   31.4339 C.3     1  UNL1        0.1190
     22 C           5.3835    0.8448   34.3825 C.ar    1  UNL1        0.0013
     23 C           6.8301    1.0341   34.0342 C.ar    1  UNL1        0.0000
     24 C           7.8961    0.6043   34.9979 C.ar    1  UNL1        0.0000
     25 C           7.5155   -0.0148   36.3100 C.ar    1  UNL1        0.0000
     26 C           6.0688   -0.2042   36.6584 C.ar    1  UNL1        0.0000
     27 C           5.0028    0.2256   35.6946 C.ar    1  UNL1        0.0000
     28 C           5.6860    4.2606   34.2685 C.3     1  UNL1        0.0278
     29 C           4.3293    3.6522   34.4661 C.3     1  UNL1        0.1109
     30 N           3.5115    4.0176   35.6693 N.pl3   1  UNL1       -0.3142
     31 H           2.9574    4.8313   35.6592 H       1  UNL1        0.1485
     32 C           3.5379    3.1432   36.8877 C.ar    1  UNL1        0.1429
     33 N           2.4922    2.0839   37.0735 N.ar    1  UNL1       -0.2084
     34 C           2.5187    1.2095   38.2920 C.ar    1  UNL1        0.2012
     35 N           3.5908    1.3943   39.3247 N.ar    1  UNL1       -0.2087
     36 C           4.6364    2.4536   39.1389 C.ar    1  UNL1        0.1396
     37 N           5.7085    2.6385   40.1716 N.pl3   1  UNL1       -0.3420
     38 C           4.6100    3.3281   37.9204 C.ar    1  UNL1        0.1308
     39 H           5.7259    2.0645   40.9714 H       1  UNL1        0.1437
     40 H           6.3948    3.3337   40.0497 H       1  UNL1        0.1437
     41 C           5.6557    4.3873   37.7346 C.1     1  UNL1        0.1061
     42 N           6.7013    5.4466   37.5489 N.1     1  UNL1       -0.1906
@<TRIPOS>BOND
     1    29    28    1
     2    29    30    1
     3    30    32    1
     4    32    33   ar
     5    33    34   ar
     6    34    35   ar
     7    35    36   ar
     8    36    37    1
     9    36    38   ar
    10    38    41    1
    11    41    42    3
    12    29     1    1
    13     1     2   ar
    14     2     3   ar
    15     3     4   ar
    16     4     5   ar
    17     5     6   ar
    18     6     7    1
    19     6     8   ar
    20     8     9   ar
    21     9    10   ar
    22    10    12    1
    23    12    13    2
    24    12    14   am
    25    14    15    1
    26    15    16    1
    27    16    17    1
    28    17    18    2
    29    17    19    2
    30    17    20    1
    31    20    21    1
    32    10    11   ar
    33    11    22    1
    34    22    23   ar
    35    23    24   ar
    36    24    25   ar
    37    25    26   ar
    38    26    27   ar
    39    38    32   ar
    40    11     1   ar
    41    27    22   ar
    42     9     3   ar
    43    21    14    1
    44    30    31    1
    45    37    39    1
    46    37    40    1
@<TRIPOS>MOLECULE
*****
 42 46 0 0 0
SMALL
GASTEIGER

@<TRIPOS>ATOM
      1 C           6.1677   -2.8753   26.5393 C.ar    1  UNL1        0.0768
      2 N           6.3473   -4.3212   26.8959 N.ar    1  UNL1       -0.2480
      3 C           7.0563   -5.2445   25.9499 C.ar    1  UNL1        0.0812
      4 C           7.2358   -6.6904   26.3065 C.ar    1  UNL1        0.0214
      5 C           7.9448   -7.6137   25.3606 C.ar    1  UNL1        0.0312
      6 C           8.4742   -7.0911   24.0580 C.ar    1  UNL1        0.1402
      7 F           9.1832   -8.0144   23.1121 F       1  UNL1       -0.2042
      8 C           8.2947   -5.6452   23.7015 C.ar    1  UNL1        0.0313
      9 C           7.5857   -4.7219   24.6474 C.ar    1  UNL1        0.0243
     10 C           7.4061   -3.2760   24.2909 C.ar    1  UNL1        0.0563
     11 C           6.6972   -2.3527   25.2368 C.ar    1  UNL1        0.0196
     12 C           7.9356   -2.7534   22.9883 C.2     1  UNL1        0.2492
     13 O           9.2916   -2.1147   22.9321 O.2     1  UNL1       -0.2699
     14 N           7.1089   -2.8696   21.7420 N.am    1  UNL1       -0.2725
     15 C           5.7529   -3.5083   21.7983 C.3     1  UNL1        0.1190
     16 C           4.9264   -3.6244   20.5520 C.3     1  UNL1        0.1723
     17 S           5.4558   -3.1018   19.2495 S.O2    1  UNL1       -0.0066
     18 O           5.5222   -2.7599   17.7905 O.2     1  UNL1       -0.1729
     19 O           4.1229   -3.6218   18.7990 O.2     1  UNL1       -0.1729
     20 C           6.8118   -2.4631   19.1932 C.3     1  UNL1        0.1723
     21 C           7.6384   -2.3470   20.4395 C.3     1  UNL1        0.1190
     22 C           6.5176   -0.9068   24.8802 C.ar    1  UNL1        0.0013
     23 C           7.5175    0.1101   25.3451 C.ar    1  UNL1        0.0000
     24 C           7.3380    1.5560   24.9886 C.ar    1  UNL1        0.0000
     25 C           6.1586    1.9850   24.1672 C.ar    1  UNL1        0.0000
     26 C           5.1586    0.9682   23.7023 C.ar    1  UNL1        0.0000
     27 C           5.3381   -0.4777   24.0589 C.ar    1  UNL1        0.0000
     28 C           4.0222   -1.5922   27.2467 C.3     1  UNL1        0.0278
     29 C           5.4587   -1.9519   27.4853 C.3     1  UNL1        0.1109
     30 N           6.1862   -1.3884   28.6698 N.pl3   1  UNL1       -0.3142
     31 H           6.6113   -0.5024   28.6106 H       1  UNL1        0.1485
     32 C           6.2661   -2.1748   29.9446 C.ar    1  UNL1        0.1429
     33 N           7.2860   -3.2652   30.0905 N.ar    1  UNL1       -0.2084
     34 C           7.3659   -4.0516   31.3653 C.ar    1  UNL1        0.2012
     35 N           6.4260   -3.7478   32.4942 N.ar    1  UNL1       -0.2087
     36 C           5.4063   -2.6575   32.3483 C.ar    1  UNL1        0.1396
     37 N           4.4664   -2.3537   33.4771 N.pl3   1  UNL1       -0.3420
     38 C           5.3263   -1.8710   31.0734 C.ar    1  UNL1        0.1308
     39 H           4.5189   -2.8699   34.3138 H       1  UNL1        0.1437
     40 H           3.7971   -1.6381   33.3814 H       1  UNL1        0.1437
     41 C           4.3065   -0.7808   30.9276 C.1     1  UNL1        0.1061
     42 N           3.2867    0.3095   30.7817 N.1     1  UNL1       -0.1906
@<TRIPOS>BOND
     1    29    28    1
     2    29    30    1
     3    30    32    1
     4    32    33   ar
     5    33    34   ar
     6    34    35   ar
     7    35    36   ar
     8    36    37    1
     9    36    38   ar
    10    38    41    1
    11    41    42    3
    12    29     1    1
    13     1     2   ar
    14     2     3   ar
    15     3     4   ar
    16     4     5   ar
    17     5     6   ar
    18     6     7    1
    19     6     8   ar
    20     8     9   ar
    21     9    10   ar
    22    10    12    1
    23    12    13    2
    24    12    14   am
    25    14    15    1
    26    15    16    1
    27    16    17    1
    28    17    18    2
    29    17    19    2
    30    17    20    1
    31    20    21    1
    32    10    11   ar
    33    11    22    1
    34    22    23   ar
    35    23    24   ar
    36    24    25   ar
    37    25    26   ar
    38    26    27   ar
    39    38    32   ar
    40    11     1   ar
    41    27    22   ar
    42     9     3   ar
    43    21    14    1
    44    30    31    1
    45    37    39    1
    46    37    40    1
@<TRIPOS>MOLECULE
*****
 42 46 0 0 0
SMALL
GASTEIGER

@<TRIPOS>ATOM
      1 C           4.6769   -1.4783   23.3474 C.ar    1  UNL1        0.0768
      2 N           4.2082   -0.9536   24.6721 N.ar    1  UNL1       -0.2480
      3 C           2.9811   -0.0942   24.7468 C.ar    1  UNL1        0.0812
      4 C           2.5124    0.4306   26.0715 C.ar    1  UNL1        0.0214
      5 C           1.2853    1.2900   26.1461 C.ar    1  UNL1        0.0312
      6 C           0.5268    1.6246   24.8959 C.ar    1  UNL1        0.1402
      7 F          -0.7004    2.4840   24.9706 F       1  UNL1       -0.2042
      8 C           0.9955    1.0998   23.5712 C.ar    1  UNL1        0.0313
      9 C           2.2226    0.2405   23.4966 C.ar    1  UNL1        0.0243
     10 C           2.6913   -0.2844   22.1719 C.ar    1  UNL1        0.0563
     11 C           3.9185   -1.1437   22.0973 C.ar    1  UNL1        0.0196
     12 C           1.9329    0.0502   20.9217 C.2     1  UNL1        0.2492
     13 O           0.9091   -0.9067   20.3868 O.2     1  UNL1       -0.2699
     14 N           2.1983    1.3418   20.2065 N.am    1  UNL1       -0.2725
     15 C           3.2220    2.2987   20.7415 C.3     1  UNL1        0.1190
     16 C           3.4874    3.5902   20.0263 C.3     1  UNL1        0.1723
     17 S           2.7289    3.9249   18.7761 S.O2    1  UNL1       -0.0066
     18 O           2.2708    4.6833   17.5658 O.2     1  UNL1       -0.1729
     19 O           3.5936    5.1452   18.8907 O.2     1  UNL1       -0.1729
     20 C           1.7051    2.9679   18.2412 C.3     1  UNL1        0.1723
     21 C           1.4398    1.6764   18.9564 C.3     1  UNL1        0.1190
     22 C           4.3872   -1.6685   20.7725 C.ar    1  UNL1        0.0013
     23 C           5.3143   -0.8475   19.9261 C.ar    1  UNL1        0.0000
     24 C           5.7830   -1.3723   18.6014 C.ar    1  UNL1        0.0000
     25 C           5.3247   -2.7180   18.1231 C.ar    1  UNL1        0.0000
     26 C           4.3976   -3.5391   18.9696 C.ar    1  UNL1        0.0000
     27 C           3.9289   -3.0143   20.2942 C.ar    1  UNL1        0.0000
     28 C           7.2360   -1.7185   22.9687 C.3     1  UNL1        0.0278
     29 C           5.9041   -2.3377   23.2727 C.3     1  UNL1        0.1109
     30 N           5.7993   -3.8164   23.5022 N.pl3   1  UNL1       -0.3142
     31 H           4.9198   -4.2578   23.4736 H       1  UNL1        0.1485
     32 C           7.0346   -4.6223   23.7752 C.ar    1  UNL1        0.1429
     33 N           7.7317   -5.3304   22.6515 N.ar    1  UNL1       -0.2084
     34 C           8.9669   -6.1364   22.9246 C.ar    1  UNL1        0.2012
     35 N           9.5051   -6.2343   24.3213 N.ar    1  UNL1       -0.2087
     36 C           8.8080   -5.5262   25.4450 C.ar    1  UNL1        0.1396
     37 N           9.3462   -5.6241   26.8417 N.pl3   1  UNL1       -0.3420
     38 C           7.5727   -4.7202   25.1720 C.ar    1  UNL1        0.1308
     39 H          10.1569   -6.1531   27.0209 H       1  UNL1        0.1437
     40 H           8.8886   -5.1593   27.5792 H       1  UNL1        0.1437
     41 C           6.8756   -4.0121   26.2956 C.1     1  UNL1        0.1061
     42 N           6.1785   -3.3040   27.4193 N.1     1  UNL1       -0.1906
@<TRIPOS>BOND
     1    29    28    1
     2    29    30    1
     3    30    32    1
     4    32    33   ar
     5    33    34   ar
     6    34    35   ar
     7    35    36   ar
     8    36    37    1
     9    36    38   ar
    10    38    41    1
    11    41    42    3
    12    29     1    1
    13     1     2   ar
    14     2     3   ar
    15     3     4   ar
    16     4     5   ar
    17     5     6   ar
    18     6     7    1
    19     6     8   ar
    20     8     9   ar
    21     9    10   ar
    22    10    12    1
    23    12    13    2
    24    12    14   am
    25    14    15    1
    26    15    16    1
    27    16    17    1
    28    17    18    2
    29    17    19    2
    30    17    20    1
    31    20    21    1
    32    10    11   ar
    33    11    22    1
    34    22    23   ar
    35    23    24   ar
    36    24    25   ar
    37    25    26   ar
    38    26    27   ar
    39    38    32   ar
    40    11     1   ar
    41    27    22   ar
    42     9     3   ar
    43    21    14    1
    44    30    31    1
    45    37    39    1
    46    37    40    1
@<TRIPOS>MOLECULE
*****
 42 46 0 0 0
SMALL
GASTEIGER

@<TRIPOS>ATOM
      1 C           5.9660   -2.6432   26.4995 C.ar    1  UNL1        0.0768
      2 N           6.1193   -4.0677   26.9436 N.ar    1  UNL1       -0.2480
      3 C           6.8709   -5.0435   26.0874 C.ar    1  UNL1        0.0812
      4 C           7.0242   -6.4680   26.5314 C.ar    1  UNL1        0.0214
      5 C           7.7758   -7.4437   25.6752 C.ar    1  UNL1        0.0312
      6 C           8.3741   -6.9948   24.3750 C.ar    1  UNL1        0.1402
      7 F           9.1258   -7.9706   23.5188 F       1  UNL1       -0.2042
      8 C           8.2209   -5.5703   23.9310 C.ar    1  UNL1        0.0313
      9 C           7.4693   -4.5946   24.7872 C.ar    1  UNL1        0.0243
     10 C           7.3160   -3.1700   24.3431 C.ar    1  UNL1        0.0563
     11 C           6.5643   -2.1943   25.1993 C.ar    1  UNL1        0.0196
     12 C           7.9143   -2.7212   23.0429 C.2     1  UNL1        0.2492
     13 O           9.2970   -2.1404   23.0145 O.2     1  UNL1       -0.2699
     14 N           7.1299   -2.8532   21.7712 N.am    1  UNL1       -0.2725
     15 C           5.7472   -3.4340   21.7996 C.3     1  UNL1        0.1190
     16 C           4.9629   -3.5659   20.5279 C.3     1  UNL1        0.1723
     17 S           5.5612   -3.1171   19.2277 S.O2    1  UNL1       -0.0066
     18 O           5.6955   -2.8361   17.7604 O.2     1  UNL1       -0.1729
     19 O           4.2252   -3.6003   18.7466 O.2     1  UNL1       -0.1729
     20 C           6.9439   -2.5363   19.1992 C.3     1  UNL1        0.1723
     21 C           7.7282   -2.4043   20.4709 C.3     1  UNL1        0.1190
     22 C           6.4110   -0.7697   24.7553 C.ar    1  UNL1        0.0013
     23 C           5.2664   -0.3799   23.8677 C.ar    1  UNL1        0.0000
     24 C           5.1131    1.0446   23.4237 C.ar    1  UNL1        0.0000
     25 C           6.1044    2.0793   23.8673 C.ar    1  UNL1        0.0000
     26 C           7.2490    1.6894   24.7549 C.ar    1  UNL1        0.0000
     27 C           7.4023    0.2649   25.1989 C.ar    1  UNL1        0.0000
     28 C           5.9628   -0.6924   28.2155 C.3     1  UNL1        0.0278
     29 C           5.2144   -1.6674   27.3557 C.3     1  UNL1        0.1109
     30 N           3.7144   -1.6667   27.3521 N.pl3   1  UNL1       -0.3142
     31 H           3.2216   -2.5176   27.4002 H       1  UNL1        0.1485
     32 C           2.9653   -0.3694   27.2751 C.ar    1  UNL1        0.1429
     33 N           2.8012    0.3248   25.9555 N.ar    1  UNL1       -0.2084
     34 C           2.0521    1.6220   25.8785 C.ar    1  UNL1        0.2012
     35 N           1.4670    2.2251   27.1210 N.ar    1  UNL1       -0.2087
     36 C           1.6310    1.5310   28.4406 C.ar    1  UNL1        0.1396
     37 N           1.0459    2.1341   29.6831 N.pl3   1  UNL1       -0.3420
     38 C           2.3802    0.2337   28.5176 C.ar    1  UNL1        0.1308
     39 H           0.5542    2.9855   29.6326 H       1  UNL1        0.1437
     40 H           1.1536    1.6785   30.5492 H       1  UNL1        0.1437
     41 C           2.5442   -0.4605   29.8372 C.1     1  UNL1        0.1061
     42 N           2.7082   -1.1546   31.1567 N.1     1  UNL1       -0.1906
@<TRIPOS>BOND
     1    29    28    1
     2    29    30    1
     3    30    32    1
     4    32    33   ar
     5    33    34   ar
     6    34    35   ar
     7    35    36   ar
     8    36    37    1
     9    36    38   ar
    10    38    41    1
    11    41    42    3
    12    29     1    1
    13     1     2   ar
    14     2     3   ar
    15     3     4   ar
    16     4     5   ar
    17     5     6   ar
    18     6     7    1
    19     6     8   ar
    20     8     9   ar
    21     9    10   ar
    22    10    12    1
    23    12    13    2
    24    12    14   am
    25    14    15    1
    26    15    16    1
    27    16    17    1
    28    17    18    2
    29    17    19    2
    30    17    20    1
    31    20    21    1
    32    10    11   ar
    33    11    22    1
    34    22    23   ar
    35    23    24   ar
    36    24    25   ar
    37    25    26   ar
    38    26    27   ar
    39    38    32   ar
    40    11     1   ar
    41    27    22   ar
    42     9     3   ar
    43    21    14    1
    44    30    31    1
    45    37    39    1
    46    37    40    1
