@<TRIPOS>MOLECULE
*****
 43 45 0 0 0
SMALL
GASTEIGER

@<TRIPOS>ATOM
      1 C           0.1364    2.5039   21.9372 C.ar    1  UNL1        0.0539
      2 S          -1.1039    2.9502   21.2214 S.2     1  UNL1       -0.0619
      3 C          -1.8801    3.8380   22.1485 C.ar    1  UNL1        0.1641
      4 N          -1.1195    3.9403   23.4373 N.ar    1  UNL1       -0.2291
      5 C           0.1268    3.1158   23.3067 C.ar    1  UNL1        0.1414
      6 C           1.1787    2.9349   24.3606 C.2     1  UNL1        0.2674
      7 O           2.5709    3.4417   24.1255 O.2     1  UNL1       -0.2682
      8 N           0.8386    2.2475   25.6496 N.am    1  UNL1       -0.2693
      9 C          -0.5029    1.6911   26.0248 C.3     1  UNL1        0.0997
     10 C          -0.3903    1.0954   27.3969 C.3     1  UNL1        0.0898
     11 C           1.0207    1.2835   27.8695 C.3     1  UNL1        0.2835
     12 F           0.5349    0.5801   29.1021 F       1  UNL1       -0.2024
     13 F           2.3303    1.3246   28.6000 F       1  UNL1       -0.2024
     14 C           1.7802    1.9955   26.7897 C.3     1  UNL1        0.1603
     15 C           3.3262   -0.1966   20.2691 C.ar    1  UNL1        0.1333
     16 C           2.0984   -0.7856   20.8980 C.ar    1  UNL1        0.0208
     17 C           1.0351    0.1146   21.4540 C.ar    1  UNL1        0.0028
     18 C           1.1997    1.6037   21.3812 C.ar    1  UNL1        0.0191
     19 C           2.4275    2.1927   20.7523 C.ar    1  UNL1        0.0700
     20 CL          2.5921    3.6819   20.6794 Cl      1  UNL1       -0.0813
     21 C           3.4908    1.2925   20.1962 C.ar    1  UNL1        0.0867
     22 CL          4.7186    1.8816   19.5673 Cl      1  UNL1       -0.0800
     23 S           4.3895   -1.0968   19.7130 S.O2    1  UNL1        0.0613
     24 O           5.1138   -1.0522   21.0258 O.2     1  UNL1       -0.1530
     25 O           3.6652   -1.1414   18.4003 O.2     1  UNL1       -0.1530
     26 N           5.4527   -1.9970   19.1570 N.3     1  UNL1       -0.1723
     27 H           5.2511   -2.1123   18.1638 H       1  UNL1        0.1491
     28 C           6.9558   -3.7579   20.3360 C.3     1  UNL1        0.0278
     29 C           5.6418   -3.3731   19.7231 C.3     1  UNL1        0.1701
     30 C           4.5170   -4.3644   19.6764 C.3     1  UNL1        0.4118
     31 F           3.3923   -5.3557   19.6297 F       1  UNL1       -0.1685
     32 F           4.7604   -4.5715   18.2109 F       1  UNL1       -0.1685
     33 F           4.2736   -4.1572   21.1420 F       1  UNL1       -0.1685
     34 C          -3.1873    4.5061   21.8407 C.2     1  UNL1        0.2699
     35 O          -3.5140    4.9015   20.4311 O.2     1  UNL1       -0.2679
     36 N          -4.1679    4.7787   22.9426 N.am    1  UNL1       -0.2969
     37 H          -3.9535    4.5191   23.8677 H       1  UNL1        0.1499
     38 C          -5.4752    5.4468   22.6349 C.3     1  UNL1        0.1166
     39 C          -6.7600    4.6884   22.7909 C.3     1  UNL1        0.1064
     40 C          -6.9638    4.7280   21.3053 C.3     1  UNL1        0.0311
     41 C          -6.5562    4.6489   24.2765 C.3     1  UNL1        0.0311
     42 O          -8.0448    3.9301   22.9470 O.3     1  UNL1       -0.3851
     43 H          -8.4460    3.7908   22.0749 H       1  UNL1        0.2103
@<TRIPOS>BOND
     1    29    28    1
     2    29    26    1
     3    26    23    1
     4    23    24    2
     5    23    25    2
     6    23    15    1
     7    15    16   ar
     8    16    17   ar
     9    17    18   ar
    10    18     1    1
    11     1     2   ar
    12     2     3   ar
    13     3    34    1
    14    34    35    2
    15    34    36   am
    16    36    38    1
    17    38    39    1
    18    39    40    1
    19    39    41    1
    20    39    42    1
    21     3     4   ar
    22     4     5   ar
    23     5     6    1
    24     6     7    2
    25     6     8   am
    26     8     9    1
    27     9    10    1
    28    10    11    1
    29    11    12    1
    30    11    13    1
    31    11    14    1
    32    18    19   ar
    33    19    20    1
    34    19    21   ar
    35    21    22    1
    36    29    30    1
    37    30    31    1
    38    30    32    1
    39    30    33    1
    40    21    15   ar
    41     5     1   ar
    42    14     8    1
    43    26    27    1
    44    36    37    1
    45    42    43    1
@<TRIPOS>MOLECULE
*****
 43 45 0 0 0
SMALL
GASTEIGER

@<TRIPOS>ATOM
      1 C           0.7565    3.0516   19.1247 C.ar    1  UNL1        0.0539
      2 S          -0.3645    3.2636   18.1508 S.2     1  UNL1       -0.0619
      3 C          -1.1896    4.4177   18.6378 C.ar    1  UNL1        0.1641
      4 N          -0.5785    4.9190   19.9127 N.ar    1  UNL1       -0.2291
      5 C           0.6242    4.0747   20.2136 C.ar    1  UNL1        0.1414
      6 C           1.5348    4.2268   21.3958 C.2     1  UNL1        0.2674
      7 O           2.7447    5.1086   21.3021 O.2     1  UNL1       -0.2682
      8 N           1.2356    3.4972   22.6718 N.am    1  UNL1       -0.2693
      9 C           0.0692    2.5855   22.9133 C.3     1  UNL1        0.0997
     10 C           0.1630    2.0760   24.3211 C.3     1  UNL1        0.0898
     11 C           1.3871    2.6729   24.9495 C.3     1  UNL1        0.2835
     12 F           0.9615    1.8849   26.1528 F       1  UNL1       -0.2024
     13 F           2.5224    3.1051   25.8296 F       1  UNL1       -0.2024
     14 C           2.0500    3.5513   23.9302 C.3     1  UNL1        0.1603
     15 C           3.9548   -0.1004   18.8311 C.ar    1  UNL1        0.1333
     16 C           4.2000    1.2709   18.2750 C.ar    1  UNL1        0.0208
     17 C           3.1339    2.3216   18.3729 C.ar    1  UNL1        0.0028
     18 C           1.8226    2.0009   19.0268 C.ar    1  UNL1        0.0191
     19 C           1.5774    0.6296   19.5829 C.ar    1  UNL1        0.0700
     20 CL          0.2661    0.3088   20.2369 Cl      1  UNL1       -0.0813
     21 C           2.6435   -0.4211   19.4851 C.ar    1  UNL1        0.0867
     22 CL          2.3983   -1.7925   20.0412 Cl      1  UNL1       -0.0800
     23 S           5.0209   -1.1510   18.7333 S.O2    1  UNL1        0.0613
     24 O           5.5359   -0.7543   20.0851 O.2     1  UNL1       -0.1530
     25 O           4.5059   -1.5478   17.3815 O.2     1  UNL1       -0.1530
     26 N           6.0870   -2.2017   18.6354 N.3     1  UNL1       -0.1723
     27 H           6.0361   -2.5858   17.6919 H       1  UNL1        0.1491
     28 C           7.3049   -3.6914   20.3812 C.3     1  UNL1        0.0278
     29 C           6.0795   -3.3679   19.5787 C.3     1  UNL1        0.1701
     30 C           4.8466   -4.2107   19.7196 C.3     1  UNL1        0.4118
     31 F           3.6138   -5.0535   19.8604 F       1  UNL1       -0.1685
     32 F           4.7543   -3.8335   21.1684 F       1  UNL1       -0.1685
     33 F           4.9390   -4.5879   18.2707 F       1  UNL1       -0.1685
     34 C          -2.4112    4.9731   17.9676 C.2     1  UNL1        0.2699
     35 O          -2.2784    6.0797   16.9638 O.2     1  UNL1       -0.2679
     36 N          -3.7657    4.4217   18.3012 N.am    1  UNL1       -0.2969
     37 H          -3.8529    3.6953   18.9600 H       1  UNL1        0.1499
     38 C          -4.9874    4.9770   17.6310 C.3     1  UNL1        0.1166
     39 C          -6.3520    4.5673   18.1004 C.3     1  UNL1        0.1064
     40 C          -5.7605    3.3605   18.7665 C.3     1  UNL1        0.0311
     41 C          -6.9433    5.7743   17.4343 C.3     1  UNL1        0.0311
     42 O          -7.7165    4.1578   18.5697 O.3     1  UNL1       -0.3851
     43 H          -7.6501    3.3336   19.0770 H       1  UNL1        0.2103
@<TRIPOS>BOND
     1    29    28    1
     2    29    26    1
     3    26    23    1
     4    23    24    2
     5    23    25    2
     6    23    15    1
     7    15    16   ar
     8    16    17   ar
     9    17    18   ar
    10    18     1    1
    11     1     2   ar
    12     2     3   ar
    13     3    34    1
    14    34    35    2
    15    34    36   am
    16    36    38    1
    17    38    39    1
    18    39    40    1
    19    39    41    1
    20    39    42    1
    21     3     4   ar
    22     4     5   ar
    23     5     6    1
    24     6     7    2
    25     6     8   am
    26     8     9    1
    27     9    10    1
    28    10    11    1
    29    11    12    1
    30    11    13    1
    31    11    14    1
    32    18    19   ar
    33    19    20    1
    34    19    21   ar
    35    21    22    1
    36    29    30    1
    37    30    31    1
    38    30    32    1
    39    30    33    1
    40    21    15   ar
    41     5     1   ar
    42    14     8    1
    43    26    27    1
    44    36    37    1
    45    42    43    1
@<TRIPOS>MOLECULE
*****
 43 45 0 0 0
SMALL
GASTEIGER

@<TRIPOS>ATOM
      1 C          -0.1089    2.5287   21.3049 C.ar    1  UNL1        0.0539
      2 S          -1.3584    2.8737   20.5501 S.2     1  UNL1       -0.0619
      3 C          -2.1494    3.8407   21.3803 C.ar    1  UNL1        0.1641
      4 N          -1.3888    4.0934   22.6482 N.ar    1  UNL1       -0.2291
      5 C          -0.1277    3.2825   22.6016 C.ar    1  UNL1        0.1414
      6 C           0.9291    3.2341   23.6650 C.2     1  UNL1        0.2674
      7 O           2.2938    3.7939   23.3922 O.2     1  UNL1       -0.2682
      8 N           0.6214    2.6259   25.0011 N.am    1  UNL1       -0.2693
      9 C          -0.6906    2.0295   25.4171 C.3     1  UNL1        0.0997
     10 C          -0.5513    1.5422   26.8290 C.3     1  UNL1        0.0898
     11 C           0.8467    1.8374   27.2854 C.3     1  UNL1        0.2835
     12 F           0.3944    1.2017   28.5665 F       1  UNL1       -0.2024
     13 F           2.1502    1.9998   28.0098 F       1  UNL1       -0.2024
     14 C           1.5714    2.5071   26.1557 C.3     1  UNL1        0.1603
     15 C           3.1277   -0.2752   19.9220 C.ar    1  UNL1        0.1333
     16 C           1.9090   -0.8169   20.6085 C.ar    1  UNL1        0.0208
     17 C           0.8302    0.1178   21.0695 C.ar    1  UNL1        0.0028
     18 C           0.9700    1.5941   20.8439 C.ar    1  UNL1        0.0191
     19 C           2.1887    2.1357   20.1574 C.ar    1  UNL1        0.0700
     20 CL          2.3286    3.6121   19.9318 Cl      1  UNL1       -0.0813
     21 C           3.2675    1.2011   19.6965 C.ar    1  UNL1        0.0867
     22 CL          4.4863    1.7428   19.0099 Cl      1  UNL1       -0.0800
     23 S           4.2066   -1.2099   19.4610 S.O2    1  UNL1        0.0613
     24 O           4.8842   -1.0849   20.7934 O.2     1  UNL1       -0.1530
     25 O           3.5290   -1.3349   18.1286 O.2     1  UNL1       -0.1530
     26 N           5.2855   -2.1445   19.0001 N.3     1  UNL1       -0.1723
     27 H           5.1069   -2.3370   18.0144 H       1  UNL1        0.1491
     28 C           6.7803   -3.8169   20.3109 C.3     1  UNL1        0.0278
     29 C           5.4665   -3.4719   19.6747 C.3     1  UNL1        0.1701
     30 C           4.3337   -4.4544   19.7130 C.3     1  UNL1        0.4118
     31 F           3.2009   -5.4369   19.7514 F       1  UNL1       -0.1685
     32 F           4.1128   -4.1431   21.1637 F       1  UNL1       -0.1685
     33 F           4.5545   -4.7657   18.2624 F       1  UNL1       -0.1685
     34 C          -3.4693    4.4482   21.0080 C.2     1  UNL1        0.2699
     35 O          -4.4785    4.7604   22.0730 O.2     1  UNL1       -0.2679
     36 N          -3.7802    4.7437   19.5706 N.am    1  UNL1       -0.2969
     37 H          -3.1179    4.5388   18.8716 H       1  UNL1        0.1499
     38 C          -5.1001    5.3512   19.1982 C.3     1  UNL1        0.1166
     39 C          -6.2799    4.4681   18.9182 C.3     1  UNL1        0.1064
     40 C          -7.1430    5.3510   19.7700 C.3     1  UNL1        0.0311
     41 C          -5.4167    3.5852   18.0663 C.3     1  UNL1        0.0311
     42 O          -7.4596    3.5850   18.6381 O.3     1  UNL1       -0.3851
     43 H          -8.2401    3.9329   19.0970 H       1  UNL1        0.2103
@<TRIPOS>BOND
     1    29    28    1
     2    29    26    1
     3    26    23    1
     4    23    24    2
     5    23    25    2
     6    23    15    1
     7    15    16   ar
     8    16    17   ar
     9    17    18   ar
    10    18     1    1
    11     1     2   ar
    12     2     3   ar
    13     3    34    1
    14    34    35    2
    15    34    36   am
    16    36    38    1
    17    38    39    1
    18    39    40    1
    19    39    41    1
    20    39    42    1
    21     3     4   ar
    22     4     5   ar
    23     5     6    1
    24     6     7    2
    25     6     8   am
    26     8     9    1
    27     9    10    1
    28    10    11    1
    29    11    12    1
    30    11    13    1
    31    11    14    1
    32    18    19   ar
    33    19    20    1
    34    19    21   ar
    35    21    22    1
    36    29    30    1
    37    30    31    1
    38    30    32    1
    39    30    33    1
    40    21    15   ar
    41     5     1   ar
    42    14     8    1
    43    26    27    1
    44    36    37    1
    45    42    43    1
@<TRIPOS>MOLECULE
*****
 43 45 0 0 0
SMALL
GASTEIGER

@<TRIPOS>ATOM
      1 C           4.0727   -0.4106   29.5378 C.ar    1  UNL1        0.0539
      2 S           5.3088   -1.0320   28.9583 S.2     1  UNL1       -0.0619
      3 C           4.9615   -1.5812   27.6063 C.ar    1  UNL1        0.1641
      4 N           3.5107   -1.2992   27.3502 N.ar    1  UNL1       -0.2291
      5 C           2.9614   -0.5758   28.5439 C.ar    1  UNL1        0.1414
      6 C           1.5487   -0.1008   28.7139 C.2     1  UNL1        0.2674
      7 O           0.7735   -0.4772   29.9418 O.2     1  UNL1       -0.2682
      8 N           0.9112    0.7504   27.6562 N.am    1  UNL1       -0.2693
      9 C           1.5584    1.2047   26.3815 C.3     1  UNL1        0.0997
     10 C           0.5617    2.0320   25.6249 C.3     1  UNL1        0.0898
     11 C          -0.7013    2.0888   26.4319 C.3     1  UNL1        0.2835
     12 F          -1.2033    2.9295   25.2956 F       1  UNL1       -0.2024
     13 F          -2.0695    2.3214   27.0014 F       1  UNL1       -0.2024
     14 C          -0.4854    1.2968   27.6873 C.3     1  UNL1        0.1603
     15 C           3.7540    1.5965   33.5528 C.ar    1  UNL1        0.1333
     16 C           3.5790    2.3985   32.2974 C.ar    1  UNL1        0.0208
     17 C           3.6852    1.7294   30.9590 C.ar    1  UNL1        0.0028
     18 C           3.9665    0.2584   30.8761 C.ar    1  UNL1        0.0191
     19 C           4.1415   -0.5436   32.1315 C.ar    1  UNL1        0.0700
     20 CL          4.4227   -2.0147   32.0487 Cl      1  UNL1       -0.0813
     21 C           4.0353    0.1254   33.4699 C.ar    1  UNL1        0.0867
     22 CL          4.2103   -0.6767   34.7253 Cl      1  UNL1       -0.0800
     23 S           3.6478    2.2655   34.8911 S.O2    1  UNL1        0.0613
     24 O           2.1555    2.1212   34.8448 O.2     1  UNL1       -0.1530
     25 O           5.1402    2.4097   34.9374 O.2     1  UNL1       -0.1530
     26 N           3.5416    2.9345   36.2294 N.3     1  UNL1       -0.1723
     27 H           4.4587    3.3315   36.4338 H       1  UNL1        0.1491
     28 C           3.9965    1.0083   37.9126 C.3     1  UNL1        0.0278
     29 C           3.1353    2.1399   37.4350 C.3     1  UNL1        0.1701
     30 C           1.8678    2.4768   38.1631 C.3     1  UNL1        0.4118
     31 F           0.6004    2.8136   38.8911 F       1  UNL1       -0.1685
     32 F           1.8907    1.1312   38.8255 F       1  UNL1       -0.1685
     33 F           1.8450    3.8224   37.5006 F       1  UNL1       -0.1685
     34 C           5.9002   -2.2882   26.6742 C.2     1  UNL1        0.2699
     35 O           6.6156   -1.5183   25.6038 O.2     1  UNL1       -0.2679
     36 N           6.1235   -3.7650   26.8123 N.am    1  UNL1       -0.2969
     37 H           5.6540   -4.2702   27.5148 H       1  UNL1        0.1499
     38 C           7.0623   -4.4720   25.8801 C.3     1  UNL1        0.1166
     39 C           7.1702   -5.9677   25.9165 C.3     1  UNL1        0.1064
     40 C           6.5403   -5.9801   27.2778 C.3     1  UNL1        0.0311
     41 C           7.8001   -5.9553   24.5551 C.3     1  UNL1        0.0311
     42 O           7.2782   -7.4634   25.9528 O.3     1  UNL1       -0.3851
     43 H           6.9174   -7.7934   26.7905 H       1  UNL1        0.2103
@<TRIPOS>BOND
     1    29    28    1
     2    29    26    1
     3    26    23    1
     4    23    24    2
     5    23    25    2
     6    23    15    1
     7    15    16   ar
     8    16    17   ar
     9    17    18   ar
    10    18     1    1
    11     1     2   ar
    12     2     3   ar
    13     3    34    1
    14    34    35    2
    15    34    36   am
    16    36    38    1
    17    38    39    1
    18    39    40    1
    19    39    41    1
    20    39    42    1
    21     3     4   ar
    22     4     5   ar
    23     5     6    1
    24     6     7    2
    25     6     8   am
    26     8     9    1
    27     9    10    1
    28    10    11    1
    29    11    12    1
    30    11    13    1
    31    11    14    1
    32    18    19   ar
    33    19    20    1
    34    19    21   ar
    35    21    22    1
    36    29    30    1
    37    30    31    1
    38    30    32    1
    39    30    33    1
    40    21    15   ar
    41     5     1   ar
    42    14     8    1
    43    26    27    1
    44    36    37    1
    45    42    43    1
@<TRIPOS>MOLECULE
*****
 43 45 0 0 0
SMALL
GASTEIGER

@<TRIPOS>ATOM
      1 C           5.0346   -0.4664   26.3836 C.ar    1  UNL1        0.0539
      2 S           6.0474   -1.2055   27.2071 S.2     1  UNL1       -0.0619
      3 C           5.7079   -0.9998   28.6536 C.ar    1  UNL1        0.1641
      4 N           4.4853   -0.1336   28.7242 N.ar    1  UNL1       -0.2291
      5 C           4.0693    0.1961   27.3213 C.ar    1  UNL1        0.1414
      6 C           2.8941    1.0400   26.9255 C.2     1  UNL1        0.2674
      7 O           3.0656    2.1410   25.9212 O.2     1  UNL1       -0.2682
      8 N           1.5474    0.7832   27.5340 N.am    1  UNL1       -0.2693
      9 C           1.2245   -0.2763   28.5456 C.3     1  UNL1        0.0997
     10 C          -0.2354   -0.1736   28.8745 C.3     1  UNL1        0.0898
     11 C          -0.8148    0.9493   28.0662 C.3     1  UNL1        0.2835
     12 F          -2.0936    0.5764   28.7558 F       1  UNL1       -0.2024
     13 F          -1.6616    1.9942   27.4020 F       1  UNL1       -0.2024
     14 C           0.2870    1.5406   27.2377 C.3     1  UNL1        0.1603
     15 C           4.9138   -0.2708   21.8895 C.ar    1  UNL1        0.1333
     16 C           4.2287   -1.3939   22.6100 C.ar    1  UNL1        0.0208
     17 C           4.2690   -1.4591   24.1081 C.ar    1  UNL1        0.0028
     18 C           4.9944   -0.4012   24.8856 C.ar    1  UNL1        0.0191
     19 C           5.6795    0.7219   24.1651 C.ar    1  UNL1        0.0700
     20 CL          6.4049    1.7799   24.9426 Cl      1  UNL1       -0.0813
     21 C           5.6392    0.7872   22.6671 C.ar    1  UNL1        0.0867
     22 CL          6.3243    1.9104   21.9465 Cl      1  UNL1       -0.0800
     23 S           4.8735   -0.2055   20.3915 S.O2    1  UNL1        0.0613
     24 O           3.5611    0.5177   20.4583 O.2     1  UNL1       -0.1530
     25 O           6.1860   -0.9288   20.3247 O.2     1  UNL1       -0.1530
     26 N           4.8332   -0.1403   18.8934 N.3     1  UNL1       -0.1723
     27 H           4.3825    0.7414   18.6491 H       1  UNL1        0.1491
     28 C           3.5982   -0.9198   16.7447 C.3     1  UNL1        0.0278
     29 C           4.1338   -1.2146   18.1145 C.3     1  UNL1        0.1701
     30 C           3.9699   -2.5835   18.7053 C.3     1  UNL1        0.4118
     31 F           3.8060   -3.9525   19.2962 F       1  UNL1       -0.1685
     32 F           5.2629   -3.0100   18.0759 F       1  UNL1       -0.1685
     33 F           2.6768   -2.1571   19.3347 F       1  UNL1       -0.1685
     34 C           6.4591   -1.5617   29.8241 C.2     1  UNL1        0.2699
     35 O           6.7774   -0.6875   31.0007 O.2     1  UNL1       -0.2679
     36 N           6.8921   -2.9979   29.8179 N.am    1  UNL1       -0.2969
     37 H           6.6832   -3.5716   29.0456 H       1  UNL1        0.1499
     38 C           7.6433   -3.5598   30.9883 C.3     1  UNL1        0.1166
     39 C           7.1025   -4.7490   31.7256 C.3     1  UNL1        0.1064
     40 C           8.0363   -5.6443   30.9663 C.3     1  UNL1        0.0311
     41 C           6.1687   -3.8536   32.4848 C.3     1  UNL1        0.0311
     42 O           6.5618   -5.9381   32.4628 O.3     1  UNL1       -0.3851
     43 H           7.0145   -6.7403   32.1588 H       1  UNL1        0.2103
@<TRIPOS>BOND
     1    29    28    1
     2    29    26    1
     3    26    23    1
     4    23    24    2
     5    23    25    2
     6    23    15    1
     7    15    16   ar
     8    16    17   ar
     9    17    18   ar
    10    18     1    1
    11     1     2   ar
    12     2     3   ar
    13     3    34    1
    14    34    35    2
    15    34    36   am
    16    36    38    1
    17    38    39    1
    18    39    40    1
    19    39    41    1
    20    39    42    1
    21     3     4   ar
    22     4     5   ar
    23     5     6    1
    24     6     7    2
    25     6     8   am
    26     8     9    1
    27     9    10    1
    28    10    11    1
    29    11    12    1
    30    11    13    1
    31    11    14    1
    32    18    19   ar
    33    19    20    1
    34    19    21   ar
    35    21    22    1
    36    29    30    1
    37    30    31    1
    38    30    32    1
    39    30    33    1
    40    21    15   ar
    41     5     1   ar
    42    14     8    1
    43    26    27    1
    44    36    37    1
    45    42    43    1
@<TRIPOS>MOLECULE
*****
 43 45 0 0 0
SMALL
GASTEIGER

@<TRIPOS>ATOM
      1 C           2.4525    0.8619   22.1210 C.ar    1  UNL1        0.0539
      2 S           1.1344    1.4921   22.4607 S.2     1  UNL1       -0.0619
      3 C           0.5606    2.0737   21.2027 C.ar    1  UNL1        0.1641
      4 N           1.5241    1.8029   20.0854 N.ar    1  UNL1       -0.2291
      5 C           2.6934    1.0540   20.6530 C.ar    1  UNL1        0.1414
      6 C           3.8929    0.5803   19.8870 C.2     1  UNL1        0.2674
      7 O           4.9757    1.5494   19.5146 O.2     1  UNL1       -0.2682
      8 N           4.0098   -0.8623   19.4933 N.am    1  UNL1       -0.2693
      9 C           3.0124   -1.9417   19.7937 C.3     1  UNL1        0.0997
     10 C           3.5308   -3.2255   19.2162 C.3     1  UNL1        0.0898
     11 C           4.8483   -2.9394   18.5590 C.3     1  UNL1        0.2835
     12 F           4.8268   -4.4041   18.2362 F       1  UNL1       -0.2024
     13 F           6.1615   -2.9596   17.8342 F       1  UNL1       -0.2024
     14 C           5.1444   -1.4789   18.7302 C.3     1  UNL1        0.1603
     15 C           5.2014   -1.2364   25.0003 C.ar    1  UNL1        0.1333
     16 C           4.3148   -2.0357   24.0921 C.ar    1  UNL1        0.0208
     17 C           3.3985   -1.3363   23.1323 C.ar    1  UNL1        0.0028
     18 C           3.3688    0.1625   23.0808 C.ar    1  UNL1        0.0191
     19 C           4.2554    0.9618   23.9890 C.ar    1  UNL1        0.0700
     20 CL          4.2257    2.4607   23.9375 Cl      1  UNL1       -0.0813
     21 C           5.1717    0.2624   24.9488 C.ar    1  UNL1        0.0867
     22 CL          6.0583    1.0618   25.8570 Cl      1  UNL1       -0.0800
     23 S           6.1177   -1.9358   25.9601 S.O2    1  UNL1        0.0613
     24 O           7.2192   -1.8886   24.9429 O.2     1  UNL1       -0.1530
     25 O           5.0163   -1.9831   26.9772 O.2     1  UNL1       -0.1530
     26 N           7.0341   -2.6353   26.9198 N.3     1  UNL1       -0.1723
     27 H           7.9813   -2.5206   26.5593 H       1  UNL1        0.1491
     28 C           6.8651   -5.0852   26.0718 C.3     1  UNL1        0.0278
     29 C           6.8517   -4.0974   27.2006 C.3     1  UNL1        0.1701
     30 C           6.6560   -4.5718   28.6100 C.3     1  UNL1        0.4118
     31 F           6.4603   -5.0462   30.0195 F       1  UNL1       -0.1685
     32 F           7.6989   -3.6021   29.0812 F       1  UNL1       -0.1685
     33 F           5.6131   -5.5415   28.1388 F       1  UNL1       -0.1685
     34 C          -0.7471    2.7987   21.0830 C.2     1  UNL1        0.2699
     35 O          -1.2968    3.1353   19.7285 O.2     1  UNL1       -0.2679
     36 N          -1.5050    3.1871   22.3177 N.am    1  UNL1       -0.2969
     37 H          -1.1443    2.9661   23.2067 H       1  UNL1        0.1499
     38 C          -2.8127    3.9121   22.1980 C.3     1  UNL1        0.1166
     39 C          -4.0356    3.3702   22.8771 C.3     1  UNL1        0.1064
     40 C          -4.6711    3.1286   21.5400 C.3     1  UNL1        0.0311
     41 C          -3.4000    3.6118   24.2142 C.3     1  UNL1        0.0311
     42 O          -5.2584    2.8284   23.5562 O.3     1  UNL1       -0.3851
     43 H          -5.9094    2.5643   22.8874 H       1  UNL1        0.2103
@<TRIPOS>BOND
     1    29    28    1
     2    29    26    1
     3    26    23    1
     4    23    24    2
     5    23    25    2
     6    23    15    1
     7    15    16   ar
     8    16    17   ar
     9    17    18   ar
    10    18     1    1
    11     1     2   ar
    12     2     3   ar
    13     3    34    1
    14    34    35    2
    15    34    36   am
    16    36    38    1
    17    38    39    1
    18    39    40    1
    19    39    41    1
    20    39    42    1
    21     3     4   ar
    22     4     5   ar
    23     5     6    1
    24     6     7    2
    25     6     8   am
    26     8     9    1
    27     9    10    1
    28    10    11    1
    29    11    12    1
    30    11    13    1
    31    11    14    1
    32    18    19   ar
    33    19    20    1
    34    19    21   ar
    35    21    22    1
    36    29    30    1
    37    30    31    1
    38    30    32    1
    39    30    33    1
    40    21    15   ar
    41     5     1   ar
    42    14     8    1
    43    26    27    1
    44    36    37    1
    45    42    43    1
@<TRIPOS>MOLECULE
*****
 43 45 0 0 0
SMALL
GASTEIGER

@<TRIPOS>ATOM
      1 C           3.7149    0.8453   32.2853 C.ar    1  UNL1        0.0539
      2 S           3.9197    1.6006   33.5649 S.2     1  UNL1       -0.0619
      3 C           2.6812    2.4035   33.8327 C.ar    1  UNL1        0.1641
      4 N           1.7109    2.1442   32.7184 N.ar    1  UNL1       -0.2291
      5 C           2.3498    1.1812   31.7622 C.ar    1  UNL1        0.1414
      6 C           1.7320    0.6479   30.5036 C.2     1  UNL1        0.2674
      7 O           1.7450   -0.8267   30.2283 O.2     1  UNL1       -0.2682
      8 N           1.1014    1.5888   29.5205 N.am    1  UNL1       -0.2693
      9 C           1.0132    3.0798   29.6590 C.3     1  UNL1        0.0997
     10 C           0.3054    3.6166   28.4502 C.3     1  UNL1        0.0898
     11 C          -0.0438    2.4574   27.5648 C.3     1  UNL1        0.2835
     12 F          -0.6345    3.5144   26.6795 F       1  UNL1       -0.2024
     13 F          -0.5165    1.5191   26.4941 F       1  UNL1       -0.2024
     14 C           0.4481    1.2042   28.2262 C.3     1  UNL1        0.1603
     15 C           6.6758   -1.9397   30.3549 C.ar    1  UNL1        0.1333
     16 C           6.3976   -0.5991   29.7423 C.ar    1  UNL1        0.0208
     17 C           5.4106    0.3292   30.3858 C.ar    1  UNL1        0.0028
     18 C           4.7019   -0.0831   31.6418 C.ar    1  UNL1        0.0191
     19 C           4.9801   -1.4237   32.2544 C.ar    1  UNL1        0.0700
     20 CL          4.2713   -1.8360   33.5105 Cl      1  UNL1       -0.0813
     21 C           5.9671   -2.3520   31.6109 C.ar    1  UNL1        0.0867
     22 CL          6.2453   -3.6927   32.2235 Cl      1  UNL1       -0.0800
     23 S           7.6628   -2.8681   29.7114 S.O2    1  UNL1        0.0613
     24 O           6.6173   -3.2955   28.7244 O.2     1  UNL1       -0.1530
     25 O           8.7083   -2.4406   30.6984 O.2     1  UNL1       -0.1530
     26 N           8.6498   -3.7964   29.0679 N.3     1  UNL1       -0.1723
     27 H           8.6567   -3.5747   28.0723 H       1  UNL1        0.1491
     28 C           8.6291   -6.1501   27.9681 C.3     1  UNL1        0.0278
     29 C           8.4662   -5.2809   29.1797 C.3     1  UNL1        0.1701
     30 C           8.1198   -5.8962   30.5031 C.3     1  UNL1        0.4118
     31 F           7.7734   -6.5115   31.8265 F       1  UNL1       -0.1685
     32 F           6.7038   -6.0836   30.0453 F       1  UNL1       -0.1685
     33 F           9.5359   -5.7088   30.9609 F       1  UNL1       -0.1685
     34 C           2.4530    3.3068   35.0082 C.2     1  UNL1        0.2699
     35 O           2.5803    4.7928   34.8480 O.2     1  UNL1       -0.2679
     36 N           2.0975    2.7242   36.3439 N.am    1  UNL1       -0.2969
     37 H           2.0139    1.7489   36.4490 H       1  UNL1        0.1499
     38 C           1.8693    3.6276   37.5194 C.3     1  UNL1        0.1166
     39 C           2.6485    3.4230   38.7849 C.3     1  UNL1        0.1064
     40 C           3.5465    4.5667   38.4168 C.3     1  UNL1        0.0311
     41 C           1.7503    2.2792   39.1528 C.3     1  UNL1        0.0311
     42 O           3.4275    3.2184   40.0502 O.3     1  UNL1       -0.3851
     43 H           4.1430    3.8715   40.0987 H       1  UNL1        0.2103
@<TRIPOS>BOND
     1    29    28    1
     2    29    26    1
     3    26    23    1
     4    23    24    2
     5    23    25    2
     6    23    15    1
     7    15    16   ar
     8    16    17   ar
     9    17    18   ar
    10    18     1    1
    11     1     2   ar
    12     2     3   ar
    13     3    34    1
    14    34    35    2
    15    34    36   am
    16    36    38    1
    17    38    39    1
    18    39    40    1
    19    39    41    1
    20    39    42    1
    21     3     4   ar
    22     4     5   ar
    23     5     6    1
    24     6     7    2
    25     6     8   am
    26     8     9    1
    27     9    10    1
    28    10    11    1
    29    11    12    1
    30    11    13    1
    31    11    14    1
    32    18    19   ar
    33    19    20    1
    34    19    21   ar
    35    21    22    1
    36    29    30    1
    37    30    31    1
    38    30    32    1
    39    30    33    1
    40    21    15   ar
    41     5     1   ar
    42    14     8    1
    43    26    27    1
    44    36    37    1
    45    42    43    1
@<TRIPOS>MOLECULE
*****
 43 45 0 0 0
SMALL
GASTEIGER

@<TRIPOS>ATOM
      1 C           2.8737    1.4016   31.7997 C.ar    1  UNL1        0.0539
      2 S           2.9068    2.2850   33.0114 S.2     1  UNL1       -0.0619
      3 C           1.6062    3.0293   33.0782 C.ar    1  UNL1        0.1641
      4 N           0.7692    2.6058   31.9077 N.ar    1  UNL1       -0.2291
      5 C           1.5526    1.5998   31.1176 C.ar    1  UNL1        0.1414
      6 C           1.0951    0.9127   29.8651 C.2     1  UNL1        0.2674
      7 O           1.1147   -0.5849   29.7813 O.2     1  UNL1       -0.2682
      8 N           0.6180    1.7230   28.6965 N.am    1  UNL1       -0.2693
      9 C           0.5421    3.2198   28.6338 C.3     1  UNL1        0.0997
     10 C           0.0102    3.6007   27.2839 C.3     1  UNL1        0.0898
     11 C          -0.2426    2.3394   26.5125 C.3     1  UNL1        0.2835
     12 F          -0.6906    3.2772   25.4310 F       1  UNL1       -0.2024
     13 F          -0.5891    1.2741   25.5149 F       1  UNL1       -0.2024
     14 C           0.1331    1.1790   27.3855 C.3     1  UNL1        0.1603
     15 C           6.1605   -1.3589   30.4482 C.ar    1  UNL1        0.1333
     16 C           5.1673   -1.8206   31.4730 C.ar    1  UNL1        0.0208
     17 C           4.0717   -0.9005   31.9235 C.ar    1  UNL1        0.0028
     18 C           3.9693    0.4814   31.3492 C.ar    1  UNL1        0.0191
     19 C           4.9625    0.9431   30.3244 C.ar    1  UNL1        0.0700
     20 CL          4.8601    2.3251   29.7500 Cl      1  UNL1       -0.0813
     21 C           6.0581    0.0230   29.8739 C.ar    1  UNL1        0.0867
     22 CL          7.0514    0.4847   28.8490 Cl      1  UNL1       -0.0800
     23 S           7.2561   -2.2791   29.9977 S.O2    1  UNL1        0.0613
     24 O           8.1030   -1.8370   31.1542 O.2     1  UNL1       -0.1530
     25 O           6.4093   -2.7212   28.8412 O.2     1  UNL1       -0.1530
     26 N           8.3518   -3.1992   29.5472 N.3     1  UNL1       -0.1723
     27 H           8.5390   -2.9775   28.5694 H       1  UNL1        0.1491
     28 C           8.6750   -5.5656   28.5245 C.3     1  UNL1        0.0278
     29 C           8.1629   -4.6852   29.6257 C.3     1  UNL1        0.1701
     30 C           7.4620   -5.2908   30.8055 C.3     1  UNL1        0.4118
     31 F           6.7610   -5.8965   31.9853 F       1  UNL1       -0.1685
     32 F           8.6109   -4.9016   31.6879 F       1  UNL1       -0.1685
     33 F           6.3131   -5.6800   29.9232 F       1  UNL1       -0.1685
     34 C           1.2118    4.0227   34.1307 C.2     1  UNL1        0.2699
     35 O           1.5914    3.7885   35.5629 O.2     1  UNL1       -0.2679
     36 N           0.4379    5.2502   33.7510 N.am    1  UNL1       -0.2969
     37 H           0.1887    5.4038   32.8110 H       1  UNL1        0.1499
     38 C           0.0435    6.2435   34.8035 C.3     1  UNL1        0.1166
     39 C          -1.3976    6.6242   34.9731 C.3     1  UNL1        0.1064
     40 C          -1.1287    7.0068   36.3983 C.3     1  UNL1        0.0311
     41 C          -1.6663    6.2416   33.5477 C.3     1  UNL1        0.0311
     42 O          -2.8385    7.0048   35.1426 O.3     1  UNL1       -0.3851
     43 H          -2.9853    7.3202   36.0481 H       1  UNL1        0.2103
@<TRIPOS>BOND
     1    29    28    1
     2    29    26    1
     3    26    23    1
     4    23    24    2
     5    23    25    2
     6    23    15    1
     7    15    16   ar
     8    16    17   ar
     9    17    18   ar
    10    18     1    1
    11     1     2   ar
    12     2     3   ar
    13     3    34    1
    14    34    35    2
    15    34    36   am
    16    36    38    1
    17    38    39    1
    18    39    40    1
    19    39    41    1
    20    39    42    1
    21     3     4   ar
    22     4     5   ar
    23     5     6    1
    24     6     7    2
    25     6     8   am
    26     8     9    1
    27     9    10    1
    28    10    11    1
    29    11    12    1
    30    11    13    1
    31    11    14    1
    32    18    19   ar
    33    19    20    1
    34    19    21   ar
    35    21    22    1
    36    29    30    1
    37    30    31    1
    38    30    32    1
    39    30    33    1
    40    21    15   ar
    41     5     1   ar
    42    14     8    1
    43    26    27    1
    44    36    37    1
    45    42    43    1
@<TRIPOS>MOLECULE
*****
 43 45 0 0 0
SMALL
GASTEIGER

@<TRIPOS>ATOM
      1 C           4.1995    0.5314   32.2242 C.ar    1  UNL1        0.0539
      2 S           4.6059    0.9660   33.6012 S.2     1  UNL1       -0.0619
      3 C           3.4478    1.6921   34.2188 C.ar    1  UNL1        0.1641
      4 N           2.3256    1.7063   33.2235 N.ar    1  UNL1       -0.2291
      5 C           2.7902    0.9889   31.9909 C.ar    1  UNL1        0.1414
      6 C           1.9866    0.7679   30.7437 C.2     1  UNL1        0.2674
      7 O           1.7442   -0.6259   30.2448 O.2     1  UNL1       -0.2682
      8 N           1.4253    1.9405   29.9955 N.am    1  UNL1       -0.2693
      9 C           1.5840    3.3840   30.3713 C.3     1  UNL1        0.0997
     10 C           0.8635    4.2112   29.3481 C.3     1  UNL1        0.0898
     11 C           0.2596    3.2789   28.3401 C.3     1  UNL1        0.2835
     12 F          -0.2355    4.5426   27.7014 F       1  UNL1       -0.2024
     13 F          -0.4478    2.6108   27.1984 F       1  UNL1       -0.2024
     14 C           0.6068    1.8756   28.7402 C.3     1  UNL1        0.1603
     15 C           6.7589   -1.7453   29.3059 C.ar    1  UNL1        0.1333
     16 C           6.4923   -0.2851   29.0895 C.ar    1  UNL1        0.0208
     17 C           5.6392    0.4737   30.0623 C.ar    1  UNL1        0.0028
     18 C           5.0527   -0.2275   31.2515 C.ar    1  UNL1        0.0191
     19 C           5.3193   -1.6876   31.4679 C.ar    1  UNL1        0.0700
     20 CL          4.7328   -2.3890   32.6571 Cl      1  UNL1       -0.0813
     21 C           6.1724   -2.4465   30.4951 C.ar    1  UNL1        0.0867
     22 CL          6.4390   -3.9067   30.7116 Cl      1  UNL1       -0.0800
     23 S           7.6121   -2.5042   28.3332 S.O2    1  UNL1        0.0613
     24 O           6.4261   -2.6828   27.4324 O.2     1  UNL1       -0.1530
     25 O           8.7981   -2.3255   29.2340 O.2     1  UNL1       -0.1530
     26 N           8.4652   -3.2630   27.3604 N.3     1  UNL1       -0.1723
     27 H           8.4515   -2.7389   26.4855 H       1  UNL1        0.1491
     28 C           8.0396   -5.1098   25.5832 C.3     1  UNL1        0.0278
     29 C           8.1300   -4.6846   27.0189 C.3     1  UNL1        0.1701
     30 C           7.8851   -5.6811   28.1131 C.3     1  UNL1        0.4118
     31 F           7.6403   -6.6775   29.2072 F       1  UNL1       -0.1685
     32 F           9.3029   -5.5211   28.5761 F       1  UNL1       -0.1685
     33 F           6.4674   -5.8411   27.6501 F       1  UNL1       -0.1685
     34 C           3.4172    2.2977   35.5908 C.2     1  UNL1        0.2699
     35 O           4.5613    3.1457   36.0620 O.2     1  UNL1       -0.2679
     36 N           2.2426    2.0553   36.4915 N.am    1  UNL1       -0.2969
     37 H           1.4917    1.4987   36.1823 H       1  UNL1        0.1499
     38 C           2.2120    2.6609   37.8635 C.3     1  UNL1        0.1166
     39 C           1.8310    1.8202   39.0461 C.3     1  UNL1        0.1064
     40 C           3.1474    1.1060   38.9623 C.3     1  UNL1        0.0311
     41 C           0.5146    2.5345   39.1297 C.3     1  UNL1        0.0311
     42 O           1.4501    0.9796   40.2285 O.3     1  UNL1       -0.3851
     43 H           2.1705    0.3629   40.4324 H       1  UNL1        0.2103
@<TRIPOS>BOND
     1    29    28    1
     2    29    26    1
     3    26    23    1
     4    23    24    2
     5    23    25    2
     6    23    15    1
     7    15    16   ar
     8    16    17   ar
     9    17    18   ar
    10    18     1    1
    11     1     2   ar
    12     2     3   ar
    13     3    34    1
    14    34    35    2
    15    34    36   am
    16    36    38    1
    17    38    39    1
    18    39    40    1
    19    39    41    1
    20    39    42    1
    21     3     4   ar
    22     4     5   ar
    23     5     6    1
    24     6     7    2
    25     6     8   am
    26     8     9    1
    27     9    10    1
    28    10    11    1
    29    11    12    1
    30    11    13    1
    31    11    14    1
    32    18    19   ar
    33    19    20    1
    34    19    21   ar
    35    21    22    1
    36    29    30    1
    37    30    31    1
    38    30    32    1
    39    30    33    1
    40    21    15   ar
    41     5     1   ar
    42    14     8    1
    43    26    27    1
    44    36    37    1
    45    42    43    1
