@<TRIPOS>MOLECULE
*****
 24 26 0 0 0
SMALL
GASTEIGER

@<TRIPOS>ATOM
      1 C          -6.4080  -19.9918   20.2270 C.3     1  UNL1        0.1154
      2 C          -6.4466  -20.4652   22.1774 C.3     1  UNL1        0.0335
      3 C          -5.3835  -19.8535   21.3139 C.3     1  UNL1        0.1377
      4 C          -4.5347  -19.2707   20.2231 C.3     1  UNL1        0.0613
      5 C          -3.2077  -18.9000   20.8164 C.3     1  UNL1        0.1290
      6 C          -1.9363  -18.5829   21.5464 C.3     1  UNL1        0.0305
      7 C          -0.7831  -17.9667   20.8113 C.3     1  UNL1        0.0025
      8 C          -0.9013  -17.6676   19.3462 C.3     1  UNL1        0.0002
      9 C          -2.1727  -17.9848   18.6162 C.3     1  UNL1        0.0025
     10 C          -3.3259  -18.6010   19.3513 C.3     1  UNL1        0.0305
     11 O          -3.2365  -19.2537   22.2738 O.3     1  UNL1       -0.2256
     12 O          -4.5813  -19.8431   22.5813 O.3     1  UNL1       -0.2251
     13 C          -7.6590  -19.1651   20.2660 C.2     1  UNL1        0.2252
     14 O          -7.6313  -17.7906   20.8660 O.2     1  UNL1       -0.2750
     15 N          -8.9378  -19.7130   19.7050 N.am    1  UNL1       -0.3004
     16 H          -8.9560  -20.6151   19.3113 H       1  UNL1        0.1497
     17 C         -10.1888  -18.8863   19.7440 C.3     1  UNL1        0.1163
     18 C         -10.9105  -18.6788   21.0425 C.ar    1  UNL1       -0.0021
     19 C         -12.1638  -17.8556   21.0809 C.ar    1  UNL1       -0.0026
     20 C         -12.8855  -17.6481   22.3794 C.ar    1  UNL1        0.0002
     21 C         -12.3538  -18.2639   23.6396 C.ar    1  UNL1        0.0067
     22 C         -11.1006  -19.0872   23.6013 C.ar    1  UNL1        0.0343
     23 BR        -10.5690  -19.7030   24.8615 Br      1  UNL1       -0.0490
     24 C         -10.3789  -19.2946   22.3027 C.ar    1  UNL1        0.0041
@<TRIPOS>BOND
     1     2     3    1
     2     3     1    1
     3     1    13    1
     4    13    14    2
     5    13    15   am
     6    15    17    1
     7    17    18    1
     8    18    19   ar
     9    19    20   ar
    10    20    21   ar
    11    21    22   ar
    12    22    23    1
    13    22    24   ar
    14     3     4    1
    15     4     5    1
    16     5     6    1
    17     6     7    1
    18     7     8    1
    19     8     9    1
    20     9    10    1
    21     5    11    1
    22    11    12    1
    23    12     3    1
    24    24    18   ar
    25    10     5    1
    26    15    16    1
@<TRIPOS>MOLECULE
*****
 24 26 0 0 0
SMALL
GASTEIGER

@<TRIPOS>ATOM
      1 C          -7.8452  -15.3889   24.8624 C.3     1  UNL1        0.1154
      2 C          -8.1697  -16.0220   26.7395 C.3     1  UNL1        0.0335
      3 C          -8.5794  -16.5777   25.4078 C.3     1  UNL1        0.1377
      4 C          -8.8356  -16.8849   23.9621 C.3     1  UNL1        0.0613
      5 C          -9.6426  -18.1475   23.8924 C.3     1  UNL1        0.1290
      6 C         -10.4443  -19.4122   23.9796 C.3     1  UNL1        0.0305
      7 C         -10.9244  -20.0837   22.7272 C.3     1  UNL1        0.0025
      8 C         -10.6027  -19.4905   21.3876 C.3     1  UNL1        0.0002
      9 C          -9.8010  -18.2258   21.3003 C.3     1  UNL1        0.0025
     10 C          -9.3209  -17.5543   22.5527 C.3     1  UNL1        0.0305
     11 O          -9.8851  -18.6206   25.2950 O.3     1  UNL1       -0.2256
     12 O          -9.2280  -17.6504   26.2316 O.3     1  UNL1       -0.2251
     13 C          -6.3507  -15.4226   24.7384 C.2     1  UNL1        0.2252
     14 O          -5.5035  -14.5842   25.6489 O.2     1  UNL1       -0.2750
     15 N          -5.7034  -16.2947   23.7037 N.am    1  UNL1       -0.3004
     16 H          -6.2594  -16.8450   23.1060 H       1  UNL1        0.1497
     17 C          -4.2089  -16.3284   23.5797 C.3     1  UNL1        0.1163
     18 C          -3.5513  -17.3606   22.7125 C.ar    1  UNL1       -0.0021
     19 C          -4.0679  -18.7688   22.6996 C.ar    1  UNL1       -0.0026
     20 C          -3.4103  -19.8010   21.8324 C.ar    1  UNL1        0.0002
     21 C          -2.2362  -19.4250   20.9779 C.ar    1  UNL1        0.0067
     22 C          -1.7197  -18.0168   20.9907 C.ar    1  UNL1        0.0343
     23 BR         -0.5456  -17.6408   20.1363 Br      1  UNL1       -0.0490
     24 C          -2.3773  -16.9845   21.8580 C.ar    1  UNL1        0.0041
@<TRIPOS>BOND
     1     2     3    1
     2     3     1    1
     3     1    13    1
     4    13    14    2
     5    13    15   am
     6    15    17    1
     7    17    18    1
     8    18    19   ar
     9    19    20   ar
    10    20    21   ar
    11    21    22   ar
    12    22    23    1
    13    22    24   ar
    14     3     4    1
    15     4     5    1
    16     5     6    1
    17     6     7    1
    18     7     8    1
    19     8     9    1
    20     9    10    1
    21     5    11    1
    22    11    12    1
    23    12     3    1
    24    24    18   ar
    25    10     5    1
    26    15    16    1
@<TRIPOS>MOLECULE
*****
 24 26 0 0 0
SMALL
GASTEIGER

@<TRIPOS>ATOM
      1 C         -10.0294  -19.6144   22.2877 C.3     1  UNL1        0.1154
      2 C         -10.8361  -19.2633   20.4834 C.3     1  UNL1        0.0335
      3 C          -9.4121  -19.3482   20.9469 C.3     1  UNL1        0.1377
      4 C          -8.1171  -19.4888   21.6906 C.3     1  UNL1        0.0613
      5 C          -6.9969  -19.2917   20.7125 C.3     1  UNL1        0.1290
      6 C          -5.9874  -19.0735   19.6248 C.3     1  UNL1        0.0305
      7 C          -4.5219  -19.1291   19.9397 C.3     1  UNL1        0.0025
      8 C          -4.0660  -19.4027   21.3423 C.3     1  UNL1        0.0002
      9 C          -5.0755  -19.6209   22.4300 C.3     1  UNL1        0.0025
     10 C          -6.5410  -19.5653   22.1151 C.3     1  UNL1        0.0305
     11 O          -7.5998  -19.0293   19.3642 O.3     1  UNL1       -0.2256
     12 O          -9.0924  -19.0643   19.5090 O.3     1  UNL1       -0.2251
     13 C          -9.8407  -18.6348   23.4080 C.2     1  UNL1        0.2252
     14 O          -9.6664  -19.1277   24.8139 O.2     1  UNL1       -0.2750
     15 N          -9.8264  -17.1623   23.1222 N.am    1  UNL1       -0.3004
     16 H          -9.9408  -16.8388   22.1995 H       1  UNL1        0.1497
     17 C          -9.6377  -16.1828   24.2424 C.3     1  UNL1        0.1163
     18 C          -8.2734  -15.9653   24.8268 C.ar    1  UNL1       -0.0021
     19 C          -8.1276  -15.5865   26.2708 C.ar    1  UNL1       -0.0026
     20 C          -6.7634  -15.3690   26.8551 C.ar    1  UNL1        0.0002
     21 C          -5.5448  -15.5304   25.9954 C.ar    1  UNL1        0.0067
     22 C          -5.6906  -15.9092   24.5514 C.ar    1  UNL1        0.0343
     23 BR         -4.4721  -16.0705   23.6917 Br      1  UNL1       -0.0490
     24 C          -7.0549  -16.1266   23.9670 C.ar    1  UNL1        0.0041
@<TRIPOS>BOND
     1     2     3    1
     2     3     1    1
     3     1    13    1
     4    13    14    2
     5    13    15   am
     6    15    17    1
     7    17    18    1
     8    18    19   ar
     9    19    20   ar
    10    20    21   ar
    11    21    22   ar
    12    22    23    1
    13    22    24   ar
    14     3     4    1
    15     4     5    1
    16     5     6    1
    17     6     7    1
    18     7     8    1
    19     8     9    1
    20     9    10    1
    21     5    11    1
    22    11    12    1
    23    12     3    1
    24    24    18   ar
    25    10     5    1
    26    15    16    1
@<TRIPOS>MOLECULE
*****
 24 26 0 0 0
SMALL
GASTEIGER

@<TRIPOS>ATOM
      1 C          -9.8111  -18.5442   21.8225 C.3     1  UNL1        0.1154
      2 C         -10.7171  -20.1309   22.6539 C.3     1  UNL1        0.0335
      3 C         -10.0115  -18.9504   23.2524 C.3     1  UNL1        0.1377
      4 C          -9.2640  -17.6849   23.5521 C.3     1  UNL1        0.0613
      5 C          -9.1499  -17.5557   25.0422 C.3     1  UNL1        0.1290
      6 C          -9.1147  -17.5619   26.5418 C.3     1  UNL1        0.0305
      7 C          -8.4417  -16.4434   27.2808 C.3     1  UNL1        0.0025
      8 C          -7.8040  -15.3188   26.5202 C.3     1  UNL1        0.0002
      9 C          -7.8392  -15.3126   25.0207 C.3     1  UNL1        0.0025
     10 C          -8.5121  -16.4310   24.2817 C.3     1  UNL1        0.0305
     11 O          -9.8269  -18.7413   25.6635 O.3     1  UNL1       -0.2256
     12 O         -10.3594  -19.6033   24.5573 O.3     1  UNL1       -0.2251
     13 C          -8.5996  -19.0131   21.0724 C.2     1  UNL1        0.2252
     14 O          -8.5252  -18.8398   19.5844 O.2     1  UNL1       -0.2750
     15 N          -7.4626  -19.6553   21.8106 N.am    1  UNL1       -0.3004
     16 H          -7.5114  -19.7691   22.7872 H       1  UNL1        0.1497
     17 C          -6.2511  -20.1242   21.0605 C.3     1  UNL1        0.1163
     18 C          -4.9517  -19.3878   21.1991 C.ar    1  UNL1       -0.0021
     19 C          -4.4710  -18.9635   22.5552 C.ar    1  UNL1       -0.0026
     20 C          -3.1716  -18.2272   22.6938 C.ar    1  UNL1        0.0002
     21 C          -2.3528  -17.9151   21.4764 C.ar    1  UNL1        0.0067
     22 C          -2.8334  -18.3394   20.1204 C.ar    1  UNL1        0.0343
     23 BR         -2.0147  -18.0273   18.9029 Br      1  UNL1       -0.0490
     24 C          -4.1329  -19.0758   19.9817 C.ar    1  UNL1        0.0041
@<TRIPOS>BOND
     1     2     3    1
     2     3     1    1
     3     1    13    1
     4    13    14    2
     5    13    15   am
     6    15    17    1
     7    17    18    1
     8    18    19   ar
     9    19    20   ar
    10    20    21   ar
    11    21    22   ar
    12    22    23    1
    13    22    24   ar
    14     3     4    1
    15     4     5    1
    16     5     6    1
    17     6     7    1
    18     7     8    1
    19     8     9    1
    20     9    10    1
    21     5    11    1
    22    11    12    1
    23    12     3    1
    24    24    18   ar
    25    10     5    1
    26    15    16    1
@<TRIPOS>MOLECULE
*****
 24 26 0 0 0
SMALL
GASTEIGER

@<TRIPOS>ATOM
      1 C          -9.0863  -17.9111   21.5416 C.3     1  UNL1        0.1154
      2 C         -10.8245  -18.2101   22.5002 C.3     1  UNL1        0.0335
      3 C          -9.5351  -17.5780   22.9335 C.3     1  UNL1        0.1377
      4 C          -8.1518  -17.0155   23.0759 C.3     1  UNL1        0.0613
      5 C          -8.0152  -16.4668   24.4653 C.3     1  UNL1        0.1290
      6 C          -8.0268  -15.9644   25.8786 C.3     1  UNL1        0.0305
      7 C          -6.8057  -15.3077   26.4510 C.3     1  UNL1        0.0025
      8 C          -5.5731  -15.1534   25.6103 C.3     1  UNL1        0.0002
      9 C          -5.5616  -15.6558   24.1970 C.3     1  UNL1        0.0025
     10 C          -6.7826  -16.3125   23.6245 C.3     1  UNL1        0.0305
     11 O          -9.3140  -16.6902   25.1817 O.3     1  UNL1       -0.2256
     12 O         -10.2534  -17.3770   24.2350 O.3     1  UNL1       -0.2251
     13 C          -7.8724  -18.7665   21.3295 C.2     1  UNL1        0.2252
     14 O          -7.6374  -19.9644   22.2011 O.2     1  UNL1       -0.2750
     15 N          -6.8934  -18.4237   20.2458 N.am    1  UNL1       -0.3004
     16 H          -7.0476  -17.6375   19.6738 H       1  UNL1        0.1497
     17 C          -5.6796  -19.2791   20.0338 C.3     1  UNL1        0.1163
     18 C          -4.3840  -18.9206   20.6992 C.ar    1  UNL1       -0.0021
     19 C          -4.3140  -18.8090   22.1934 C.ar    1  UNL1       -0.0026
     20 C          -3.0183  -18.4505   22.8589 C.ar    1  UNL1        0.0002
     21 C          -1.7927  -18.2036   22.0301 C.ar    1  UNL1        0.0067
     22 C          -1.8627  -18.3152   20.5360 C.ar    1  UNL1        0.0343
     23 BR         -0.6371  -18.0683   19.7072 Br      1  UNL1       -0.0490
     24 C          -3.1584  -18.6737   19.8704 C.ar    1  UNL1        0.0041
@<TRIPOS>BOND
     1     2     3    1
     2     3     1    1
     3     1    13    1
     4    13    14    2
     5    13    15   am
     6    15    17    1
     7    17    18    1
     8    18    19   ar
     9    19    20   ar
    10    20    21   ar
    11    21    22   ar
    12    22    23    1
    13    22    24   ar
    14     3     4    1
    15     4     5    1
    16     5     6    1
    17     6     7    1
    18     7     8    1
    19     8     9    1
    20     9    10    1
    21     5    11    1
    22    11    12    1
    23    12     3    1
    24    24    18   ar
    25    10     5    1
    26    15    16    1
@<TRIPOS>MOLECULE
*****
 24 26 0 0 0
SMALL
GASTEIGER

@<TRIPOS>ATOM
      1 C          -8.3860  -20.2754   20.7018 C.3     1  UNL1        0.1154
      2 C          -8.8702  -19.5980   18.8752 C.3     1  UNL1        0.0335
      3 C          -9.5331  -19.4424   20.2117 C.3     1  UNL1        0.1377
      4 C          -9.9562  -19.4610   21.6507 C.3     1  UNL1        0.0613
      5 C         -11.2263  -18.6720   21.7706 C.3     1  UNL1        0.1290
      6 C         -12.4861  -17.8585   21.7358 C.3     1  UNL1        0.0305
      7 C         -13.2586  -17.6179   22.9988 C.3     1  UNL1        0.0025
      8 C         -12.7715  -18.1909   24.2967 C.3     1  UNL1        0.0002
      9 C         -11.5117  -19.0043   24.3315 C.3     1  UNL1        0.0025
     10 C         -10.7392  -19.2449   23.0685 C.3     1  UNL1        0.0305
     11 O         -11.5882  -18.1658   20.4058 O.3     1  UNL1       -0.2256
     12 O         -10.5417  -18.6420   19.4423 O.3     1  UNL1       -0.2251
     13 C          -6.9761  -19.8645   20.3955 C.2     1  UNL1        0.2252
     14 O          -6.6541  -18.4220   20.1398 O.2     1  UNL1       -0.2750
     15 N          -5.8884  -20.8963   20.3449 N.am    1  UNL1       -0.3004
     16 H          -6.0998  -21.8430   20.5127 H       1  UNL1        0.1497
     17 C          -4.4787  -20.4854   20.0386 C.3     1  UNL1        0.1163
     18 C          -3.7976  -19.4524   20.8866 C.ar    1  UNL1       -0.0021
     19 C          -4.1747  -19.2997   22.3303 C.ar    1  UNL1       -0.0026
     20 C          -3.4936  -18.2668   23.1783 C.ar    1  UNL1        0.0002
     21 C          -2.4353  -17.3864   22.5824 C.ar    1  UNL1        0.0067
     22 C          -2.0582  -17.5390   21.1387 C.ar    1  UNL1        0.0343
     23 BR         -0.9999  -16.6587   20.5429 Br      1  UNL1       -0.0490
     24 C          -2.7393  -18.5721   20.2907 C.ar    1  UNL1        0.0041
@<TRIPOS>BOND
     1     2     3    1
     2     3     1    1
     3     1    13    1
     4    13    14    2
     5    13    15   am
     6    15    17    1
     7    17    18    1
     8    18    19   ar
     9    19    20   ar
    10    20    21   ar
    11    21    22   ar
    12    22    23    1
    13    22    24   ar
    14     3     4    1
    15     4     5    1
    16     5     6    1
    17     6     7    1
    18     7     8    1
    19     8     9    1
    20     9    10    1
    21     5    11    1
    22    11    12    1
    23    12     3    1
    24    24    18   ar
    25    10     5    1
    26    15    16    1
@<TRIPOS>MOLECULE
*****
 24 26 0 0 0
SMALL
GASTEIGER

@<TRIPOS>ATOM
      1 C          -8.2003  -19.3481   21.3353 C.3     1  UNL1        0.1154
      2 C          -8.2234  -19.7024   19.3596 C.3     1  UNL1        0.0335
      3 C          -7.1071  -19.3818   20.3089 C.3     1  UNL1        0.1377
      4 C          -6.2194  -19.0541   21.4728 C.3     1  UNL1        0.0613
      5 C          -4.8108  -18.9523   20.9672 C.3     1  UNL1        0.1290
      6 C          -3.4597  -18.8836   20.3193 C.3     1  UNL1        0.0305
      7 C          -2.2470  -18.5718   21.1451 C.3     1  UNL1        0.0025
      8 C          -2.3853  -18.3287   22.6188 C.3     1  UNL1        0.0002
      9 C          -3.7363  -18.3975   23.2667 C.3     1  UNL1        0.0025
     10 C          -4.9491  -18.7092   22.4409 C.3     1  UNL1        0.0305
     11 O          -4.8280  -19.2170   19.4908 O.3     1  UNL1       -0.2256
     12 O          -6.2472  -19.4824   19.0839 O.3     1  UNL1       -0.2251
     13 C          -8.3836  -18.1335   22.1963 C.2     1  UNL1        0.2252
     14 O          -8.9746  -18.2688   23.5682 O.2     1  UNL1       -0.2750
     15 N          -7.9757  -16.7834   21.6851 N.am    1  UNL1       -0.3004
     16 H          -7.5877  -16.6946   20.7847 H       1  UNL1        0.1497
     17 C          -8.1589  -15.5688   22.5460 C.3     1  UNL1        0.1163
     18 C          -7.4551  -15.4729   23.8672 C.ar    1  UNL1       -0.0021
     19 C          -5.9561  -15.4559   23.9189 C.ar    1  UNL1       -0.0026
     20 C          -5.2522  -15.3599   25.2400 C.ar    1  UNL1        0.0002
     21 C          -6.0474  -15.2809   26.5094 C.ar    1  UNL1        0.0067
     22 C          -7.5463  -15.2979   26.4577 C.ar    1  UNL1        0.0343
     23 BR         -8.3415  -15.2189   27.7271 Br      1  UNL1       -0.0490
     24 C          -8.2503  -15.3939   25.1366 C.ar    1  UNL1        0.0041
@<TRIPOS>BOND
     1     2     3    1
     2     3     1    1
     3     1    13    1
     4    13    14    2
     5    13    15   am
     6    15    17    1
     7    17    18    1
     8    18    19   ar
     9    19    20   ar
    10    20    21   ar
    11    21    22   ar
    12    22    23    1
    13    22    24   ar
    14     3     4    1
    15     4     5    1
    16     5     6    1
    17     6     7    1
    18     7     8    1
    19     8     9    1
    20     9    10    1
    21     5    11    1
    22    11    12    1
    23    12     3    1
    24    24    18   ar
    25    10     5    1
    26    15    16    1
@<TRIPOS>MOLECULE
*****
 24 26 0 0 0
SMALL
GASTEIGER

@<TRIPOS>ATOM
      1 C          -5.6545  -18.9535   22.4125 C.3     1  UNL1        0.1154
      2 C          -6.0113  -17.2740   23.4526 C.3     1  UNL1        0.0335
      3 C          -4.8658  -17.6883   22.5772 C.3     1  UNL1        0.1377
      4 C          -3.8853  -18.3671   21.6674 C.3     1  UNL1        0.0613
      5 C          -2.7299  -17.4348   21.4527 C.3     1  UNL1        0.1290
      6 C          -1.6495  -16.4014   21.3319 C.3     1  UNL1        0.0305
      7 C          -0.4400  -16.6759   20.4883 C.3     1  UNL1        0.0025
      8 C          -0.3110  -17.9839   19.7654 C.3     1  UNL1        0.0002
      9 C          -1.3914  -19.0173   19.8861 C.3     1  UNL1        0.0025
     10 C          -2.6008  -18.7428   20.7298 C.3     1  UNL1        0.0305
     11 O          -2.9964  -16.1798   22.2298 O.3     1  UNL1       -0.2256
     12 O          -4.3165  -16.3365   22.9248 O.3     1  UNL1       -0.2251
     13 C          -6.9545  -18.9349   21.6643 C.2     1  UNL1        0.2252
     14 O          -7.0123  -18.3724   20.2750 O.2     1  UNL1       -0.2750
     15 N          -8.1968  -19.4787   22.3056 N.am    1  UNL1       -0.3004
     16 H          -8.1589  -19.8479   23.2175 H       1  UNL1        0.1497
     17 C          -9.4967  -19.4600   21.5574 C.3     1  UNL1        0.1163
     18 C         -10.5305  -18.4208   21.8758 C.ar    1  UNL1       -0.0021
     19 C         -10.4503  -17.0641   21.2411 C.ar    1  UNL1       -0.0026
     20 C         -11.4841  -16.0249   21.5595 C.ar    1  UNL1        0.0002
     21 C         -12.5979  -16.3423   22.5126 C.ar    1  UNL1        0.0067
     22 C         -12.6780  -17.6989   23.1474 C.ar    1  UNL1        0.0343
     23 BR        -13.7918  -18.0164   24.1006 Br      1  UNL1       -0.0490
     24 C         -11.6443  -18.7383   22.8290 C.ar    1  UNL1        0.0041
@<TRIPOS>BOND
     1     2     3    1
     2     3     1    1
     3     1    13    1
     4    13    14    2
     5    13    15   am
     6    15    17    1
     7    17    18    1
     8    18    19   ar
     9    19    20   ar
    10    20    21   ar
    11    21    22   ar
    12    22    23    1
    13    22    24   ar
    14     3     4    1
    15     4     5    1
    16     5     6    1
    17     6     7    1
    18     7     8    1
    19     8     9    1
    20     9    10    1
    21     5    11    1
    22    11    12    1
    23    12     3    1
    24    24    18   ar
    25    10     5    1
    26    15    16    1
@<TRIPOS>MOLECULE
*****
 24 26 0 0 0
SMALL
GASTEIGER

@<TRIPOS>ATOM
      1 C          -7.2556  -16.5710   24.5387 C.3     1  UNL1        0.1154
      2 C          -8.9167  -15.5113   24.9229 C.3     1  UNL1        0.0335
      3 C          -8.5759  -16.4832   23.8323 C.3     1  UNL1        0.1377
      4 C          -7.9592  -17.4734   22.8894 C.3     1  UNL1        0.0613
      5 C          -8.9696  -17.7944   21.8282 C.3     1  UNL1        0.1290
      6 C         -10.0765  -18.0157   20.8404 C.3     1  UNL1        0.0305
      7 C          -9.8802  -18.9623   19.6936 C.3     1  UNL1        0.0025
      8 C          -8.5769  -19.6876   19.5345 C.3     1  UNL1        0.0002
      9 C          -7.4700  -19.4663   20.5222 C.3     1  UNL1        0.0025
     10 C          -7.6663  -18.5197   21.6690 C.3     1  UNL1        0.0305
     11 O         -10.2108  -17.0026   22.1153 O.3     1  UNL1       -0.2256
     12 O          -9.9675  -16.1921   23.3539 O.3     1  UNL1       -0.2251
     13 C          -6.0058  -16.1041   23.8531 C.2     1  UNL1        0.2252
     14 O          -5.9994  -14.8003   23.1117 O.2     1  UNL1       -0.2750
     15 N          -4.7623  -16.9413   23.9089 N.am    1  UNL1       -0.3004
     16 H          -4.7665  -17.7971   24.3955 H       1  UNL1        0.1497
     17 C          -3.5125  -16.4744   23.2233 C.3     1  UNL1        0.1163
     18 C          -3.0139  -17.1908   22.0034 C.ar    1  UNL1       -0.0021
     19 C          -1.8679  -16.6257   21.2177 C.ar    1  UNL1       -0.0026
     20 C          -1.3694  -17.3421   19.9978 C.ar    1  UNL1        0.0002
     21 C          -2.0168  -18.6236   19.5636 C.ar    1  UNL1        0.0067
     22 C          -3.1627  -19.1887   20.3493 C.ar    1  UNL1        0.0343
     23 BR         -3.8101  -20.4702   19.9151 Br      1  UNL1       -0.0490
     24 C          -3.6614  -18.4723   21.5693 C.ar    1  UNL1        0.0041
@<TRIPOS>BOND
     1     2     3    1
     2     3     1    1
     3     1    13    1
     4    13    14    2
     5    13    15   am
     6    15    17    1
     7    17    18    1
     8    18    19   ar
     9    19    20   ar
    10    20    21   ar
    11    21    22   ar
    12    22    23    1
    13    22    24   ar
    14     3     4    1
    15     4     5    1
    16     5     6    1
    17     6     7    1
    18     7     8    1
    19     8     9    1
    20     9    10    1
    21     5    11    1
    22    11    12    1
    23    12     3    1
    24    24    18   ar
    25    10     5    1
    26    15    16    1
