@<TRIPOS>MOLECULE
*****
 23 26 0 0 0
SMALL
GASTEIGER

@<TRIPOS>ATOM
      1 N          -6.6254  -18.8238   21.9532 N.ar    1  UNL1       -0.2359
      2 N          -8.1151  -18.9708   21.8582 N.ar    1  UNL1       -0.1663
      3 C          -8.7419  -17.8261   22.5978 C.ar    1  UNL1        0.1274
      4 C          -7.6395  -16.9717   23.1498 C.ar    1  UNL1        0.0876
      5 C          -7.6578  -15.7119   23.9638 C.ar    1  UNL1        0.1316
      6 N          -8.9659  -15.0953   24.3622 N.pl3   1  UNL1       -0.3425
      7 N          -6.3681  -15.0687   24.3793 N.ar    1  UNL1       -0.2093
      8 C          -5.0600  -15.6853   23.9810 C.ar    1  UNL1        0.2014
      9 N          -5.0416  -16.9451   23.1670 N.ar    1  UNL1       -0.2050
     10 C          -6.3314  -17.5883   22.7515 C.ar    1  UNL1        0.1653
     11 H          -9.8125  -15.5175   24.0894 H       1  UNL1        0.1437
     12 H          -8.9779  -14.2685   24.8964 H       1  UNL1        0.1437
     13 C         -10.2128  -17.5792   22.7574 C.ar    1  UNL1        0.1421
     14 C         -11.1274  -18.2880   23.7118 C.ar    1  UNL1        0.0596
     15 C         -12.5073  -17.7270   23.5348 C.ar    1  UNL1        0.1540
     16 O         -12.4454  -16.6714   22.4709 O.2     1  UNL1       -0.3577
     17 N         -11.0273  -16.5801   21.9904 N.ar    1  UNL1       -0.0758
     18 C         -13.7335  -18.1477   24.2892 C.3     1  UNL1        0.0602
     19 C         -14.4028  -18.5110   25.5815 C.3     1  UNL1        0.0081
     20 C         -15.1884  -18.5129   24.3036 C.3     1  UNL1        0.0081
     21 C          -6.0423  -20.8321   20.4115 C.3     1  UNL1        0.0264
     22 C          -5.6082  -19.7497   21.3550 C.3     1  UNL1        0.1069
     23 C          -4.1569  -19.5933   21.7000 C.3     1  UNL1        0.0264
@<TRIPOS>BOND
     1    21    22    1
     2    22    23    1
     3    22     1    1
     4     1     2   ar
     5     2     3   ar
     6     3    13    1
     7    13    14   ar
     8    14    15   ar
     9    15    18    1
    10    18    19    1
    11    19    20    1
    12    15    16   ar
    13    16    17   ar
    14     3     4   ar
    15     4     5   ar
    16     5     6    1
    17     5     7   ar
    18     7     8   ar
    19     8     9   ar
    20     9    10   ar
    21    10     1   ar
    22    17    13   ar
    23    10     4   ar
    24    20    18    1
    25     6    11    1
    26     6    12    1
@<TRIPOS>MOLECULE
*****
 23 26 0 0 0
SMALL
GASTEIGER

@<TRIPOS>ATOM
      1 N          -6.5136  -17.0994   23.2048 N.ar    1  UNL1       -0.2359
      2 N          -7.9155  -16.7513   23.6091 N.ar    1  UNL1       -0.1663
      3 C          -8.8560  -17.5155   22.7251 C.ar    1  UNL1        0.1274
      4 C          -8.0354  -18.3359   21.7746 C.ar    1  UNL1        0.0876
      5 C          -8.4194  -19.2839   20.6774 C.ar    1  UNL1        0.1316
      6 N          -9.8671  -19.5411   20.3809 N.pl3   1  UNL1       -0.3425
      7 N          -7.3556  -19.9746   19.8767 N.ar    1  UNL1       -0.2093
      8 C          -5.9078  -19.7174   20.1732 C.ar    1  UNL1        0.2014
      9 N          -5.5239  -18.7694   21.2703 N.ar    1  UNL1       -0.2050
     10 C          -6.5876  -18.0787   22.0711 C.ar    1  UNL1        0.1653
     11 H         -10.5653  -19.0877   20.9065 H       1  UNL1        0.1437
     12 H         -10.1191  -20.1633   19.6608 H       1  UNL1        0.1437
     13 C         -10.3542  -17.4678   22.7818 C.ar    1  UNL1        0.1421
     14 C         -11.2137  -18.0326   23.8736 C.ar    1  UNL1        0.0596
     15 C         -12.6467  -17.7607   23.5231 C.ar    1  UNL1        0.1540
     16 O         -12.6727  -17.0278   22.2146 O.2     1  UNL1       -0.3577
     17 N         -11.2559  -16.8468   21.7564 N.ar    1  UNL1       -0.0758
     18 C         -13.8433  -18.1529   24.3380 C.3     1  UNL1        0.0602
     19 C         -14.4642  -18.4643   25.6675 C.3     1  UNL1        0.0081
     20 C         -15.2953  -18.5207   24.4200 C.3     1  UNL1        0.0081
     21 C          -3.9336  -17.1867   23.4990 C.3     1  UNL1        0.0264
     22 C          -5.2580  -16.5624   23.8254 C.3     1  UNL1        0.1069
     23 C          -5.3266  -15.4012   24.7723 C.3     1  UNL1        0.0264
@<TRIPOS>BOND
     1    21    22    1
     2    22    23    1
     3    22     1    1
     4     1     2   ar
     5     2     3   ar
     6     3    13    1
     7    13    14   ar
     8    14    15   ar
     9    15    18    1
    10    18    19    1
    11    19    20    1
    12    15    16   ar
    13    16    17   ar
    14     3     4   ar
    15     4     5   ar
    16     5     6    1
    17     5     7   ar
    18     7     8   ar
    19     8     9   ar
    20     9    10   ar
    21    10     1   ar
    22    17    13   ar
    23    10     4   ar
    24    20    18    1
    25     6    11    1
    26     6    12    1
@<TRIPOS>MOLECULE
*****
 23 26 0 0 0
SMALL
GASTEIGER

@<TRIPOS>ATOM
      1 N          -4.9070  -19.1075   21.7876 N.ar    1  UNL1       -0.2359
      2 N          -6.2508  -19.7663   21.8885 N.ar    1  UNL1       -0.1663
      3 C          -7.1612  -18.8481   22.6488 C.ar    1  UNL1        0.1274
      4 C          -6.3800  -17.6218   23.0177 C.ar    1  UNL1        0.0876
      5 C          -6.7573  -16.3799   23.7696 C.ar    1  UNL1        0.1316
      6 N          -8.1505  -16.2195   24.3019 N.pl3   1  UNL1       -0.3425
      7 N          -5.7414  -15.2984   23.9891 N.ar    1  UNL1       -0.2093
      8 C          -4.3482  -15.4588   23.4568 C.ar    1  UNL1        0.2014
      9 N          -3.9710  -16.7007   22.7050 N.ar    1  UNL1       -0.2050
     10 C          -4.9868  -17.7822   22.4854 C.ar    1  UNL1        0.1653
     11 H          -8.8173  -16.9294   24.1578 H       1  UNL1        0.1437
     12 H          -8.3981  -15.4044   24.7954 H       1  UNL1        0.1437
     13 C          -8.6001  -19.1100   22.9818 C.ar    1  UNL1        0.1421
     14 C          -9.7547  -18.2017   22.6789 C.ar    1  UNL1        0.0596
     15 C         -11.0053  -18.8566   23.1860 C.ar    1  UNL1        0.1540
     16 O         -10.6235  -20.1698   23.8023 O.2     1  UNL1       -0.3577
     17 N          -9.1370  -20.3264   23.6761 N.ar    1  UNL1       -0.0758
     18 C         -12.3937  -18.2967   23.0931 C.3     1  UNL1        0.0602
     19 C         -13.5005  -17.6966   22.2778 C.3     1  UNL1        0.0081
     20 C         -13.6919  -17.9271   23.7476 C.3     1  UNL1        0.0081
     21 C          -3.8327  -20.3603   19.7808 C.3     1  UNL1        0.0264
     22 C          -3.6960  -19.6746   21.1080 C.3     1  UNL1        0.1069
     23 C          -2.3482  -19.5560   21.7554 C.3     1  UNL1        0.0264
@<TRIPOS>BOND
     1    21    22    1
     2    22    23    1
     3    22     1    1
     4     1     2   ar
     5     2     3   ar
     6     3    13    1
     7    13    14   ar
     8    14    15   ar
     9    15    18    1
    10    18    19    1
    11    19    20    1
    12    15    16   ar
    13    16    17   ar
    14     3     4   ar
    15     4     5   ar
    16     5     6    1
    17     5     7   ar
    18     7     8   ar
    19     8     9   ar
    20     9    10   ar
    21    10     1   ar
    22    17    13   ar
    23    10     4   ar
    24    20    18    1
    25     6    11    1
    26     6    12    1
@<TRIPOS>MOLECULE
*****
 23 26 0 0 0
SMALL
GASTEIGER

@<TRIPOS>ATOM
      1 N          -8.6345  -17.8118   23.4247 N.ar    1  UNL1       -0.2359
      2 N          -7.1979  -18.0648   23.0753 N.ar    1  UNL1       -0.1663
      3 C          -7.1555  -18.6917   21.7133 C.ar    1  UNL1        0.1274
      4 C          -8.5660  -18.8262   21.2208 C.ar    1  UNL1        0.0876
      5 C          -9.1360  -19.3735   19.9459 C.ar    1  UNL1        0.1316
      6 N          -8.2219  -19.9173   18.8882 N.pl3   1  UNL1       -0.3425
      7 N         -10.6202  -19.3771   19.7288 N.ar    1  UNL1       -0.2093
      8 C         -11.5343  -18.8333   20.7865 C.ar    1  UNL1        0.2014
      9 N         -10.9642  -18.2860   22.0613 N.ar    1  UNL1       -0.2050
     10 C          -9.4801  -18.2824   22.2785 C.ar    1  UNL1        0.1653
     11 H          -7.2478  -19.9149   19.0308 H       1  UNL1        0.1437
     12 H          -8.5961  -20.2766   18.0515 H       1  UNL1        0.1437
     13 C          -5.9197  -19.1105   20.9735 C.ar    1  UNL1        0.1421
     14 C          -4.7205  -18.2513   20.7026 C.ar    1  UNL1        0.0596
     15 C          -3.7256  -19.0719   19.9364 C.ar    1  UNL1        0.1540
     16 O          -4.3102  -20.4384   19.7339 O.2     1  UNL1       -0.3577
     17 N          -5.6661  -20.4623   20.3749 N.ar    1  UNL1       -0.0758
     18 C          -2.3824  -18.6076   19.4570 C.3     1  UNL1        0.0602
     19 C          -1.5300  -17.9652   18.4031 C.3     1  UNL1        0.0081
     20 C          -0.9079  -18.4458   19.6806 C.3     1  UNL1        0.0081
     21 C          -9.7178  -18.0660   25.7725 C.3     1  UNL1        0.0264
     22 C          -9.1374  -17.1964   24.6968 C.3     1  UNL1        0.1069
     23 C          -9.0599  -15.7114   24.8934 C.3     1  UNL1        0.0264
@<TRIPOS>BOND
     1    21    22    1
     2    22    23    1
     3    22     1    1
     4     1     2   ar
     5     2     3   ar
     6     3    13    1
     7    13    14   ar
     8    14    15   ar
     9    15    18    1
    10    18    19    1
    11    19    20    1
    12    15    16   ar
    13    16    17   ar
    14     3     4   ar
    15     4     5   ar
    16     5     6    1
    17     5     7   ar
    18     7     8   ar
    19     8     9   ar
    20     9    10   ar
    21    10     1   ar
    22    17    13   ar
    23    10     4   ar
    24    20    18    1
    25     6    11    1
    26     6    12    1
@<TRIPOS>MOLECULE
*****
 23 26 0 0 0
SMALL
GASTEIGER

@<TRIPOS>ATOM
      1 N         -11.8412   -6.5426   18.5708 N.ar    1  UNL1       -0.2359
      2 N         -12.7577   -7.7084   18.3454 N.ar    1  UNL1       -0.1663
      3 C         -14.1448   -7.2892   18.7329 C.ar    1  UNL1        0.1274
      4 C         -14.0855   -5.8643   19.1978 C.ar    1  UNL1        0.0876
      5 C         -15.1440   -4.9273   19.6995 C.ar    1  UNL1        0.1316
      6 N         -16.5678   -5.3887   19.7997 N.pl3   1  UNL1       -0.3425
      7 N         -14.7788   -3.5290   20.1009 N.ar    1  UNL1       -0.2093
      8 C         -13.3550   -3.0676   20.0007 C.ar    1  UNL1        0.2014
      9 N         -12.2965   -4.0045   19.4991 N.ar    1  UNL1       -0.2050
     10 C         -12.6618   -5.4029   19.0976 C.ar    1  UNL1        0.1653
     11 H         -16.8075   -6.3065   19.5362 H       1  UNL1        0.1437
     12 H         -17.2625   -4.7738   20.1289 H       1  UNL1        0.1437
     13 C         -15.3752   -8.1446   18.6671 C.ar    1  UNL1        0.1421
     14 C         -16.3859   -8.1517   17.5588 C.ar    1  UNL1        0.0596
     15 C         -17.4463   -9.1547   17.9048 C.ar    1  UNL1        0.1540
     16 O         -17.0908   -9.7675   19.2270 O.2     1  UNL1       -0.3577
     17 N         -15.8109   -9.1432   19.6981 N.ar    1  UNL1       -0.0758
     18 C         -18.6505   -9.4865   17.0744 C.3     1  UNL1        0.0602
     19 C         -19.6205   -9.1233   15.9894 C.3     1  UNL1        0.0081
     20 C         -19.7665  -10.4246   16.7211 C.3     1  UNL1        0.0081
     21 C          -9.4909   -7.6117   18.8605 C.3     1  UNL1        0.0264
     22 C         -10.3634   -6.5204   18.3144 C.3     1  UNL1        0.1069
     23 C          -9.7580   -5.4071   17.5120 C.3     1  UNL1        0.0264
@<TRIPOS>BOND
     1    21    22    1
     2    22    23    1
     3    22     1    1
     4     1     2   ar
     5     2     3   ar
     6     3    13    1
     7    13    14   ar
     8    14    15   ar
     9    15    18    1
    10    18    19    1
    11    19    20    1
    12    15    16   ar
    13    16    17   ar
    14     3     4   ar
    15     4     5   ar
    16     5     6    1
    17     5     7   ar
    18     7     8   ar
    19     8     9   ar
    20     9    10   ar
    21    10     1   ar
    22    17    13   ar
    23    10     4   ar
    24    20    18    1
    25     6    11    1
    26     6    12    1
@<TRIPOS>MOLECULE
*****
 23 26 0 0 0
SMALL
GASTEIGER

@<TRIPOS>ATOM
      1 N         -12.7407   -2.7530   18.3067 N.ar    1  UNL1       -0.2359
      2 N         -14.1214   -3.3344   18.2325 N.ar    1  UNL1       -0.1663
      3 C         -14.0133   -4.8146   18.4503 C.ar    1  UNL1        0.1274
      4 C         -12.5658   -5.1480   18.6591 C.ar    1  UNL1        0.0876
      5 C         -11.8624   -6.4471   18.9186 C.ar    1  UNL1        0.1316
      6 N         -12.6489   -7.7213   19.0073 N.pl3   1  UNL1       -0.3425
      7 N         -10.3724   -6.4721   19.0892 N.ar    1  UNL1       -0.2093
      8 C          -9.5858   -5.1980   19.0005 C.ar    1  UNL1        0.2014
      9 N         -10.2892   -3.8988   18.7410 N.ar    1  UNL1       -0.2050
     10 C         -11.7793   -3.8739   18.5703 C.ar    1  UNL1        0.1653
     11 H         -13.6269   -7.7048   18.8953 H       1  UNL1        0.1437
     12 H         -12.1872   -8.5739   19.1776 H       1  UNL1        0.1437
     13 C         -15.1527   -5.7902   18.4580 C.ar    1  UNL1        0.1421
     14 C         -16.3352   -5.7576   19.3803 C.ar    1  UNL1        0.0596
     15 C         -17.2230   -6.9169   19.0371 C.ar    1  UNL1        0.1540
     16 O         -16.5892   -7.6660   17.9025 O.2     1  UNL1       -0.3577
     17 N         -15.3097   -6.9696   17.5447 N.ar    1  UNL1       -0.0758
     18 C         -18.5173   -7.2658   19.7101 C.3     1  UNL1        0.0602
     19 C         -19.9713   -6.9885   19.9528 C.3     1  UNL1        0.0081
     20 C         -19.3051   -8.1475   20.6332 C.3     1  UNL1        0.0081
     21 C         -13.3798   -0.2426   18.5057 C.3     1  UNL1        0.0264
     22 C         -12.3839   -1.3050   18.1456 C.3     1  UNL1        0.1069
     23 C         -11.0314   -0.9193   17.6244 C.3     1  UNL1        0.0264
@<TRIPOS>BOND
     1    21    22    1
     2    22    23    1
     3    22     1    1
     4     1     2   ar
     5     2     3   ar
     6     3    13    1
     7    13    14   ar
     8    14    15   ar
     9    15    18    1
    10    18    19    1
    11    19    20    1
    12    15    16   ar
    13    16    17   ar
    14     3     4   ar
    15     4     5   ar
    16     5     6    1
    17     5     7   ar
    18     7     8   ar
    19     8     9   ar
    20     9    10   ar
    21    10     1   ar
    22    17    13   ar
    23    10     4   ar
    24    20    18    1
    25     6    11    1
    26     6    12    1
@<TRIPOS>MOLECULE
*****
 23 26 0 0 0
SMALL
GASTEIGER

@<TRIPOS>ATOM
      1 N         -13.8104   -6.1112   18.4326 N.ar    1  UNL1       -0.2359
      2 N         -14.4254   -4.7527   18.2707 N.ar    1  UNL1       -0.1663
      3 C         -13.3366   -3.7310   18.4141 C.ar    1  UNL1        0.1274
      4 C         -12.0487   -4.4580   18.6647 C.ar    1  UNL1        0.0876
      5 C         -10.6472   -3.9706   18.8839 C.ar    1  UNL1        0.1316
      6 N         -10.3543   -2.4995   18.8724 N.pl3   1  UNL1       -0.3425
      7 N          -9.5385   -4.9543   19.1145 N.ar    1  UNL1       -0.2093
      8 C          -9.8314   -6.4253   19.1259 C.ar    1  UNL1        0.2014
      9 N         -11.2329   -6.9128   18.9067 N.ar    1  UNL1       -0.2050
     10 C         -12.3415   -5.9291   18.6761 C.ar    1  UNL1        0.1653
     11 H         -11.0820   -1.8539   18.7211 H       1  UNL1        0.1437
     12 H          -9.4344   -2.1796   19.0163 H       1  UNL1        0.1437
     13 C         -13.5059   -2.2434   18.3230 C.ar    1  UNL1        0.1421
     14 C         -14.5446   -1.4289   19.0354 C.ar    1  UNL1        0.0596
     15 C         -14.3469    0.0089   18.6562 C.ar    1  UNL1        0.1540
     16 O         -13.1859    0.0829   17.7093 O.2     1  UNL1       -0.3577
     17 N         -12.6661   -1.3090   17.5034 N.ar    1  UNL1       -0.0758
     18 C         -15.1663    1.1687   19.1390 C.3     1  UNL1        0.0602
     19 C         -16.3545    1.6985   19.8857 C.3     1  UNL1        0.0081
     20 C         -15.3973    2.6482   19.2285 C.3     1  UNL1        0.0081
     21 C         -14.1257   -8.4547   17.3561 C.3     1  UNL1        0.0264
     22 C         -14.5368   -7.4218   18.3632 C.3     1  UNL1        0.1069
     23 C         -15.6741   -7.6995   19.3008 C.3     1  UNL1        0.0264
@<TRIPOS>BOND
     1    21    22    1
     2    22    23    1
     3    22     1    1
     4     1     2   ar
     5     2     3   ar
     6     3    13    1
     7    13    14   ar
     8    14    15   ar
     9    15    18    1
    10    18    19    1
    11    19    20    1
    12    15    16   ar
    13    16    17   ar
    14     3     4   ar
    15     4     5   ar
    16     5     6    1
    17     5     7   ar
    18     7     8   ar
    19     8     9   ar
    20     9    10   ar
    21    10     1   ar
    22    17    13   ar
    23    10     4   ar
    24    20    18    1
    25     6    11    1
    26     6    12    1
@<TRIPOS>MOLECULE
*****
 23 26 0 0 0
SMALL
GASTEIGER

@<TRIPOS>ATOM
      1 N          -6.7903  -16.0293   25.2978 N.ar    1  UNL1       -0.2359
      2 N          -5.4371  -16.5581   24.9246 N.ar    1  UNL1       -0.1663
      3 C          -5.5500  -17.2122   23.5795 C.ar    1  UNL1        0.1274
      4 C          -6.9729  -17.0877   23.1214 C.ar    1  UNL1        0.0876
      5 C          -7.6696  -17.5456   21.8744 C.ar    1  UNL1        0.1316
      6 N          -6.9031  -18.2767   20.8124 N.pl3   1  UNL1       -0.3425
      7 N          -9.1328  -17.2723   21.6895 N.ar    1  UNL1       -0.2093
      8 C          -9.8994  -16.5412   22.7515 C.ar    1  UNL1        0.2014
      9 N          -9.2027  -16.0833   23.9985 N.ar    1  UNL1       -0.2050
     10 C          -7.7395  -16.3566   24.1834 C.ar    1  UNL1        0.1653
     11 H          -5.9427  -18.4560   20.9338 H       1  UNL1        0.1437
     12 H          -7.3604  -18.5772   19.9940 H       1  UNL1        0.1437
     13 C          -4.4357  -17.8746   22.8249 C.ar    1  UNL1        0.1421
     14 C          -3.3241  -17.1755   22.1000 C.ar    1  UNL1        0.0596
     15 C          -2.4386  -18.2212   21.4898 C.ar    1  UNL1        0.1540
     16 O          -3.0030  -19.5668   21.8376 O.2     1  UNL1       -0.3577
     17 N          -4.2373  -19.3526   22.6627 N.ar    1  UNL1       -0.0758
     18 C          -1.2054  -17.9662   20.6750 C.3     1  UNL1        0.0602
     19 C          -0.1669  -17.0186   20.1520 C.3     1  UNL1        0.0081
     20 C          -0.1078  -18.4722   19.7864 C.3     1  UNL1        0.0081
     21 C          -8.4783  -15.4963   27.1996 C.3     1  UNL1        0.0264
     22 C          -7.1340  -15.3010   26.5633 C.3     1  UNL1        0.1069
     23 C          -6.1335  -14.3775   27.1926 C.3     1  UNL1        0.0264
@<TRIPOS>BOND
     1    21    22    1
     2    22    23    1
     3    22     1    1
     4     1     2   ar
     5     2     3   ar
     6     3    13    1
     7    13    14   ar
     8    14    15   ar
     9    15    18    1
    10    18    19    1
    11    19    20    1
    12    15    16   ar
    13    16    17   ar
    14     3     4   ar
    15     4     5   ar
    16     5     6    1
    17     5     7   ar
    18     7     8   ar
    19     8     9   ar
    20     9    10   ar
    21    10     1   ar
    22    17    13   ar
    23    10     4   ar
    24    20    18    1
    25     6    11    1
    26     6    12    1
@<TRIPOS>MOLECULE
*****
 23 26 0 0 0
SMALL
GASTEIGER

@<TRIPOS>ATOM
      1 N           1.2751    0.2148   29.1120 N.ar    1  UNL1       -0.2359
      2 N           1.5055   -0.0415   30.5718 N.ar    1  UNL1       -0.1663
      3 C           2.8999   -0.5696   30.7351 C.ar    1  UNL1        0.1274
      4 C           3.5312   -0.6398   29.3762 C.ar    1  UNL1        0.0876
      5 C           4.8908   -1.0824   28.9228 C.ar    1  UNL1        0.1316
      6 N           5.8950   -1.5672   29.9260 N.pl3   1  UNL1       -0.3425
      7 N           5.2460   -1.0403   27.4661 N.ar    1  UNL1       -0.2093
      8 C           4.2418   -0.5555   26.4629 C.ar    1  UNL1        0.2014
      9 N           2.8822   -0.1128   26.9164 N.ar    1  UNL1       -0.2050
     10 C           2.5270   -0.1549   28.3730 C.ar    1  UNL1        0.1653
     11 H           5.6618   -1.5949   30.8820 H       1  UNL1        0.1437
     12 H           6.7873   -1.8578   29.6283 H       1  UNL1        0.1437
     13 C           3.5491   -0.9593   32.0300 C.ar    1  UNL1        0.1421
     14 C           3.8165   -0.0485   33.1914 C.ar    1  UNL1        0.0596
     15 C           4.4776   -0.8544   34.2701 C.ar    1  UNL1        0.1540
     16 O           4.6187   -2.2634   33.7752 O.2     1  UNL1       -0.3577
     17 N           4.0449   -2.3282   32.3908 N.ar    1  UNL1       -0.0758
     18 C           4.9198   -0.3415   35.6084 C.3     1  UNL1        0.0602
     19 C           4.6040    0.3352   36.9093 C.3     1  UNL1        0.0081
     20 C           6.0017   -0.1298   36.6258 C.3     1  UNL1        0.0081
     21 C           0.0349    2.0470   27.7499 C.3     1  UNL1        0.0264
     22 C           0.0140    0.7473   28.4986 C.3     1  UNL1        0.1069
     23 C          -1.2679   -0.0196   28.6340 C.3     1  UNL1        0.0264
@<TRIPOS>BOND
     1    21    22    1
     2    22    23    1
     3    22     1    1
     4     1     2   ar
     5     2     3   ar
     6     3    13    1
     7    13    14   ar
     8    14    15   ar
     9    15    18    1
    10    18    19    1
    11    19    20    1
    12    15    16   ar
    13    16    17   ar
    14     3     4   ar
    15     4     5   ar
    16     5     6    1
    17     5     7   ar
    18     7     8   ar
    19     8     9   ar
    20     9    10   ar
    21    10     1   ar
    22    17    13   ar
    23    10     4   ar
    24    20    18    1
    25     6    11    1
    26     6    12    1
