@<TRIPOS>MOLECULE
*****
 36 39 0 0 0
SMALL
GASTEIGER

@<TRIPOS>ATOM
      1 C           8.3803   -8.3004   27.3051 C.ar    1  UNL1       -0.0024
      2 C           8.8315   -8.0047   25.9055 C.ar    1  UNL1       -0.0026
      3 C           9.0161   -6.5839   25.4614 C.ar    1  UNL1       -0.0001
      4 C           8.7495   -5.4588   26.4170 C.ar    1  UNL1        0.0045
      5 C           8.2983   -5.7545   27.8166 C.ar    1  UNL1        0.0534
      6 C           8.1137   -7.1754   28.2607 C.ar    1  UNL1        0.0019
      7 C           8.0317   -4.6295   28.7722 C.2     1  UNL1        0.2495
      8 O           7.8160   -3.2391   28.2523 O.2     1  UNL1       -0.2698
      9 N           7.9808   -4.8948   30.2476 N.am    1  UNL1       -0.2804
     10 H           8.1224   -5.8074   30.5888 H       1  UNL1        0.1552
     11 C           7.7142   -3.7698   31.2033 C.ar    1  UNL1        0.0502
     12 C           8.8275   -2.8493   31.6074 C.ar    1  UNL1        0.0143
     13 C           8.5610   -1.7243   32.5631 C.ar    1  UNL1       -0.0032
     14 C           7.1811   -1.5196   33.1146 C.ar    1  UNL1       -0.0234
     15 C           6.0678   -2.4401   32.7104 C.ar    1  UNL1       -0.0091
     16 C           6.3344   -3.5652   31.7548 C.ar    1  UNL1        0.0114
     17 C           4.6880   -2.2355   33.2619 C.3     1  UNL1        0.0954
     18 N           4.4214   -1.1105   34.2175 N.3     1  UNL1       -0.2935
     19 C           5.5347   -0.1900   34.6216 C.3     1  UNL1        0.0735
     20 C           6.9146   -0.3946   34.0702 C.3     1  UNL1        0.0432
     21 H           4.0613   -1.5309   35.0742 H       1  UNL1        0.1236
     22 C           8.1957   -9.7212   27.7492 C.3     1  UNL1        0.1166
     23 C           6.6856  -11.8218   27.9881 C.2     1  UNL1        0.2462
     24 O           7.8710  -12.6227   28.4390 O.2     1  UNL1       -0.2701
     25 N           6.8479  -10.3710   27.6432 N.am    1  UNL1       -0.2969
     26 H           6.0699   -9.8454   27.3473 H       1  UNL1        0.1501
     27 C           2.6422  -13.7713   27.6702 C.ar    1  UNL1        0.1724
     28 C           3.7283  -14.1346   26.7014 C.ar    1  UNL1        0.0402
     29 C           5.0760  -13.4848   26.8074 C.ar    1  UNL1        0.0078
     30 C           5.3378  -12.4717   27.8822 C.ar    1  UNL1        0.0566
     31 C           4.2518  -12.1084   28.8509 C.ar    1  UNL1        0.0446
     32 C           2.9040  -12.7582   28.7450 C.ar    1  UNL1        0.1725
     33 C           1.0443  -15.7421   28.2295 C.3     1  UNL1        0.2526
     34 O           1.2944  -14.4211   27.5643 O.3     1  UNL1       -0.4684
     35 O           1.8179  -12.3949   29.7138 O.3     1  UNL1       -0.4684
     36 C           1.3185  -13.4120   30.6966 C.3     1  UNL1        0.2526
@<TRIPOS>BOND
     1    33    34    1
     2    34    27    1
     3    27    28   ar
     4    28    29   ar
     5    29    30   ar
     6    30    23    1
     7    23    24    2
     8    23    25   am
     9    25    22    1
    10    22     1    1
    11     1     2   ar
    12     2     3   ar
    13     3     4   ar
    14     4     5   ar
    15     5     7    1
    16     7     8    2
    17     7     9   am
    18     9    11    1
    19    11    12   ar
    20    12    13   ar
    21    13    14   ar
    22    14    15   ar
    23    15    16   ar
    24    15    17    1
    25    17    18    1
    26    18    19    1
    27    19    20    1
    28     5     6   ar
    29    30    31   ar
    30    31    32   ar
    31    32    35    1
    32    35    36    1
    33    32    27   ar
    34     6     1   ar
    35    16    11   ar
    36    20    14    1
    37    25    26    1
    38     9    10    1
    39    18    21    1
@<TRIPOS>MOLECULE
*****
 36 39 0 0 0
SMALL
GASTEIGER

@<TRIPOS>ATOM
      1 C           8.6667   -5.2168   24.1307 C.ar    1  UNL1       -0.0024
      2 C           8.8007   -6.6955   23.9174 C.ar    1  UNL1       -0.0026
      3 C           8.2880   -7.6522   24.9527 C.ar    1  UNL1       -0.0001
      4 C           7.6413   -7.1301   26.2015 C.ar    1  UNL1        0.0045
      5 C           7.5072   -5.6514   26.4148 C.ar    1  UNL1        0.0534
      6 C           8.0200   -4.6948   25.3794 C.ar    1  UNL1        0.0019
      7 C           6.8605   -5.1294   27.6634 C.2     1  UNL1        0.2495
      8 O           5.5277   -5.6635   28.0974 O.2     1  UNL1       -0.2698
      9 N           7.5466   -4.0733   28.4782 N.am    1  UNL1       -0.2804
     10 H           8.4214   -3.7228   28.1933 H       1  UNL1        0.1552
     11 C           6.8999   -3.5512   29.7269 C.ar    1  UNL1        0.0502
     12 C           7.0792   -4.2803   31.0255 C.ar    1  UNL1        0.0143
     13 C           6.4325   -3.7582   32.2741 C.ar    1  UNL1       -0.0032
     14 C           5.6066   -2.5071   32.2243 C.ar    1  UNL1       -0.0234
     15 C           5.4273   -1.7780   30.9257 C.ar    1  UNL1       -0.0091
     16 C           6.0740   -2.3001   29.6770 C.ar    1  UNL1        0.0114
     17 C           4.6014   -0.5268   30.8758 C.3     1  UNL1        0.0954
     18 N           3.9548   -0.0048   32.1245 N.3     1  UNL1       -0.2935
     19 C           4.1340   -0.7339   33.4231 C.3     1  UNL1        0.0735
     20 C           4.9599   -1.9850   33.4730 C.3     1  UNL1        0.0432
     21 H           2.9517    0.0318   31.9434 H       1  UNL1        0.1236
     22 C           9.1794   -4.2602   23.0954 C.3     1  UNL1        0.1166
     23 C           7.6329   -4.2379   21.0078 C.2     1  UNL1        0.2462
     24 O           8.0109   -5.6591   20.7126 O.2     1  UNL1       -0.2701
     25 N           8.2172   -3.5384   22.1993 N.am    1  UNL1       -0.2969
     26 H           7.9691   -2.6055   22.3930 H       1  UNL1        0.1501
     27 C           4.7462   -2.0724   18.3194 C.ar    1  UNL1        0.1724
     28 C           4.2322   -3.0101   19.3714 C.ar    1  UNL1        0.0402
     29 C           5.1944   -3.7319   20.2675 C.ar    1  UNL1        0.0078
     30 C           6.6707   -3.5160   20.1117 C.ar    1  UNL1        0.0566
     31 C           7.1846   -2.5784   19.0597 C.ar    1  UNL1        0.0446
     32 C           6.2224   -1.8566   18.1636 C.ar    1  UNL1        0.1725
     33 C           3.2205   -0.0246   17.8409 C.3     1  UNL1        0.2526
     34 O           3.7840   -1.3506   17.4232 O.3     1  UNL1       -0.4684
     35 O           6.7364   -0.9189   17.1116 O.3     1  UNL1       -0.4684
     36 C           7.1499    0.4736   17.4854 C.3     1  UNL1        0.2526
@<TRIPOS>BOND
     1    33    34    1
     2    34    27    1
     3    27    28   ar
     4    28    29   ar
     5    29    30   ar
     6    30    23    1
     7    23    24    2
     8    23    25   am
     9    25    22    1
    10    22     1    1
    11     1     2   ar
    12     2     3   ar
    13     3     4   ar
    14     4     5   ar
    15     5     7    1
    16     7     8    2
    17     7     9   am
    18     9    11    1
    19    11    12   ar
    20    12    13   ar
    21    13    14   ar
    22    14    15   ar
    23    15    16   ar
    24    15    17    1
    25    17    18    1
    26    18    19    1
    27    19    20    1
    28     5     6   ar
    29    30    31   ar
    30    31    32   ar
    31    32    35    1
    32    35    36    1
    33    32    27   ar
    34     6     1   ar
    35    16    11   ar
    36    20    14    1
    37    25    26    1
    38     9    10    1
    39    18    21    1
@<TRIPOS>MOLECULE
*****
 36 39 0 0 0
SMALL
GASTEIGER

@<TRIPOS>ATOM
      1 C           7.9010   -5.4006   23.6451 C.ar    1  UNL1       -0.0024
      2 C           8.4812   -6.7827   23.5887 C.ar    1  UNL1       -0.0026
      3 C           8.4915   -7.6425   24.8177 C.ar    1  UNL1       -0.0001
      4 C           7.9216   -7.1203   26.1032 C.ar    1  UNL1        0.0045
      5 C           7.3414   -5.7383   26.1597 C.ar    1  UNL1        0.0534
      6 C           7.3311   -4.8784   24.9306 C.ar    1  UNL1        0.0019
      7 C           6.7715   -5.2160   27.4451 C.2     1  UNL1        0.2495
      8 O           5.4830   -5.7721   27.9750 O.2     1  UNL1       -0.2698
      9 N           7.4900   -4.1378   28.2007 N.am    1  UNL1       -0.2804
     10 H           8.3357   -3.7728   27.8530 H       1  UNL1        0.1552
     11 C           6.9201   -3.6155   29.4863 C.ar    1  UNL1        0.0502
     12 C           7.1460   -4.3647   30.7660 C.ar    1  UNL1        0.0143
     13 C           6.5762   -3.8425   32.0514 C.ar    1  UNL1       -0.0032
     14 C           5.7804   -2.5710   32.0573 C.ar    1  UNL1       -0.0234
     15 C           5.5544   -1.8218   30.7776 C.ar    1  UNL1       -0.0091
     16 C           6.1243   -2.3440   29.4921 C.ar    1  UNL1        0.0114
     17 C           4.7586   -0.5503   30.7834 C.3     1  UNL1        0.0954
     18 N           4.1888   -0.0281   32.0689 N.3     1  UNL1       -0.2935
     19 C           4.4147   -0.7773   33.3486 C.3     1  UNL1        0.0735
     20 C           5.2105   -2.0488   33.3428 C.3     1  UNL1        0.0432
     21 H           3.1791    0.0353   31.9391 H       1  UNL1        0.1236
     22 C           7.8906   -4.5408   22.4161 C.3     1  UNL1        0.1166
     23 C           5.8162   -3.5719   21.1880 C.2     1  UNL1        0.2462
     24 O           5.8084   -4.7558   20.2672 O.2     1  UNL1       -0.2701
     25 N           6.8574   -3.4643   22.2626 N.am    1  UNL1       -0.2969
     26 H           6.8625   -2.6872   22.8670 H       1  UNL1        0.1501
     27 C           2.7164   -0.3425   20.7274 C.ar    1  UNL1        0.1724
     28 C           3.0085   -0.9138   22.0833 C.ar    1  UNL1        0.0402
     29 C           4.0417   -1.9903   22.2368 C.ar    1  UNL1        0.0078
     30 C           4.7830   -2.4954   21.0345 C.ar    1  UNL1        0.0566
     31 C           4.4909   -1.9241   19.6787 C.ar    1  UNL1        0.0446
     32 C           3.4576   -0.8476   19.5251 C.ar    1  UNL1        0.1725
     33 C           0.2631    0.3706   20.2550 C.3     1  UNL1        0.2526
     34 O           1.6831    0.7340   20.5738 O.3     1  UNL1       -0.4684
     35 O           3.1656   -0.2763   18.1692 O.3     1  UNL1       -0.4684
     36 C           3.8255   -0.8557   16.9532 C.3     1  UNL1        0.2526
@<TRIPOS>BOND
     1    33    34    1
     2    34    27    1
     3    27    28   ar
     4    28    29   ar
     5    29    30   ar
     6    30    23    1
     7    23    24    2
     8    23    25   am
     9    25    22    1
    10    22     1    1
    11     1     2   ar
    12     2     3   ar
    13     3     4   ar
    14     4     5   ar
    15     5     7    1
    16     7     8    2
    17     7     9   am
    18     9    11    1
    19    11    12   ar
    20    12    13   ar
    21    13    14   ar
    22    14    15   ar
    23    15    16   ar
    24    15    17    1
    25    17    18    1
    26    18    19    1
    27    19    20    1
    28     5     6   ar
    29    30    31   ar
    30    31    32   ar
    31    32    35    1
    32    35    36    1
    33    32    27   ar
    34     6     1   ar
    35    16    11   ar
    36    20    14    1
    37    25    26    1
    38     9    10    1
    39    18    21    1
@<TRIPOS>MOLECULE
*****
 36 39 0 0 0
SMALL
GASTEIGER

@<TRIPOS>ATOM
      1 C          -5.1354    3.6796   22.2813 C.ar    1  UNL1       -0.0024
      2 C          -6.4906    4.2649   22.5476 C.ar    1  UNL1       -0.0026
      3 C          -6.8839    4.6403   23.9456 C.ar    1  UNL1       -0.0001
      4 C          -5.9221    4.4304   25.0773 C.ar    1  UNL1        0.0045
      5 C          -4.5669    3.8451   24.8111 C.ar    1  UNL1        0.0534
      6 C          -4.1736    3.4697   23.4130 C.ar    1  UNL1        0.0019
      7 C          -3.6050    3.6352   25.9427 C.2     1  UNL1        0.2495
      8 O          -4.0287    3.9287   27.3514 O.2     1  UNL1       -0.2698
      9 N          -2.2195    3.1317   25.6657 N.am    1  UNL1       -0.2804
     10 H          -1.9414    2.9391   24.7412 H       1  UNL1        0.1552
     11 C          -1.2575    2.9218   26.7974 C.ar    1  UNL1        0.0502
     12 C          -0.5741    4.0983   27.4288 C.ar    1  UNL1        0.0143
     13 C           0.3878    3.8884   28.5605 C.ar    1  UNL1       -0.0032
     14 C           0.6663    2.5020   29.0608 C.ar    1  UNL1       -0.0234
     15 C          -0.0172    1.3254   28.4294 C.ar    1  UNL1       -0.0091
     16 C          -0.9791    1.5354   27.2977 C.ar    1  UNL1        0.0114
     17 C           0.2613   -0.0610   28.9296 C.3     1  UNL1        0.0954
     18 N           1.2232   -0.2709   30.0612 N.3     1  UNL1       -0.2935
     19 C           1.9066    0.9057   30.6926 C.3     1  UNL1        0.0735
     20 C           1.6282    2.2921   30.1924 C.3     1  UNL1        0.0432
     21 H           1.9582   -0.8861   29.7126 H       1  UNL1        0.1236
     22 C          -4.7421    3.3042   20.8834 C.3     1  UNL1        0.1166
     23 C          -2.1990    3.4946   20.3871 C.2     1  UNL1        0.2462
     24 O          -2.3077    4.9905   20.4036 O.2     1  UNL1       -0.2701
     25 N          -3.4162    2.6514   20.6270 N.am    1  UNL1       -0.2969
     26 H          -3.3448    1.6695   20.6162 H       1  UNL1        0.1501
     27 C           1.7789    1.5362   19.6180 C.ar    1  UNL1        0.1724
     28 C           1.1090    2.3253   18.5323 C.ar    1  UNL1        0.0402
     29 C          -0.2170    2.9781   18.7886 C.ar    1  UNL1        0.0078
     30 C          -0.8730    2.8418   20.1307 C.ar    1  UNL1        0.0566
     31 C          -0.2031    2.0528   21.2163 C.ar    1  UNL1        0.0446
     32 C           1.1228    1.4000   20.9600 C.ar    1  UNL1        0.1725
     33 C           3.1652   -0.5633   18.9696 C.3     1  UNL1        0.2526
     34 O           3.1048    0.8834   19.3616 O.3     1  UNL1       -0.4684
     35 O           1.7927    0.6109   22.0457 O.3     1  UNL1       -0.4684
     36 C           1.6877    1.0599   23.4730 C.3     1  UNL1        0.2526
@<TRIPOS>BOND
     1    33    34    1
     2    34    27    1
     3    27    28   ar
     4    28    29   ar
     5    29    30   ar
     6    30    23    1
     7    23    24    2
     8    23    25   am
     9    25    22    1
    10    22     1    1
    11     1     2   ar
    12     2     3   ar
    13     3     4   ar
    14     4     5   ar
    15     5     7    1
    16     7     8    2
    17     7     9   am
    18     9    11    1
    19    11    12   ar
    20    12    13   ar
    21    13    14   ar
    22    14    15   ar
    23    15    16   ar
    24    15    17    1
    25    17    18    1
    26    18    19    1
    27    19    20    1
    28     5     6   ar
    29    30    31   ar
    30    31    32   ar
    31    32    35    1
    32    35    36    1
    33    32    27   ar
    34     6     1   ar
    35    16    11   ar
    36    20    14    1
    37    25    26    1
    38     9    10    1
    39    18    21    1
@<TRIPOS>MOLECULE
*****
 36 39 0 0 0
SMALL
GASTEIGER

@<TRIPOS>ATOM
      1 C           6.3026   -2.9169   19.1110 C.ar    1  UNL1       -0.0024
      2 C           7.4232   -2.2607   18.3601 C.ar    1  UNL1       -0.0026
      3 C           8.7719   -2.1166   19.0005 C.ar    1  UNL1       -0.0001
      4 C           9.0001   -2.6287   20.3919 C.ar    1  UNL1        0.0045
      5 C           7.8796   -3.2849   21.1427 C.ar    1  UNL1        0.0534
      6 C           6.5308   -3.4289   20.5023 C.ar    1  UNL1        0.0019
      7 C           8.1077   -3.7969   22.5340 C.2     1  UNL1        0.2495
      8 O           9.3247   -3.3702   23.3001 O.2     1  UNL1       -0.2698
      9 N           7.1189   -4.7357   23.1592 N.am    1  UNL1       -0.2804
     10 H           6.3202   -5.0158   22.6563 H       1  UNL1        0.1552
     11 C           7.3471   -5.2479   24.5505 C.ar    1  UNL1        0.0502
     12 C           8.1309   -6.5084   24.7666 C.ar    1  UNL1        0.0143
     13 C           8.3591   -7.0205   26.1579 C.ar    1  UNL1       -0.0032
     14 C           7.8034   -6.2721   27.3331 C.ar    1  UNL1       -0.0234
     15 C           7.0195   -5.0116   27.1170 C.ar    1  UNL1       -0.0091
     16 C           6.7914   -4.4995   25.7257 C.ar    1  UNL1        0.0114
     17 C           6.4638   -4.2632   28.2922 C.3     1  UNL1        0.0954
     18 N           6.6919   -4.7753   29.6835 N.3     1  UNL1       -0.2935
     19 C           7.4758   -6.0359   29.8995 C.3     1  UNL1        0.0735
     20 C           8.0315   -6.7842   28.7244 C.3     1  UNL1        0.0432
     21 H           5.7715   -4.9266   30.0962 H       1  UNL1        0.1236
     22 C           4.9539   -3.0609   18.4706 C.3     1  UNL1        0.1166
     23 C           3.5202   -0.8950   18.5273 C.2     1  UNL1        0.2462
     24 O           4.4281   -0.2674   17.5116 O.2     1  UNL1       -0.2701
     25 N           3.7830   -2.2918   19.0068 N.am    1  UNL1       -0.2969
     26 H           3.1871   -2.7038   19.6734 H       1  UNL1        0.1501
     27 C           0.0075    1.4123   20.1358 C.ar    1  UNL1        0.1724
     28 C           0.3291    0.0548   20.6872 C.ar    1  UNL1        0.0402
     29 C           1.5000   -0.7143   20.1510 C.ar    1  UNL1        0.0078
     30 C           2.3493   -0.1259   19.0635 C.ar    1  UNL1        0.0566
     31 C           2.0277    1.2315   18.5122 C.ar    1  UNL1        0.0446
     32 C           0.8568    2.0006   19.0484 C.ar    1  UNL1        0.1725
     33 C          -0.9753    3.1325   21.8168 C.3     1  UNL1        0.2526
     34 O          -1.1634    2.1815   20.6720 O.3     1  UNL1       -0.4684
     35 O           0.5352    3.3581   18.4971 O.3     1  UNL1       -0.4684
     36 C          -0.5744    3.5194   17.5007 C.3     1  UNL1        0.2526
@<TRIPOS>BOND
     1    33    34    1
     2    34    27    1
     3    27    28   ar
     4    28    29   ar
     5    29    30   ar
     6    30    23    1
     7    23    24    2
     8    23    25   am
     9    25    22    1
    10    22     1    1
    11     1     2   ar
    12     2     3   ar
    13     3     4   ar
    14     4     5   ar
    15     5     7    1
    16     7     8    2
    17     7     9   am
    18     9    11    1
    19    11    12   ar
    20    12    13   ar
    21    13    14   ar
    22    14    15   ar
    23    15    16   ar
    24    15    17    1
    25    17    18    1
    26    18    19    1
    27    19    20    1
    28     5     6   ar
    29    30    31   ar
    30    31    32   ar
    31    32    35    1
    32    35    36    1
    33    32    27   ar
    34     6     1   ar
    35    16    11   ar
    36    20    14    1
    37    25    26    1
    38     9    10    1
    39    18    21    1
@<TRIPOS>MOLECULE
*****
 36 39 0 0 0
SMALL
GASTEIGER

@<TRIPOS>ATOM
      1 C           7.2113   -5.6034   27.2655 C.ar    1  UNL1       -0.0024
      2 C           8.3898   -6.4701   26.9336 C.ar    1  UNL1       -0.0026
      3 C           8.9990   -6.4153   25.5640 C.ar    1  UNL1       -0.0001
      4 C           8.4298   -5.4939   24.5262 C.ar    1  UNL1        0.0045
      5 C           7.2513   -4.6272   24.8581 C.ar    1  UNL1        0.0534
      6 C           6.6421   -4.6820   26.2277 C.ar    1  UNL1        0.0019
      7 C           6.6820   -3.7058   23.8203 C.2     1  UNL1        0.2495
      8 O           7.3411   -2.3866   23.5460 O.2     1  UNL1       -0.2698
      9 N           5.4537   -4.1037   23.0569 N.am    1  UNL1       -0.2804
     10 H           5.0211   -4.9695   23.2370 H       1  UNL1        0.1552
     11 C           4.8844   -3.1822   22.0191 C.ar    1  UNL1        0.0502
     12 C           3.9509   -2.0806   22.4253 C.ar    1  UNL1        0.0143
     13 C           3.3816   -1.1592   21.3876 C.ar    1  UNL1       -0.0032
     14 C           3.7458   -1.3394   19.9436 C.ar    1  UNL1       -0.0234
     15 C           4.6792   -2.4411   19.5375 C.ar    1  UNL1       -0.0091
     16 C           5.2486   -3.3625   20.5752 C.ar    1  UNL1        0.0114
     17 C           5.0434   -2.6213   18.0936 C.3     1  UNL1        0.0954
     18 N           4.4741   -1.6999   17.0559 N.3     1  UNL1       -0.2935
     19 C           3.5406   -0.5983   17.4621 C.3     1  UNL1        0.0735
     20 C           3.1764   -0.4180   18.9059 C.3     1  UNL1        0.0432
     21 H           3.9685   -2.2835   16.3894 H       1  UNL1        0.1236
     22 C           6.6021   -5.6582   28.6351 C.3     1  UNL1        0.1166
     23 C           6.7880   -4.6162   31.0078 C.2     1  UNL1        0.2462
     24 O           6.8882   -5.9894   31.6030 O.2     1  UNL1       -0.2701
     25 N           6.6450   -4.4506   29.5238 N.am    1  UNL1       -0.2969
     26 H           6.5792   -3.5493   29.1331 H       1  UNL1        0.1501
     27 C           6.9165   -0.9934   33.6740 C.ar    1  UNL1        0.1724
     28 C           8.1893   -1.5641   33.1223 C.ar    1  UNL1        0.0402
     29 C           8.1465   -2.7717   32.2335 C.ar    1  UNL1        0.0078
     30 C           6.8308   -3.4086   31.8965 C.ar    1  UNL1        0.0566
     31 C           5.5581   -2.8379   32.4482 C.ar    1  UNL1        0.0446
     32 C           5.6009   -1.6303   33.3370 C.ar    1  UNL1        0.1725
     33 C           6.8048    0.0592   36.0467 C.3     1  UNL1        0.2526
     34 O           6.9593    0.2143   34.5627 O.3     1  UNL1       -0.4684
     35 O           4.3281   -1.0596   33.8887 O.3     1  UNL1       -0.4684
     36 C           3.6358    0.0611   33.1714 C.3     1  UNL1        0.2526
@<TRIPOS>BOND
     1    33    34    1
     2    34    27    1
     3    27    28   ar
     4    28    29   ar
     5    29    30   ar
     6    30    23    1
     7    23    24    2
     8    23    25   am
     9    25    22    1
    10    22     1    1
    11     1     2   ar
    12     2     3   ar
    13     3     4   ar
    14     4     5   ar
    15     5     7    1
    16     7     8    2
    17     7     9   am
    18     9    11    1
    19    11    12   ar
    20    12    13   ar
    21    13    14   ar
    22    14    15   ar
    23    15    16   ar
    24    15    17    1
    25    17    18    1
    26    18    19    1
    27    19    20    1
    28     5     6   ar
    29    30    31   ar
    30    31    32   ar
    31    32    35    1
    32    35    36    1
    33    32    27   ar
    34     6     1   ar
    35    16    11   ar
    36    20    14    1
    37    25    26    1
    38     9    10    1
    39    18    21    1
@<TRIPOS>MOLECULE
*****
 36 39 0 0 0
SMALL
GASTEIGER

@<TRIPOS>ATOM
      1 C           1.6367    1.3573   26.5257 C.ar    1  UNL1       -0.0024
      2 C           1.4000    0.5510   27.7682 C.ar    1  UNL1       -0.0026
      3 C           0.0675    0.6051   28.4550 C.ar    1  UNL1       -0.0001
      4 C          -1.0283    1.4657   27.8992 C.ar    1  UNL1        0.0045
      5 C          -0.7915    2.2719   26.6567 C.ar    1  UNL1        0.0534
      6 C           0.5410    2.2177   25.9699 C.ar    1  UNL1        0.0019
      7 C          -1.8872    3.1324   26.1009 C.2     1  UNL1        0.2495
      8 O          -1.6669    3.9005   24.8314 O.2     1  UNL1       -0.2698
      9 N          -3.2033    3.2248   26.8145 N.am    1  UNL1       -0.2804
     10 H          -3.3479    2.7207   27.6477 H       1  UNL1        0.1552
     11 C          -4.2991    4.0853   26.2587 C.ar    1  UNL1        0.0502
     12 C          -4.6852    5.3539   26.9599 C.ar    1  UNL1        0.0143
     13 C          -5.7810    6.2144   26.4042 C.ar    1  UNL1       -0.0032
     14 C          -6.4906    5.8063   25.1472 C.ar    1  UNL1       -0.0234
     15 C          -6.1045    4.5378   24.4460 C.ar    1  UNL1       -0.0091
     16 C          -5.0087    3.6773   25.0018 C.ar    1  UNL1        0.0114
     17 C          -6.8141    4.1297   23.1891 C.3     1  UNL1        0.0954
     18 N          -7.9099    4.9902   22.6334 N.3     1  UNL1       -0.2935
     19 C          -8.2960    6.2588   23.3346 C.3     1  UNL1        0.0735
     20 C          -7.5864    6.6668   24.5915 C.3     1  UNL1        0.0432
     21 H          -8.7477    4.4099   22.5920 H       1  UNL1        0.1236
     22 C           2.9691    1.3031   25.8390 C.3     1  UNL1        0.1166
     23 C           3.4959   -0.7710   24.3655 C.2     1  UNL1        0.2462
     24 O           3.7808   -1.5751   25.5992 O.2     1  UNL1       -0.2701
     25 N           3.0900    0.6682   24.4854 N.am    1  UNL1       -0.2969
     26 H           2.9029    1.1959   23.6756 H       1  UNL1        0.1501
     27 C           3.8584   -2.6757   20.3047 C.ar    1  UNL1        0.1724
     28 C           4.5754   -3.2721   21.4795 C.ar    1  UNL1        0.0402
     29 C           4.4546   -2.6372   22.8332 C.ar    1  UNL1        0.0078
     30 C           3.6167   -1.4059   23.0119 C.ar    1  UNL1        0.0566
     31 C           2.8998   -0.8095   21.8371 C.ar    1  UNL1        0.0446
     32 C           3.0206   -1.4444   20.4834 C.ar    1  UNL1        0.1725
     33 C           4.3279   -4.7648   18.8331 C.3     1  UNL1        0.2526
     34 O           3.9793   -3.3106   18.9510 O.3     1  UNL1       -0.4684
     35 O           2.3036   -0.8480   19.3086 O.3     1  UNL1       -0.4684
     36 C           1.1332    0.0640   19.5283 C.3     1  UNL1        0.2526
@<TRIPOS>BOND
     1    33    34    1
     2    34    27    1
     3    27    28   ar
     4    28    29   ar
     5    29    30   ar
     6    30    23    1
     7    23    24    2
     8    23    25   am
     9    25    22    1
    10    22     1    1
    11     1     2   ar
    12     2     3   ar
    13     3     4   ar
    14     4     5   ar
    15     5     7    1
    16     7     8    2
    17     7     9   am
    18     9    11    1
    19    11    12   ar
    20    12    13   ar
    21    13    14   ar
    22    14    15   ar
    23    15    16   ar
    24    15    17    1
    25    17    18    1
    26    18    19    1
    27    19    20    1
    28     5     6   ar
    29    30    31   ar
    30    31    32   ar
    31    32    35    1
    32    35    36    1
    33    32    27   ar
    34     6     1   ar
    35    16    11   ar
    36    20    14    1
    37    25    26    1
    38     9    10    1
    39    18    21    1
@<TRIPOS>MOLECULE
*****
 36 39 0 0 0
SMALL
GASTEIGER

@<TRIPOS>ATOM
      1 C          -0.8947    2.4774   26.5650 C.ar    1  UNL1       -0.0024
      2 C          -2.0722    3.3674   26.2979 C.ar    1  UNL1       -0.0026
      3 C          -2.3626    3.8277   24.9001 C.ar    1  UNL1       -0.0001
      4 C          -1.4755    3.3978   23.7694 C.ar    1  UNL1        0.0045
      5 C          -0.2980    2.5078   24.0365 C.ar    1  UNL1        0.0534
      6 C          -0.0077    2.0475   25.4344 C.ar    1  UNL1        0.0019
      7 C           0.5890    2.0779   22.9059 C.2     1  UNL1        0.2495
      8 O           1.9948    2.5937   22.8178 O.2     1  UNL1       -0.2698
      9 N           0.0703    1.1323   21.8635 N.am    1  UNL1       -0.2804
     10 H          -0.8524    0.7938   21.9214 H       1  UNL1        0.1552
     11 C           0.9573    0.7024   20.7328 C.ar    1  UNL1        0.0502
     12 C           0.8519    1.3786   19.3980 C.ar    1  UNL1        0.0143
     13 C           1.7389    0.9488   18.2674 C.ar    1  UNL1       -0.0032
     14 C           2.7314   -0.1573   18.4715 C.ar    1  UNL1       -0.0234
     15 C           2.8369   -0.8335   19.8063 C.ar    1  UNL1       -0.0091
     16 C           1.9498   -0.4036   20.9369 C.ar    1  UNL1        0.0114
     17 C           3.8293   -1.9395   20.0104 C.3     1  UNL1        0.0954
     18 N           4.7163   -2.3693   18.8797 N.3     1  UNL1       -0.2935
     19 C           4.6109   -1.6931   17.5449 C.3     1  UNL1        0.0735
     20 C           3.6184   -0.5871   17.3408 C.3     1  UNL1        0.0432
     21 H           4.5340   -3.3605   18.7229 H       1  UNL1        0.1236
     22 C          -0.6043    2.0172   27.9628 C.3     1  UNL1        0.1166
     23 C           0.9150    0.2054   29.0396 C.2     1  UNL1        0.2462
     24 O          -0.2995   -0.5941   29.4079 O.2     1  UNL1       -0.2701
     25 N           0.7626    1.5111   28.3170 N.am    1  UNL1       -0.2969
     26 H           1.5597    2.0359   28.0753 H       1  UNL1        0.1501
     27 C           5.0157   -1.3127   30.1023 C.ar    1  UNL1        0.1724
     28 C           4.6200   -1.1661   28.6629 C.ar    1  UNL1        0.0402
     29 C           3.2531   -0.6600   28.3086 C.ar    1  UNL1        0.0078
     30 C           2.2819   -0.3006   29.3939 C.ar    1  UNL1        0.0566
     31 C           2.6776   -0.4473   30.8332 C.ar    1  UNL1        0.0446
     32 C           4.0445   -0.9533   31.1875 C.ar    1  UNL1        0.1725
     33 C           6.6790   -3.2877   30.3903 C.3     1  UNL1        0.2526
     34 O           6.3826   -1.8188   30.4566 O.3     1  UNL1       -0.4684
     35 O           4.4402   -1.1000   32.6269 O.3     1  UNL1       -0.4684
     36 C           4.4473   -2.4559   33.2684 C.3     1  UNL1        0.2526
@<TRIPOS>BOND
     1    33    34    1
     2    34    27    1
     3    27    28   ar
     4    28    29   ar
     5    29    30   ar
     6    30    23    1
     7    23    24    2
     8    23    25   am
     9    25    22    1
    10    22     1    1
    11     1     2   ar
    12     2     3   ar
    13     3     4   ar
    14     4     5   ar
    15     5     7    1
    16     7     8    2
    17     7     9   am
    18     9    11    1
    19    11    12   ar
    20    12    13   ar
    21    13    14   ar
    22    14    15   ar
    23    15    16   ar
    24    15    17    1
    25    17    18    1
    26    18    19    1
    27    19    20    1
    28     5     6   ar
    29    30    31   ar
    30    31    32   ar
    31    32    35    1
    32    35    36    1
    33    32    27   ar
    34     6     1   ar
    35    16    11   ar
    36    20    14    1
    37    25    26    1
    38     9    10    1
    39    18    21    1
@<TRIPOS>MOLECULE
*****
 36 39 0 0 0
SMALL
GASTEIGER

@<TRIPOS>ATOM
      1 C          -2.2264    3.7583   25.1445 C.ar    1  UNL1       -0.0024
      2 C          -2.0153    3.1159   26.4835 C.ar    1  UNL1       -0.0026
      3 C          -0.9291    2.0974   26.6638 C.ar    1  UNL1       -0.0001
      4 C          -0.0538    1.7211   25.5052 C.ar    1  UNL1        0.0045
      5 C          -0.2648    2.3635   24.1662 C.ar    1  UNL1        0.0534
      6 C          -1.3512    3.3821   23.9859 C.ar    1  UNL1        0.0019
      7 C           0.6104    1.9873   23.0076 C.2     1  UNL1        0.2495
      8 O           1.9845    2.5758   22.8835 O.2     1  UNL1       -0.2698
      9 N           0.1115    1.0225   21.9731 N.am    1  UNL1       -0.2804
     10 H          -0.7904    0.6362   22.0546 H       1  UNL1        0.1552
     11 C           0.9867    0.6462   20.8144 C.ar    1  UNL1        0.0502
     12 C           0.8989    1.4130   19.5282 C.ar    1  UNL1        0.0143
     13 C           1.7741    1.0368   18.3696 C.ar    1  UNL1       -0.0032
     14 C           2.7371   -0.1063   18.4971 C.ar    1  UNL1       -0.0234
     15 C           2.8248   -0.8731   19.7833 C.ar    1  UNL1       -0.0091
     16 C           1.9496   -0.4968   20.9420 C.ar    1  UNL1        0.0114
     17 C           3.7877   -2.0161   19.9108 C.3     1  UNL1        0.0954
     18 N           4.6628   -2.3923   18.7521 N.3     1  UNL1       -0.2935
     19 C           4.5751   -1.6255   17.4659 C.3     1  UNL1        0.0735
     20 C           3.6122   -0.4825   17.3384 C.3     1  UNL1        0.0432
     21 H           4.4543   -3.3656   18.5295 H       1  UNL1        0.1236
     22 C          -3.3126    4.7769   24.9641 C.3     1  UNL1        0.1166
     23 C          -4.8231    3.9877   23.0031 C.2     1  UNL1        0.2462
     24 O          -5.1492    2.7338   23.7588 O.2     1  UNL1       -0.2701
     25 N          -3.9048    5.0093   23.6057 N.am    1  UNL1       -0.2969
     26 H          -3.6907    5.8323   23.1097 H       1  UNL1        0.1501
     27 C          -6.5996    4.6851   18.9278 C.ar    1  UNL1        0.1724
     28 C          -7.2415    5.2926   20.1398 C.ar    1  UNL1        0.0402
     29 C          -6.6494    5.0602   21.4982 C.ar    1  UNL1        0.0078
     30 C          -5.4153    4.2202   21.6446 C.ar    1  UNL1        0.0566
     31 C          -4.7734    3.6126   20.4327 C.ar    1  UNL1        0.0446
     32 C          -5.3655    3.8451   19.0743 C.ar    1  UNL1        0.1725
     33 C          -6.7020    6.0545   16.7223 C.3     1  UNL1        0.2526
     34 O          -7.1917    4.9175   17.5694 O.3     1  UNL1       -0.4684
     35 O          -4.7236    3.2375   17.8623 O.3     1  UNL1       -0.4684
     36 C          -3.6073    3.9568   17.1647 C.3     1  UNL1        0.2526
@<TRIPOS>BOND
     1    33    34    1
     2    34    27    1
     3    27    28   ar
     4    28    29   ar
     5    29    30   ar
     6    30    23    1
     7    23    24    2
     8    23    25   am
     9    25    22    1
    10    22     1    1
    11     1     2   ar
    12     2     3   ar
    13     3     4   ar
    14     4     5   ar
    15     5     7    1
    16     7     8    2
    17     7     9   am
    18     9    11    1
    19    11    12   ar
    20    12    13   ar
    21    13    14   ar
    22    14    15   ar
    23    15    16   ar
    24    15    17    1
    25    17    18    1
    26    18    19    1
    27    19    20    1
    28     5     6   ar
    29    30    31   ar
    30    31    32   ar
    31    32    35    1
    32    35    36    1
    33    32    27   ar
    34     6     1   ar
    35    16    11   ar
    36    20    14    1
    37    25    26    1
    38     9    10    1
    39    18    21    1
