@<TRIPOS>MOLECULE
*****
 31 33 0 0 0
SMALL
GASTEIGER

@<TRIPOS>ATOM
      1 N          -5.1441  -17.4226   23.1548 N.ar    1  UNL1       -0.2820
      2 C          -5.8882  -16.4568   24.0286 C.ar    1  UNL1        0.2577
      3 O          -5.1443  -15.6272   25.0328 O.2     1  UNL1       -0.2673
      4 C          -7.3763  -16.3206   23.8982 C.ar    1  UNL1        0.0366
      5 C          -8.1203  -17.1502   22.8941 C.ar    1  UNL1        0.0050
      6 C          -7.3761  -18.1160   22.0202 C.ar    1  UNL1        0.0158
      7 C          -8.1201  -18.9455   21.0160 C.ar    1  UNL1        0.0053
      8 C          -7.3759  -19.9112   20.1423 C.ar    1  UNL1        0.0715
      9 C          -5.8878  -20.0474   20.2726 C.ar    1  UNL1        0.0053
     10 C          -5.1439  -19.2179   21.2768 C.ar    1  UNL1        0.0172
     11 C          -5.8880  -18.2522   22.1506 C.ar    1  UNL1        0.0634
     12 C          -9.6084  -17.0140   22.7637 C.ar    1  UNL1        0.0344
     13 C         -10.5156  -17.8494   23.6174 C.ar    1  UNL1        0.0144
     14 C         -12.0038  -17.7132   23.4871 C.ar    1  UNL1        0.0579
     15 CL        -12.9110  -18.5486   24.3409 Cl      1  UNL1       -0.0822
     16 C         -12.5846  -16.7416   22.5030 C.ar    1  UNL1        0.0145
     17 C         -11.6773  -15.9061   21.6491 C.ar    1  UNL1        0.0375
     18 C         -10.1892  -16.0423   21.7795 C.ar    1  UNL1        0.1336
     19 O          -9.2820  -15.2069   20.9258 O.3     1  UNL1       -0.5055
     20 H          -9.6448  -14.5999   20.3110 H       1  UNL1        0.2922
     21 C          -8.1199  -20.7408   19.1380 C.3     1  UNL1        0.4186
     22 F          -8.8638  -21.5704   18.1339 F       1  UNL1       -0.1659
     23 F          -7.0042  -21.7433   19.1397 F       1  UNL1       -0.1659
     24 F          -9.2356  -19.7383   19.1363 F       1  UNL1       -0.1659
     25 C          -3.6560  -17.5588   23.2851 C.3     1  UNL1        0.2151
     26 N          -1.8415  -15.8779   21.5874 N.1     1  UNL1       -0.1938
     27 C          -2.7487  -16.7183   22.4362 C.1     1  UNL1        0.0986
     28 C          -8.1205  -15.3548   24.7721 C.3     1  UNL1        0.0629
     29 C          -8.2122  -15.5974   26.2495 C.3     1  UNL1        0.1420
     30 O          -7.2350  -14.9411   27.1792 O.3     1  UNL1       -0.3816
     31 H          -6.3455  -15.2901   27.0123 H       1  UNL1        0.2105
@<TRIPOS>BOND
     1    26    27    3
     2    27    25    1
     3    25     1    1
     4     1     2   ar
     5     2     3    2
     6     2     4   ar
     7     4    28    1
     8    28    29    1
     9    29    30    1
    10     4     5   ar
    11     5    12    1
    12    12    13   ar
    13    13    14   ar
    14    14    15    1
    15    14    16   ar
    16    16    17   ar
    17    17    18   ar
    18    18    19    1
    19     5     6   ar
    20     6     7   ar
    21     7     8   ar
    22     8    21    1
    23    21    22    1
    24    21    23    1
    25    21    24    1
    26     8     9   ar
    27     9    10   ar
    28    10    11   ar
    29    11     1   ar
    30    18    12   ar
    31    11     6   ar
    32    30    31    1
    33    19    20    1
@<TRIPOS>MOLECULE
*****
 31 33 0 0 0
SMALL
GASTEIGER

@<TRIPOS>ATOM
      1 N          -5.2553  -17.7052   22.9421 N.ar    1  UNL1       -0.2820
      2 C          -6.0284  -16.6718   23.7066 C.ar    1  UNL1        0.2577
      3 O          -5.3308  -15.8067   24.7141 O.2     1  UNL1       -0.2673
      4 C          -7.4990  -16.5036   23.4638 C.ar    1  UNL1        0.0366
      5 C          -8.1966  -17.3687   22.4564 C.ar    1  UNL1        0.0050
      6 C          -7.4236  -18.4021   21.6918 C.ar    1  UNL1        0.0158
      7 C          -8.1212  -19.2672   20.6844 C.ar    1  UNL1        0.0053
      8 C          -7.3481  -20.3005   19.9198 C.ar    1  UNL1        0.0715
      9 C          -5.8775  -20.4688   20.1626 C.ar    1  UNL1        0.0053
     10 C          -5.1799  -19.6037   21.1700 C.ar    1  UNL1        0.0172
     11 C          -5.9529  -18.5703   21.9346 C.ar    1  UNL1        0.0634
     12 C          -9.6672  -17.2005   22.2136 C.ar    1  UNL1        0.0344
     13 C         -10.1480  -16.5008   20.9770 C.ar    1  UNL1        0.0144
     14 C         -11.6186  -16.3326   20.7342 C.ar    1  UNL1        0.0579
     15 CL        -12.0993  -15.6329   19.4974 Cl      1  UNL1       -0.0822
     16 C         -12.6085  -16.8640   21.7280 C.ar    1  UNL1        0.0145
     17 C         -12.1277  -17.5637   22.9647 C.ar    1  UNL1        0.0375
     18 C         -10.6571  -17.7320   23.2075 C.ar    1  UNL1        0.1336
     19 O         -10.1763  -18.4316   24.4441 O.3     1  UNL1       -0.5055
     20 H         -10.7947  -18.7636   25.0650 H       1  UNL1        0.2922
     21 C          -8.0457  -21.1657   18.9123 C.3     1  UNL1        0.4186
     22 F          -8.7433  -22.0309   17.9049 F       1  UNL1       -0.1659
     23 F          -6.9290  -22.1636   18.9961 F       1  UNL1       -0.1659
     24 F          -9.1624  -20.1678   18.8285 F       1  UNL1       -0.1659
     25 C          -3.7847  -17.8734   23.1849 C.3     1  UNL1        0.2151
     26 N          -1.8148  -16.1605   21.7065 N.1     1  UNL1       -0.1938
     27 C          -2.7997  -17.0169   22.4457 C.1     1  UNL1        0.0986
     28 C          -8.2720  -15.4702   24.2285 C.3     1  UNL1        0.0629
     29 C          -8.4706  -15.6243   25.7072 C.3     1  UNL1        0.1420
     30 O          -7.4970  -15.0020   26.6636 O.3     1  UNL1       -0.3816
     31 H          -6.6324  -15.4318   26.5702 H       1  UNL1        0.2105
@<TRIPOS>BOND
     1    26    27    3
     2    27    25    1
     3    25     1    1
     4     1     2   ar
     5     2     3    2
     6     2     4   ar
     7     4    28    1
     8    28    29    1
     9    29    30    1
    10     4     5   ar
    11     5    12    1
    12    12    13   ar
    13    13    14   ar
    14    14    15    1
    15    14    16   ar
    16    16    17   ar
    17    17    18   ar
    18    18    19    1
    19     5     6   ar
    20     6     7   ar
    21     7     8   ar
    22     8    21    1
    23    21    22    1
    24    21    23    1
    25    21    24    1
    26     8     9   ar
    27     9    10   ar
    28    10    11   ar
    29    11     1   ar
    30    18    12   ar
    31    11     6   ar
    32    30    31    1
    33    19    20    1
@<TRIPOS>MOLECULE
*****
 31 33 0 0 0
SMALL
GASTEIGER

@<TRIPOS>ATOM
      1 N         -10.3906  -17.5313   21.3789 N.ar    1  UNL1       -0.2820
      2 C         -10.0520  -18.4555   20.2470 C.ar    1  UNL1        0.2577
      3 O         -11.1254  -18.9095   19.3026 O.2     1  UNL1       -0.2673
      4 C          -8.6400  -18.9257   20.0594 C.ar    1  UNL1        0.0366
      5 C          -7.5666  -18.4717   21.0037 C.ar    1  UNL1        0.0050
      6 C          -7.9052  -17.5475   22.1357 C.ar    1  UNL1        0.0158
      7 C          -6.8318  -17.0935   23.0799 C.ar    1  UNL1        0.0053
      8 C          -7.1705  -16.1693   24.2118 C.ar    1  UNL1        0.0715
      9 C          -8.5824  -15.6991   24.3994 C.ar    1  UNL1        0.0053
     10 C          -9.6558  -16.1531   23.4551 C.ar    1  UNL1        0.0172
     11 C          -9.3172  -17.0773   22.3232 C.ar    1  UNL1        0.0634
     12 C          -6.1547  -18.9420   20.8161 C.ar    1  UNL1        0.0344
     13 C          -5.2359  -18.2051   19.8873 C.ar    1  UNL1        0.0144
     14 C          -3.8239  -18.6753   19.6997 C.ar    1  UNL1        0.0579
     15 CL         -2.9051  -17.9383   18.7708 Cl      1  UNL1       -0.0822
     16 C          -3.3307  -19.8824   20.4410 C.ar    1  UNL1        0.0145
     17 C          -4.2495  -20.6194   21.3699 C.ar    1  UNL1        0.0375
     18 C          -5.6614  -20.1491   21.5575 C.ar    1  UNL1        0.1336
     19 O          -6.5802  -20.8860   22.4864 O.3     1  UNL1       -0.5055
     20 H          -6.2721  -21.6401   22.9494 H       1  UNL1        0.2922
     21 C          -6.0970  -15.7153   25.1562 C.3     1  UNL1        0.4186
     22 F          -5.0237  -15.2613   26.1004 F       1  UNL1       -0.1659
     23 F          -5.0989  -15.7476   24.0370 F       1  UNL1       -0.1659
     24 F          -7.0952  -15.6830   26.2753 F       1  UNL1       -0.1659
     25 C         -11.8026  -17.0611   21.5664 C.3     1  UNL1        0.2151
     26 N         -13.4509  -18.1300   23.8337 N.1     1  UNL1       -0.1938
     27 C         -12.6268  -17.5956   22.7001 C.1     1  UNL1        0.0986
     28 C          -8.3014  -19.8499   18.9275 C.3     1  UNL1        0.0629
     29 C          -9.2888  -20.8897   18.4873 C.3     1  UNL1        0.1420
     30 O          -8.9332  -21.8425   17.3847 O.3     1  UNL1       -0.3816
     31 H          -8.8323  -21.3523   16.5538 H       1  UNL1        0.2105
@<TRIPOS>BOND
     1    26    27    3
     2    27    25    1
     3    25     1    1
     4     1     2   ar
     5     2     3    2
     6     2     4   ar
     7     4    28    1
     8    28    29    1
     9    29    30    1
    10     4     5   ar
    11     5    12    1
    12    12    13   ar
    13    13    14   ar
    14    14    15    1
    15    14    16   ar
    16    16    17   ar
    17    17    18   ar
    18    18    19    1
    19     5     6   ar
    20     6     7   ar
    21     7     8   ar
    22     8    21    1
    23    21    22    1
    24    21    23    1
    25    21    24    1
    26     8     9   ar
    27     9    10   ar
    28    10    11   ar
    29    11     1   ar
    30    18    12   ar
    31    11     6   ar
    32    30    31    1
    33    19    20    1
