@<TRIPOS>MOLECULE
*****
 34 38 0 0 0
SMALL
GASTEIGER

@<TRIPOS>ATOM
      1 N         -10.8207   -5.9532   17.4906 N.3     1  UNL1       -0.2672
      2 C         -11.5207   -6.6405   16.3558 C.3     1  UNL1        0.0898
      3 C         -12.7488   -7.4607   16.6188 C.3     1  UNL1        0.0899
      4 N         -13.2768   -7.5936   18.0165 N.3     1  UNL1       -0.2665
      5 C         -12.5768   -6.9063   19.1512 C.3     1  UNL1        0.0899
      6 C         -11.3487   -6.0861   18.8882 C.3     1  UNL1        0.0898
      7 C          -9.5926   -5.1330   17.2276 C.3     1  UNL1        0.1201
      8 C          -9.6847   -3.6363   17.1880 C.3     1  UNL1        0.2226
      9 O         -10.3650   -2.8970   18.3019 O.3     1  UNL1       -0.4739
     10 C         -16.7882   -1.2207   20.0859 C.3     1  UNL1        0.0521
     11 C         -15.3861   -1.3340   19.5650 C.ar    1  UNL1        0.0593
     12 C         -14.5712   -2.5572   19.8645 C.ar    1  UNL1        0.0148
     13 C         -13.1692   -2.6705   19.3436 C.ar    1  UNL1        0.0057
     14 C         -12.5819   -1.5606   18.5232 C.ar    1  UNL1        0.0516
     15 C         -11.1798   -1.6738   18.0024 C.ar    1  UNL1        0.1400
     16 C         -10.5925   -0.5639   17.1820 C.ar    1  UNL1        0.0370
     17 C         -11.4074    0.6594   16.8824 C.ar    1  UNL1        0.0047
     18 C         -12.8095    0.7727   17.4033 C.ar    1  UNL1        0.0193
     19 C         -13.3967   -0.3373   18.2237 C.ar    1  UNL1        0.0838
     20 N         -14.7988   -0.2241   18.7446 N.ar    1  UNL1       -0.2496
     21 C         -14.5048   -8.4138   18.2795 C.3     1  UNL1        0.0993
     22 C         -15.7817   -7.7421   18.6900 C.ar    1  UNL1       -0.0025
     23 C         -16.7132   -8.4234   19.6481 C.ar    1  UNL1        0.0299
     24 C         -17.9900   -7.7516   20.0586 C.ar    1  UNL1        0.1748
     25 F         -18.9216   -8.4330   21.0167 F       1  UNL1       -0.2009
     26 C         -18.3352   -6.3985   19.5110 C.ar    1  UNL1        0.1800
     27 C         -17.4037   -5.7172   18.5529 C.ar    1  UNL1        0.0902
     28 C         -16.1269   -6.3889   18.1424 C.ar    1  UNL1        0.0152
     29 N         -17.7489   -4.3640   18.0053 N.am    1  UNL1       -0.2511
     30 C         -16.8174   -3.6827   17.0472 C.3     1  UNL1        0.1202
     31 C         -19.0257   -3.6923   18.4158 C.2     1  UNL1        0.2740
     32 O         -19.3709   -2.3391   17.8682 O.2     1  UNL1       -0.2705
     33 C         -19.9573   -4.3736   19.3739 C.3     1  UNL1        0.2901
     34 O         -19.6121   -5.7267   19.9215 O.3     1  UNL1       -0.4621
@<TRIPOS>BOND
     1    10    11    1
     2    11    12   ar
     3    12    13   ar
     4    13    14   ar
     5    14    15   ar
     6    15     9    1
     7     9     8    1
     8     8     7    1
     9     7     1    1
    10     1     2    1
    11     2     3    1
    12     3     4    1
    13     4    21    1
    14    21    22    1
    15    22    23   ar
    16    23    24   ar
    17    24    25    1
    18    24    26   ar
    19    26    27   ar
    20    27    28   ar
    21    27    29    1
    22    29    30    1
    23    29    31   am
    24    31    32    2
    25    31    33    1
    26    33    34    1
    27     4     5    1
    28     5     6    1
    29    15    16   ar
    30    16    17   ar
    31    17    18   ar
    32    18    19   ar
    33    19    20   ar
    34    20    11   ar
    35    19    14   ar
    36     6     1    1
    37    28    22   ar
    38    34    26    1
@<TRIPOS>MOLECULE
*****
 34 38 0 0 0
SMALL
GASTEIGER

@<TRIPOS>ATOM
      1 N         -10.9134  -19.1481   21.9864 N.3     1  UNL1       -0.2672
      2 C         -10.5523  -19.7981   23.2892 C.3     1  UNL1        0.0898
      3 C          -9.1750  -20.3562   23.4926 C.3     1  UNL1        0.0899
      4 N          -8.1587  -20.2644   22.3931 N.3     1  UNL1       -0.2665
      5 C          -8.5197  -19.6144   21.0904 C.3     1  UNL1        0.0899
      6 C          -9.8971  -19.0563   20.8870 C.3     1  UNL1        0.0898
      7 C         -12.2907  -18.5900   21.7830 C.3     1  UNL1        0.1201
      8 C         -12.7069  -17.3401   22.5004 C.3     1  UNL1        0.2226
      9 O         -11.7302  -16.6215   23.3833 O.3     1  UNL1       -0.4739
     10 C          -5.5756  -15.4402   26.2076 C.3     1  UNL1        0.0521
     11 C          -6.8008  -15.5906   25.3553 C.ar    1  UNL1        0.0593
     12 C          -8.0546  -16.1703   25.9400 C.ar    1  UNL1        0.0148
     13 C          -9.2798  -16.3207   25.0878 C.ar    1  UNL1        0.0057
     14 C          -9.2512  -15.8914   23.6509 C.ar    1  UNL1        0.0516
     15 C         -10.4764  -16.0418   22.7986 C.ar    1  UNL1        0.1400
     16 C         -10.4478  -15.6125   21.3617 C.ar    1  UNL1        0.0370
     17 C          -9.1939  -15.0328   20.7769 C.ar    1  UNL1        0.0047
     18 C          -7.9687  -14.8824   21.6291 C.ar    1  UNL1        0.0193
     19 C          -7.9974  -15.3117   23.0662 C.ar    1  UNL1        0.0838
     20 N          -6.7722  -15.1613   23.9184 N.ar    1  UNL1       -0.2496
     21 C          -6.7813  -20.8225   22.5965 C.3     1  UNL1        0.0993
     22 C          -5.6281  -20.2809   21.8047 C.ar    1  UNL1       -0.0025
     23 C          -5.1957  -20.9682   20.5435 C.ar    1  UNL1        0.0299
     24 C          -4.0426  -20.4266   19.7518 C.ar    1  UNL1        0.1748
     25 F          -3.6101  -21.1140   18.4905 F       1  UNL1       -0.2009
     26 C          -3.3219  -19.1977   20.2212 C.ar    1  UNL1        0.1800
     27 C          -3.7543  -18.5104   21.4823 C.ar    1  UNL1        0.0902
     28 C          -4.9074  -19.0520   22.2741 C.ar    1  UNL1        0.0152
     29 N          -3.0336  -17.2814   21.9517 N.am    1  UNL1       -0.2511
     30 C          -3.4661  -16.5941   23.2128 C.3     1  UNL1        0.1202
     31 C          -1.8805  -16.7398   21.1599 C.2     1  UNL1        0.2740
     32 O          -1.1598  -15.5109   21.6293 O.2     1  UNL1       -0.2705
     33 C          -1.4480  -17.4272   19.8987 C.3     1  UNL1        0.2901
     34 O          -2.1687  -18.6561   19.4293 O.3     1  UNL1       -0.4621
@<TRIPOS>BOND
     1    10    11    1
     2    11    12   ar
     3    12    13   ar
     4    13    14   ar
     5    14    15   ar
     6    15     9    1
     7     9     8    1
     8     8     7    1
     9     7     1    1
    10     1     2    1
    11     2     3    1
    12     3     4    1
    13     4    21    1
    14    21    22    1
    15    22    23   ar
    16    23    24   ar
    17    24    25    1
    18    24    26   ar
    19    26    27   ar
    20    27    28   ar
    21    27    29    1
    22    29    30    1
    23    29    31   am
    24    31    32    2
    25    31    33    1
    26    33    34    1
    27     4     5    1
    28     5     6    1
    29    15    16   ar
    30    16    17   ar
    31    17    18   ar
    32    18    19   ar
    33    19    20   ar
    34    20    11   ar
    35    19    14   ar
    36     6     1    1
    37    28    22   ar
    38    34    26    1
@<TRIPOS>MOLECULE
*****
 34 38 0 0 0
SMALL
GASTEIGER

@<TRIPOS>ATOM
      1 N           4.4299   -1.0555   22.2310 N.3     1  UNL1       -0.2672
      2 C           5.8765   -0.8389   21.8984 C.3     1  UNL1        0.0898
      3 C           6.8777   -1.9238   22.1640 C.3     1  UNL1        0.0899
      4 N           6.4323   -3.2253   22.7621 N.3     1  UNL1       -0.2665
      5 C           4.9858   -3.4419   23.0947 C.3     1  UNL1        0.0899
      6 C           3.9846   -2.3569   22.8292 C.3     1  UNL1        0.0898
      7 C           3.4287    0.0295   21.9654 C.3     1  UNL1        0.1201
      8 C           2.1392   -0.2937   21.2706 C.3     1  UNL1        0.2226
      9 O           2.1427   -0.6628   19.8167 O.3     1  UNL1       -0.4739
     10 C           7.6109    1.4785   16.2440 C.3     1  UNL1        0.0521
     11 C           6.5328    0.7526   16.9928 C.ar    1  UNL1        0.0593
     12 C           5.3772    1.5149   17.5703 C.ar    1  UNL1        0.0148
     13 C           4.2990    0.7890   18.3191 C.ar    1  UNL1        0.0057
     14 C           4.3765   -0.6992   18.4904 C.ar    1  UNL1        0.0516
     15 C           3.2983   -1.4250   19.2392 C.ar    1  UNL1        0.1400
     16 C           3.3757   -2.9132   19.4105 C.ar    1  UNL1        0.0370
     17 C           4.5314   -3.6755   18.8330 C.ar    1  UNL1        0.0047
     18 C           5.6095   -2.9497   18.0842 C.ar    1  UNL1        0.0193
     19 C           5.5320   -1.4614   17.9129 C.ar    1  UNL1        0.0838
     20 N           6.6102   -0.7356   17.1641 N.ar    1  UNL1       -0.2496
     21 C           7.4336   -4.3102   23.0277 C.3     1  UNL1        0.0993
     22 C           7.5120   -4.9423   24.3858 C.ar    1  UNL1       -0.0025
     23 C           7.9788   -6.3608   24.5270 C.ar    1  UNL1        0.0299
     24 C           8.0572   -6.9928   25.8851 C.ar    1  UNL1        0.1748
     25 F           8.5241   -8.4114   26.0263 F       1  UNL1       -0.2009
     26 C           7.6688   -6.2064   27.1019 C.ar    1  UNL1        0.1800
     27 C           7.2020   -4.7880   26.9607 C.ar    1  UNL1        0.0902
     28 C           7.1236   -4.1559   25.6026 C.ar    1  UNL1        0.0152
     29 N           6.8136   -4.0016   28.1775 N.am    1  UNL1       -0.2511
     30 C           6.3467   -2.5831   28.0363 C.3     1  UNL1        0.1202
     31 C           6.8920   -4.6336   29.5356 C.2     1  UNL1        0.2740
     32 O           6.5036   -3.8472   30.7524 O.2     1  UNL1       -0.2705
     33 C           7.3588   -6.0521   29.6768 C.3     1  UNL1        0.2901
     34 O           7.7473   -6.8386   28.4600 O.3     1  UNL1       -0.4621
@<TRIPOS>BOND
     1    10    11    1
     2    11    12   ar
     3    12    13   ar
     4    13    14   ar
     5    14    15   ar
     6    15     9    1
     7     9     8    1
     8     8     7    1
     9     7     1    1
    10     1     2    1
    11     2     3    1
    12     3     4    1
    13     4    21    1
    14    21    22    1
    15    22    23   ar
    16    23    24   ar
    17    24    25    1
    18    24    26   ar
    19    26    27   ar
    20    27    28   ar
    21    27    29    1
    22    29    30    1
    23    29    31   am
    24    31    32    2
    25    31    33    1
    26    33    34    1
    27     4     5    1
    28     5     6    1
    29    15    16   ar
    30    16    17   ar
    31    17    18   ar
    32    18    19   ar
    33    19    20   ar
    34    20    11   ar
    35    19    14   ar
    36     6     1    1
    37    28    22   ar
    38    34    26    1
@<TRIPOS>MOLECULE
*****
 34 38 0 0 0
SMALL
GASTEIGER

@<TRIPOS>ATOM
      1 N         -10.9526   -3.1960   17.5954 N.3     1  UNL1       -0.2672
      2 C         -11.0982   -2.0428   18.5437 C.3     1  UNL1        0.0898
      3 C         -12.2221   -1.0651   18.3685 C.3     1  UNL1        0.0899
      4 N         -13.2005   -1.2404   17.2451 N.3     1  UNL1       -0.2665
      5 C         -13.0550   -2.3935   16.2969 C.3     1  UNL1        0.0899
      6 C         -11.9310   -3.3713   16.4720 C.3     1  UNL1        0.0898
      7 C          -9.8287   -4.1738   17.7705 C.3     1  UNL1        0.1201
      8 C          -9.7165   -4.9684   19.0379 C.3     1  UNL1        0.2226
      9 O         -10.3075   -6.3449   19.1148 O.3     1  UNL1       -0.4739
     10 C         -17.0576   -5.0888   19.4437 C.3     1  UNL1        0.0521
     11 C         -15.6494   -5.5001   19.1309 C.ar    1  UNL1        0.0593
     12 C         -14.5321   -5.1110   20.0530 C.ar    1  UNL1        0.0148
     13 C         -13.1239   -5.5223   19.7402 C.ar    1  UNL1        0.0057
     14 C         -12.8330   -6.3227   18.5055 C.ar    1  UNL1        0.0516
     15 C         -11.4248   -6.7340   18.1927 C.ar    1  UNL1        0.1400
     16 C         -11.1339   -7.5343   16.9579 C.ar    1  UNL1        0.0370
     17 C         -12.2512   -7.9234   16.0358 C.ar    1  UNL1        0.0047
     18 C         -13.6594   -7.5122   16.3485 C.ar    1  UNL1        0.0193
     19 C         -13.9503   -6.7118   17.5834 C.ar    1  UNL1        0.0838
     20 N         -15.3585   -6.3005   17.8961 N.ar    1  UNL1       -0.2496
     21 C         -14.3245   -0.2627   17.0699 C.3     1  UNL1        0.0993
     22 C         -15.2853   -0.0150   18.1950 C.ar    1  UNL1       -0.0025
     23 C         -16.1628   -1.1262   18.6901 C.ar    1  UNL1        0.0299
     24 C         -17.1235   -0.8785   19.8151 C.ar    1  UNL1        0.1748
     25 F         -18.0011   -1.9897   20.3104 F       1  UNL1       -0.2009
     26 C         -17.2068    0.4803   20.4449 C.ar    1  UNL1        0.1800
     27 C         -16.3293    1.5915   19.9497 C.ar    1  UNL1        0.0902
     28 C         -15.3686    1.3438   18.8247 C.ar    1  UNL1        0.0152
     29 N         -16.4126    2.9503   20.5794 N.am    1  UNL1       -0.2511
     30 C         -15.5351    4.0615   20.0842 C.3     1  UNL1        0.1202
     31 C         -17.3733    3.1980   21.7044 C.2     1  UNL1        0.2740
     32 O         -17.4565    4.5569   22.3342 O.2     1  UNL1       -0.2705
     33 C         -18.2509    2.0868   22.1997 C.3     1  UNL1        0.2901
     34 O         -18.1676    0.7280   21.5699 O.3     1  UNL1       -0.4621
@<TRIPOS>BOND
     1    10    11    1
     2    11    12   ar
     3    12    13   ar
     4    13    14   ar
     5    14    15   ar
     6    15     9    1
     7     9     8    1
     8     8     7    1
     9     7     1    1
    10     1     2    1
    11     2     3    1
    12     3     4    1
    13     4    21    1
    14    21    22    1
    15    22    23   ar
    16    23    24   ar
    17    24    25    1
    18    24    26   ar
    19    26    27   ar
    20    27    28   ar
    21    27    29    1
    22    29    30    1
    23    29    31   am
    24    31    32    2
    25    31    33    1
    26    33    34    1
    27     4     5    1
    28     5     6    1
    29    15    16   ar
    30    16    17   ar
    31    17    18   ar
    32    18    19   ar
    33    19    20   ar
    34    20    11   ar
    35    19    14   ar
    36     6     1    1
    37    28    22   ar
    38    34    26    1
@<TRIPOS>MOLECULE
*****
 34 38 0 0 0
SMALL
GASTEIGER

@<TRIPOS>ATOM
      1 N           5.6355   -2.9652   21.4029 N.3     1  UNL1       -0.2672
      2 C           4.7443   -3.3637   22.5419 C.3     1  UNL1        0.0898
      3 C           4.5275   -2.4222   23.6894 C.3     1  UNL1        0.0899
      4 N           5.2019   -1.0823   23.6979 N.3     1  UNL1       -0.2665
      5 C           6.0931   -0.6840   22.5590 C.3     1  UNL1        0.0899
      6 C           6.3098   -1.6254   21.4115 C.3     1  UNL1        0.0898
      7 C           5.8522   -3.9067   20.2555 C.3     1  UNL1        0.1201
      8 C           4.8314   -4.0021   19.1605 C.3     1  UNL1        0.2226
      9 O           3.6323   -3.1009   19.1724 O.3     1  UNL1       -0.4739
     10 C          -0.2961    2.3860   20.4806 C.3     1  UNL1        0.0521
     11 C           0.7188    1.3714   20.0440 C.ar    1  UNL1        0.0593
     12 C           0.5878   -0.0571   20.4823 C.ar    1  UNL1        0.0148
     13 C           1.6026   -1.0717   20.0457 C.ar    1  UNL1        0.0057
     14 C           2.7485   -0.6578   19.1707 C.ar    1  UNL1        0.0516
     15 C           3.7634   -1.6724   18.7341 C.ar    1  UNL1        0.1400
     16 C           4.9093   -1.2585   17.8592 C.ar    1  UNL1        0.0370
     17 C           5.0404    0.1701   17.4209 C.ar    1  UNL1        0.0047
     18 C           4.0255    1.1847   17.8575 C.ar    1  UNL1        0.0193
     19 C           2.8796    0.7707   18.7325 C.ar    1  UNL1        0.0838
     20 N           1.8647    1.7853   19.1691 N.ar    1  UNL1       -0.2496
     21 C           4.9852   -0.1409   24.8454 C.3     1  UNL1        0.0993
     22 C           3.5915    0.2283   25.2596 C.ar    1  UNL1       -0.0025
     23 C           2.5736    0.5977   24.2216 C.ar    1  UNL1        0.0299
     24 C           1.1801    0.9669   24.6359 C.ar    1  UNL1        0.1748
     25 F           0.1621    1.3363   23.5979 F       1  UNL1       -0.2009
     26 C           0.8044    0.9667   26.0881 C.ar    1  UNL1        0.1800
     27 C           1.8223    0.5973   27.1260 C.ar    1  UNL1        0.0902
     28 C           3.2159    0.2281   26.7118 C.ar    1  UNL1        0.0152
     29 N           1.4467    0.5971   28.5782 N.am    1  UNL1       -0.2511
     30 C           2.4646    0.2277   29.6162 C.3     1  UNL1        0.1202
     31 C           0.0531    0.9663   28.9925 C.2     1  UNL1        0.2740
     32 O          -0.3226    0.9661   30.4447 O.2     1  UNL1       -0.2705
     33 C          -0.9649    1.3357   27.9545 C.3     1  UNL1        0.2901
     34 O          -0.5892    1.3359   26.5023 O.3     1  UNL1       -0.4621
@<TRIPOS>BOND
     1    10    11    1
     2    11    12   ar
     3    12    13   ar
     4    13    14   ar
     5    14    15   ar
     6    15     9    1
     7     9     8    1
     8     8     7    1
     9     7     1    1
    10     1     2    1
    11     2     3    1
    12     3     4    1
    13     4    21    1
    14    21    22    1
    15    22    23   ar
    16    23    24   ar
    17    24    25    1
    18    24    26   ar
    19    26    27   ar
    20    27    28   ar
    21    27    29    1
    22    29    30    1
    23    29    31   am
    24    31    32    2
    25    31    33    1
    26    33    34    1
    27     4     5    1
    28     5     6    1
    29    15    16   ar
    30    16    17   ar
    31    17    18   ar
    32    18    19   ar
    33    19    20   ar
    34    20    11   ar
    35    19    14   ar
    36     6     1    1
    37    28    22   ar
    38    34    26    1
@<TRIPOS>MOLECULE
*****
 34 38 0 0 0
SMALL
GASTEIGER

@<TRIPOS>ATOM
      1 N           2.8145    0.6241   18.1603 N.3     1  UNL1       -0.2672
      2 C           1.3160    0.6126   18.2287 C.3     1  UNL1        0.0898
      3 C           0.5855    1.7583   18.8642 C.3     1  UNL1        0.0899
      4 N           1.3535    2.9154   19.4312 N.3     1  UNL1       -0.2665
      5 C           2.8518    2.9268   19.3628 C.3     1  UNL1        0.0899
      6 C           3.5823    1.7811   18.7273 C.3     1  UNL1        0.0898
      7 C           3.5450   -0.5216   17.5248 C.3     1  UNL1        0.1201
      8 C           4.1129   -1.6156   18.3796 C.3     1  UNL1        0.2226
      9 O           3.2548   -2.2805   19.4148 O.3     1  UNL1       -0.4739
     10 C           1.9551    1.4490   25.0408 C.3     1  UNL1        0.0521
     11 C           2.4043    0.4814   23.9863 C.ar    1  UNL1        0.0593
     12 C           1.9073    0.6225   22.5782 C.ar    1  UNL1        0.0148
     13 C           2.3564   -0.3452   21.5237 C.ar    1  UNL1        0.0057
     14 C           3.3027   -1.4540   21.8774 C.ar    1  UNL1        0.0516
     15 C           3.7518   -2.4216   20.8230 C.ar    1  UNL1        0.1400
     16 C           4.6981   -3.5304   21.1767 C.ar    1  UNL1        0.0370
     17 C           5.1952   -3.6716   22.5849 C.ar    1  UNL1        0.0047
     18 C           4.7460   -2.7040   23.6393 C.ar    1  UNL1        0.0193
     19 C           3.7997   -1.5951   23.2856 C.ar    1  UNL1        0.0838
     20 N           3.3505   -0.6274   24.3400 N.ar    1  UNL1       -0.2496
     21 C           0.6230    4.0611   20.0667 C.3     1  UNL1        0.0993
     22 C          -0.8307    3.9252   20.4108 C.ar    1  UNL1       -0.0025
     23 C          -1.8591    3.8846   19.3196 C.ar    1  UNL1        0.0299
     24 C          -3.3127    3.7488   19.6638 C.ar    1  UNL1        0.1748
     25 F          -4.3413    3.7082   18.5726 F       1  UNL1       -0.2009
     26 C          -3.7380    3.6536   21.0991 C.ar    1  UNL1        0.1800
     27 C          -2.7096    3.6942   22.1903 C.ar    1  UNL1        0.0902
     28 C          -1.2559    3.8300   21.8461 C.ar    1  UNL1        0.0152
     29 N          -3.1348    3.5990   23.6256 N.am    1  UNL1       -0.2511
     30 C          -2.1064    3.6396   24.7168 C.3     1  UNL1        0.1202
     31 C          -4.5884    3.4632   23.9697 C.2     1  UNL1        0.2740
     32 O          -5.0136    3.3680   25.4051 O.2     1  UNL1       -0.2705
     33 C          -5.6169    3.4225   22.8786 C.3     1  UNL1        0.2901
     34 O          -5.1917    3.5178   21.4432 O.3     1  UNL1       -0.4621
@<TRIPOS>BOND
     1    10    11    1
     2    11    12   ar
     3    12    13   ar
     4    13    14   ar
     5    14    15   ar
     6    15     9    1
     7     9     8    1
     8     8     7    1
     9     7     1    1
    10     1     2    1
    11     2     3    1
    12     3     4    1
    13     4    21    1
    14    21    22    1
    15    22    23   ar
    16    23    24   ar
    17    24    25    1
    18    24    26   ar
    19    26    27   ar
    20    27    28   ar
    21    27    29    1
    22    29    30    1
    23    29    31   am
    24    31    32    2
    25    31    33    1
    26    33    34    1
    27     4     5    1
    28     5     6    1
    29    15    16   ar
    30    16    17   ar
    31    17    18   ar
    32    18    19   ar
    33    19    20   ar
    34    20    11   ar
    35    19    14   ar
    36     6     1    1
    37    28    22   ar
    38    34    26    1
@<TRIPOS>MOLECULE
*****
 34 38 0 0 0
SMALL
GASTEIGER

@<TRIPOS>ATOM
      1 N         -15.6043   -4.8423   18.4043 N.3     1  UNL1       -0.2672
      2 C         -15.6402   -3.9656   17.1877 C.3     1  UNL1        0.0898
      3 C         -16.3575   -2.6490   17.2329 C.3     1  UNL1        0.0899
      4 N         -17.0389   -2.2091   18.4948 N.3     1  UNL1       -0.2665
      5 C         -17.0030   -3.0858   19.7113 C.3     1  UNL1        0.0899
      6 C         -16.2857   -4.4024   19.6661 C.3     1  UNL1        0.0898
      7 C         -14.8869   -6.1589   18.3591 C.3     1  UNL1        0.1201
      8 C         -13.8525   -6.4854   19.3951 C.3     1  UNL1        0.2226
      9 O         -12.9239   -5.4166   19.8907 O.3     1  UNL1       -0.4739
     10 C         -11.6889    0.7713   17.1641 C.3     1  UNL1        0.0521
     11 C         -11.7174   -0.6549   17.6278 C.ar    1  UNL1        0.0593
     12 C         -12.8384   -1.1378   18.4996 C.ar    1  UNL1        0.0148
     13 C         -12.8669   -2.5641   18.9633 C.ar    1  UNL1        0.0057
     14 C         -11.7744   -3.5074   18.5551 C.ar    1  UNL1        0.0516
     15 C         -11.8030   -4.9337   19.0188 C.ar    1  UNL1        0.1400
     16 C         -10.7105   -5.8770   18.6107 C.ar    1  UNL1        0.0370
     17 C          -9.5895   -5.3941   17.7388 C.ar    1  UNL1        0.0047
     18 C          -9.5609   -3.9678   17.2751 C.ar    1  UNL1        0.0193
     19 C         -10.6535   -3.0245   17.6833 C.ar    1  UNL1        0.0838
     20 N         -10.6249   -1.5982   17.2196 N.ar    1  UNL1       -0.2496
     21 C         -17.7562   -0.8925   18.5401 C.3     1  UNL1        0.0993
     22 C         -17.0289    0.3431   18.9810 C.ar    1  UNL1       -0.0025
     23 C         -15.9763    0.9483   18.1003 C.ar    1  UNL1        0.0299
     24 C         -15.2490    2.1838   18.5412 C.ar    1  UNL1        0.1748
     25 F         -14.1964    2.7891   17.6605 F       1  UNL1       -0.2009
     26 C         -15.5744    2.8141   19.8629 C.ar    1  UNL1        0.1800
     27 C         -16.6270    2.2089   20.7436 C.ar    1  UNL1        0.0902
     28 C         -17.3542    0.9734   20.3027 C.ar    1  UNL1        0.0152
     29 N         -16.9523    2.8393   22.0653 N.am    1  UNL1       -0.2511
     30 C         -18.0049    2.2341   22.9460 C.3     1  UNL1        0.1202
     31 C         -16.2250    4.0748   22.5062 C.2     1  UNL1        0.2740
     32 O         -16.5504    4.7052   23.8279 O.2     1  UNL1       -0.2705
     33 C         -15.1724    4.6801   21.6255 C.3     1  UNL1        0.2901
     34 O         -14.8470    4.0497   20.3038 O.3     1  UNL1       -0.4621
@<TRIPOS>BOND
     1    10    11    1
     2    11    12   ar
     3    12    13   ar
     4    13    14   ar
     5    14    15   ar
     6    15     9    1
     7     9     8    1
     8     8     7    1
     9     7     1    1
    10     1     2    1
    11     2     3    1
    12     3     4    1
    13     4    21    1
    14    21    22    1
    15    22    23   ar
    16    23    24   ar
    17    24    25    1
    18    24    26   ar
    19    26    27   ar
    20    27    28   ar
    21    27    29    1
    22    29    30    1
    23    29    31   am
    24    31    32    2
    25    31    33    1
    26    33    34    1
    27     4     5    1
    28     5     6    1
    29    15    16   ar
    30    16    17   ar
    31    17    18   ar
    32    18    19   ar
    33    19    20   ar
    34    20    11   ar
    35    19    14   ar
    36     6     1    1
    37    28    22   ar
    38    34    26    1
@<TRIPOS>MOLECULE
*****
 34 38 0 0 0
SMALL
GASTEIGER

@<TRIPOS>ATOM
      1 N           5.6607   -3.9851   21.0730 N.3     1  UNL1       -0.2672
      2 C           4.7839   -3.7401   22.2652 C.3     1  UNL1        0.0898
      3 C           5.3900   -3.2951   23.5632 C.3     1  UNL1        0.0899
      4 N           6.8729   -3.0951   23.6689 N.3     1  UNL1       -0.2665
      5 C           7.7496   -3.3401   22.4767 C.3     1  UNL1        0.0899
      6 C           7.1435   -3.7851   21.1788 C.3     1  UNL1        0.0898
      7 C           5.0546   -4.4300   19.7751 C.3     1  UNL1        0.1201
      8 C           4.8223   -3.4359   18.6760 C.3     1  UNL1        0.2226
      9 O           3.5894   -2.5817   18.6856 O.3     1  UNL1       -0.4739
     10 C          -0.5165    2.4399   20.9605 C.3     1  UNL1        0.0521
     11 C           0.5399    1.5573   20.3648 C.ar    1  UNL1        0.0593
     12 C           0.4200    0.0661   20.4729 C.ar    1  UNL1        0.0148
     13 C           1.4765   -0.8165   19.8771 C.ar    1  UNL1        0.0057
     14 C           2.6528   -0.2079   19.1732 C.ar    1  UNL1        0.0516
     15 C           3.7093   -1.0904   18.5774 C.ar    1  UNL1        0.1400
     16 C           4.8857   -0.4818   17.8734 C.ar    1  UNL1        0.0370
     17 C           5.0056    1.0096   17.7652 C.ar    1  UNL1        0.0047
     18 C           3.9492    1.8921   18.3610 C.ar    1  UNL1        0.0193
     19 C           2.7728    1.2834   19.0650 C.ar    1  UNL1        0.0838
     20 N           1.7163    2.1660   19.6608 N.ar    1  UNL1       -0.2496
     21 C           7.4790   -2.6502   24.9668 C.3     1  UNL1        0.0993
     22 C           7.4504   -3.5602   26.1589 C.ar    1  UNL1       -0.0025
     23 C           7.7607   -5.0188   25.9966 C.ar    1  UNL1        0.0299
     24 C           7.7321   -5.9288   27.1887 C.ar    1  UNL1        0.1748
     25 F           8.0423   -7.3874   27.0265 F       1  UNL1       -0.2009
     26 C           7.3932   -5.3802   28.5431 C.ar    1  UNL1        0.1800
     27 C           7.0829   -3.9217   28.7053 C.ar    1  UNL1        0.0902
     28 C           7.1116   -3.0117   27.5133 C.ar    1  UNL1        0.0152
     29 N           6.7441   -3.3731   30.0597 N.am    1  UNL1       -0.2511
     30 C           6.4338   -1.9146   30.2220 C.3     1  UNL1        0.1202
     31 C           6.7155   -4.2831   31.2518 C.2     1  UNL1        0.2740
     32 O           6.3766   -3.7346   32.6061 O.2     1  UNL1       -0.2705
     33 C           7.0257   -5.7417   31.0895 C.3     1  UNL1        0.2901
     34 O           7.3646   -6.2903   29.7352 O.3     1  UNL1       -0.4621
@<TRIPOS>BOND
     1    10    11    1
     2    11    12   ar
     3    12    13   ar
     4    13    14   ar
     5    14    15   ar
     6    15     9    1
     7     9     8    1
     8     8     7    1
     9     7     1    1
    10     1     2    1
    11     2     3    1
    12     3     4    1
    13     4    21    1
    14    21    22    1
    15    22    23   ar
    16    23    24   ar
    17    24    25    1
    18    24    26   ar
    19    26    27   ar
    20    27    28   ar
    21    27    29    1
    22    29    30    1
    23    29    31   am
    24    31    32    2
    25    31    33    1
    26    33    34    1
    27     4     5    1
    28     5     6    1
    29    15    16   ar
    30    16    17   ar
    31    17    18   ar
    32    18    19   ar
    33    19    20   ar
    34    20    11   ar
    35    19    14   ar
    36     6     1    1
    37    28    22   ar
    38    34    26    1
@<TRIPOS>MOLECULE
*****
 34 38 0 0 0
SMALL
GASTEIGER

@<TRIPOS>ATOM
      1 N           0.5391    2.0360   20.8977 N.3     1  UNL1       -0.2672
      2 C           0.3289    0.5588   20.7433 C.3     1  UNL1        0.0898
      3 C           1.2501   -0.2429   19.8722 C.3     1  UNL1        0.0899
      4 N           2.3816    0.4327   19.1556 N.3     1  UNL1       -0.2665
      5 C           2.5918    1.9098   19.3100 C.3     1  UNL1        0.0899
      6 C           1.6705    2.7114   20.1811 C.3     1  UNL1        0.0898
      7 C          -0.3821    2.8376   21.7687 C.3     1  UNL1        0.1201
      8 C          -1.5813    3.5121   21.1712 C.3     1  UNL1        0.2226
      9 O          -2.7566    2.6944   20.7241 O.3     1  UNL1       -0.4739
     10 C          -8.2663    4.9754   24.1432 C.3     1  UNL1        0.0521
     11 C          -7.2002    4.5752   23.1669 C.ar    1  UNL1        0.0593
     12 C          -5.9548    3.8951   23.6532 C.ar    1  UNL1        0.0148
     13 C          -4.8888    3.4949   22.6768 C.ar    1  UNL1        0.0057
     14 C          -5.0681    3.7747   21.2141 C.ar    1  UNL1        0.0516
     15 C          -4.0020    3.3744   20.2378 C.ar    1  UNL1        0.1400
     16 C          -4.1813    3.6542   18.7751 C.ar    1  UNL1        0.0370
     17 C          -5.4267    4.3343   18.2887 C.ar    1  UNL1        0.0047
     18 C          -6.4928    4.7345   19.2651 C.ar    1  UNL1        0.0193
     19 C          -6.3134    4.4547   20.7278 C.ar    1  UNL1        0.0838
     20 N          -7.3795    4.8550   21.7042 N.ar    1  UNL1       -0.2496
     21 C           3.3028   -0.3690   18.2846 C.3     1  UNL1        0.0993
     22 C           4.1657   -1.4370   18.8886 C.ar    1  UNL1       -0.0025
     23 C           4.0742   -2.8478   18.3873 C.ar    1  UNL1        0.0299
     24 C           4.9371   -3.9157   18.9913 C.ar    1  UNL1        0.1748
     25 F           4.8457   -5.3266   18.4900 F       1  UNL1       -0.2009
     26 C           5.8915   -3.5729   20.0966 C.ar    1  UNL1        0.1800
     27 C           5.9830   -2.1621   20.5979 C.ar    1  UNL1        0.0902
     28 C           5.1201   -1.0942   19.9939 C.ar    1  UNL1        0.0152
     29 N           6.9373   -1.8193   21.7032 N.am    1  UNL1       -0.2511
     30 C           7.0288   -0.4085   22.2045 C.3     1  UNL1        0.1202
     31 C           7.8002   -2.8872   22.3072 C.2     1  UNL1        0.2740
     32 O           8.7545   -2.5444   23.4125 O.2     1  UNL1       -0.2705
     33 C           7.7088   -4.2981   21.8059 C.3     1  UNL1        0.2901
     34 O           6.7544   -4.6409   20.7006 O.3     1  UNL1       -0.4621
@<TRIPOS>BOND
     1    10    11    1
     2    11    12   ar
     3    12    13   ar
     4    13    14   ar
     5    14    15   ar
     6    15     9    1
     7     9     8    1
     8     8     7    1
     9     7     1    1
    10     1     2    1
    11     2     3    1
    12     3     4    1
    13     4    21    1
    14    21    22    1
    15    22    23   ar
    16    23    24   ar
    17    24    25    1
    18    24    26   ar
    19    26    27   ar
    20    27    28   ar
    21    27    29    1
    22    29    30    1
    23    29    31   am
    24    31    32    2
    25    31    33    1
    26    33    34    1
    27     4     5    1
    28     5     6    1
    29    15    16   ar
    30    16    17   ar
    31    17    18   ar
    32    18    19   ar
    33    19    20   ar
    34    20    11   ar
    35    19    14   ar
    36     6     1    1
    37    28    22   ar
    38    34    26    1
