@<TRIPOS>MOLECULE
*****
 28 32 0 0 0
SMALL
GASTEIGER

@<TRIPOS>ATOM
      1 C          -8.4602  -17.3168   21.9289 C.3     1  UNL1        0.1286
      2 N          -8.4340  -15.8886   21.4712 N.3     1  UNL1       -0.3150
      3 H          -9.2806  -15.4149   21.7864 H       1  UNL1        0.1192
      4 H          -8.3868  -15.8587   20.4528 H       1  UNL1        0.1192
      5 C          -9.6250  -17.8284   22.7236 C.3     1  UNL1        0.0259
      6 C         -11.0195  -17.4061   22.3673 C.3     1  UNL1        0.0021
      7 C         -12.1842  -17.9177   23.1621 C.3     1  UNL1        0.0047
      8 C         -11.9544  -18.8517   24.3131 C.3     1  UNL1        0.0271
      9 C         -10.5600  -19.2740   24.6694 C.3     1  UNL1        0.0906
     10 O         -10.3302  -20.2080   25.8204 O.3     1  UNL1       -0.3867
     11 C         -10.3115  -17.2551   22.0865 C.3     1  UNL1        0.0538
     12 C         -11.2493  -16.4721   21.2163 C.3     1  UNL1        0.0906
     13 O         -11.4791  -15.5381   20.0653 O.3     1  UNL1       -0.3867
     14 C         -12.4140  -16.9837   22.0111 C.3     1  UNL1        0.0271
     15 C          -9.8548  -16.8944   21.5726 C.3     1  UNL1        0.0288
     16 C          -9.3953  -18.7624   23.8746 C.3     1  UNL1        0.0288
     17 H         -11.1815  -20.4408   26.2229 H       1  UNL1        0.2102
     18 H         -12.4294  -15.3681   19.9715 H       1  UNL1        0.2102
     19 C          -5.6748  -17.0593   23.3394 C.3     1  UNL1        0.1672
     20 C          -4.2493  -17.2669   23.7579 C.3     1  UNL1        0.0372
     21 C          -3.6963  -18.4147   22.9661 C.3     1  UNL1        0.0226
     22 C          -3.4296  -19.5694   22.0466 C.3     1  UNL1        0.0216
     23 C          -4.7799  -18.9164   22.0583 C.3     1  UNL1        0.0764
     24 N          -6.0026  -18.0788   22.2890 N.am    1  UNL1       -0.2691
     25 C          -7.3218  -18.2334   21.5918 C.2     1  UNL1        0.2403
     26 O          -7.5023  -19.3047   20.5575 O.2     1  UNL1       -0.2734
     27 N          -7.5420  -14.9719   24.4145 N.1     1  UNL1       -0.1942
     28 C          -6.6084  -16.0156   23.8770 C.1     1  UNL1        0.0925
@<TRIPOS>BOND
     1    27    28    3
     2    19    28    1
     3    19    20    1
     4    21    20    1
     5    21    22    1
     6    23    22    1
     7    23    24    1
     8    24    25   am
     9    25    26    2
    10    25     1    1
    11     1     2    1
    12     1     5    1
    13     5     6    1
    14     6     7    1
    15     7     8    1
    16     8     9    1
    17     9    10    1
    18     9    11    1
    19    11    12    1
    20    12    13    1
    21    12    14    1
    22    12    15    1
    23     9    16    1
    24    24    19    1
    25    15     5    1
    26    23    21    1
    27    16     5    1
    28    14     7    1
    29     2     3    1
    30     2     4    1
    31    10    17    1
    32    13    18    1
@<TRIPOS>MOLECULE
*****
 28 32 0 0 0
SMALL
GASTEIGER

@<TRIPOS>ATOM
      1 C          -8.7675  -16.4679   22.4549 C.3     1  UNL1        0.1286
      2 N          -9.0337  -15.6077   21.2553 N.3     1  UNL1       -0.3150
      3 H          -9.9882  -15.7627   20.9308 H       1  UNL1        0.1192
      4 H          -8.3785  -15.8489   20.5117 H       1  UNL1        0.1192
      5 C          -9.8423  -17.3708   22.9837 C.3     1  UNL1        0.0259
      6 C         -11.2082  -17.3539   22.3640 C.3     1  UNL1        0.0021
      7 C         -12.2829  -18.2568   22.8929 C.3     1  UNL1        0.0047
      8 C         -11.9918  -19.1766   24.0414 C.3     1  UNL1        0.0271
      9 C         -10.6259  -19.1935   24.6612 C.3     1  UNL1        0.0906
     10 O         -10.3348  -20.1133   25.8097 O.3     1  UNL1       -0.3867
     11 C         -10.5426  -16.9749   22.2364 C.3     1  UNL1        0.0538
     12 C         -11.4993  -16.4341   21.2155 C.3     1  UNL1        0.0906
     13 O         -11.7904  -15.5143   20.0669 O.3     1  UNL1       -0.3867
     14 C         -12.5740  -17.3370   21.7443 C.3     1  UNL1        0.0271
     15 C         -10.1335  -16.4510   21.8352 C.3     1  UNL1        0.0288
     16 C          -9.5512  -18.2906   24.1323 C.3     1  UNL1        0.0288
     17 H         -11.1311  -20.6235   26.0253 H       1  UNL1        0.2102
     18 H         -12.7123  -15.6279   19.7873 H       1  UNL1        0.2102
     19 C          -6.5001  -18.5003   21.7183 C.3     1  UNL1        0.1672
     20 C          -5.2021  -19.2504   21.6640 C.3     1  UNL1        0.0372
     21 C          -4.2660  -18.6293   22.6580 C.3     1  UNL1        0.0226
     22 C          -3.5708  -17.8158   23.7093 C.3     1  UNL1        0.0216
     23 C          -4.9853  -17.4954   23.3265 C.3     1  UNL1        0.0764
     24 N          -6.3660  -17.4157   22.7458 N.am    1  UNL1       -0.2691
     25 C          -7.4266  -16.4253   23.1257 C.2     1  UNL1        0.2403
     26 O          -7.1461  -15.3922   24.1765 O.2     1  UNL1       -0.2734
     27 N          -8.9361  -19.0695   20.0625 N.1     1  UNL1       -0.1942
     28 C          -7.7181  -18.7849   20.8904 C.1     1  UNL1        0.0925
@<TRIPOS>BOND
     1    27    28    3
     2    19    28    1
     3    19    20    1
     4    21    20    1
     5    21    22    1
     6    23    22    1
     7    23    24    1
     8    24    25   am
     9    25    26    2
    10    25     1    1
    11     1     2    1
    12     1     5    1
    13     5     6    1
    14     6     7    1
    15     7     8    1
    16     8     9    1
    17     9    10    1
    18     9    11    1
    19    11    12    1
    20    12    13    1
    21    12    14    1
    22    12    15    1
    23     9    16    1
    24    24    19    1
    25    15     5    1
    26    23    21    1
    27    16     5    1
    28    14     7    1
    29     2     3    1
    30     2     4    1
    31    10    17    1
    32    13    18    1
@<TRIPOS>MOLECULE
*****
 28 32 0 0 0
SMALL
GASTEIGER

@<TRIPOS>ATOM
      1 C          -9.2778  -16.6117   22.5181 C.3     1  UNL1        0.1286
      2 N         -10.7164  -16.1919   22.5821 N.3     1  UNL1       -0.3150
      3 H         -11.2676  -16.7689   21.9468 H       1  UNL1        0.1192
      4 H         -10.7973  -15.2126   22.3085 H       1  UNL1        0.1192
      5 C          -8.8626  -17.7298   21.6084 C.3     1  UNL1        0.0259
      6 C          -9.8332  -18.2813   20.6065 C.3     1  UNL1        0.0021
      7 C          -9.4179  -19.3993   19.6969 C.3     1  UNL1        0.0047
      8 C          -8.0320  -19.9658   19.7890 C.3     1  UNL1        0.0271
      9 C          -7.0614  -19.4142   20.7908 C.3     1  UNL1        0.0906
     10 O          -5.6756  -19.9807   20.8829 O.3     1  UNL1       -0.3867
     11 C          -9.8586  -17.7235   21.1460 C.3     1  UNL1        0.0538
     12 C         -11.2190  -17.7149   20.5144 C.3     1  UNL1        0.0906
     13 O         -12.6049  -17.1484   20.4223 O.3     1  UNL1       -0.3867
     14 C         -10.8038  -18.8329   19.6047 C.3     1  UNL1        0.0271
     15 C         -10.2484  -17.1633   21.5162 C.3     1  UNL1        0.0288
     16 C          -7.4767  -18.2962   21.7005 C.3     1  UNL1        0.0288
     17 H          -5.5723  -20.6905   20.2299 H       1  UNL1        0.2102
     18 H         -13.0991  -17.6140   19.7295 H       1  UNL1        0.2102
     19 C          -9.0615  -17.1378   25.5988 C.3     1  UNL1        0.1672
     20 C          -8.6403  -17.1038   27.0382 C.3     1  UNL1        0.0372
     21 C          -7.5005  -16.1369   27.1648 C.3     1  UNL1        0.0226
     22 C          -6.4006  -15.1333   26.9827 C.3     1  UNL1        0.0216
     23 C          -7.2172  -15.5734   25.8039 C.3     1  UNL1        0.0764
     24 N          -8.1819  -16.1920   24.8361 N.am    1  UNL1       -0.2691
     25 C          -8.2545  -15.9136   23.3639 C.2     1  UNL1        0.2403
     26 O          -7.3036  -14.9371   22.7375 O.2     1  UNL1       -0.2734
     27 N         -11.2743  -18.8048   24.4481 N.1     1  UNL1       -0.1942
     28 C         -10.1679  -17.9713   25.0235 C.1     1  UNL1        0.0925
@<TRIPOS>BOND
     1    27    28    3
     2    19    28    1
     3    19    20    1
     4    21    20    1
     5    21    22    1
     6    23    22    1
     7    23    24    1
     8    24    25   am
     9    25    26    2
    10    25     1    1
    11     1     2    1
    12     1     5    1
    13     5     6    1
    14     6     7    1
    15     7     8    1
    16     8     9    1
    17     9    10    1
    18     9    11    1
    19    11    12    1
    20    12    13    1
    21    12    14    1
    22    12    15    1
    23     9    16    1
    24    24    19    1
    25    15     5    1
    26    23    21    1
    27    16     5    1
    28    14     7    1
    29     2     3    1
    30     2     4    1
    31    10    17    1
    32    13    18    1
@<TRIPOS>MOLECULE
*****
 28 32 0 0 0
SMALL
GASTEIGER

@<TRIPOS>ATOM
      1 C          -7.9810  -16.5868   23.1802 C.3     1  UNL1        0.1286
      2 N          -8.3240  -16.2364   24.5978 N.3     1  UNL1       -0.3150
      3 H          -7.6650  -16.6915   25.2295 H       1  UNL1        0.1192
      4 H          -9.2704  -16.5542   24.8071 H       1  UNL1        0.1192
      5 C          -6.8142  -17.4841   22.8907 C.3     1  UNL1        0.0259
      6 C          -5.4526  -17.1364   23.4151 C.3     1  UNL1        0.0021
      7 C          -4.2859  -18.0337   23.1256 C.3     1  UNL1        0.0047
      8 C          -4.4809  -19.2785   22.3117 C.3     1  UNL1        0.0271
      9 C          -5.8426  -19.6261   21.7874 C.3     1  UNL1        0.0906
     10 O          -6.0375  -20.8710   20.9735 O.3     1  UNL1       -0.3867
     11 C          -6.1563  -16.8110   23.4563 C.3     1  UNL1        0.0538
     12 C          -5.2576  -15.8916   24.2289 C.3     1  UNL1        0.0906
     13 O          -5.0626  -14.6468   25.0428 O.3     1  UNL1       -0.3867
     14 C          -4.0909  -16.7888   23.9394 C.3     1  UNL1        0.0271
     15 C          -6.6192  -16.2392   23.7045 C.3     1  UNL1        0.0288
     16 C          -7.0092  -18.7289   22.0769 C.3     1  UNL1        0.0288
     17 H          -5.1896  -21.3328   20.8808 H       1  UNL1        0.2102
     18 H          -4.1306  -14.5719   25.3009 H       1  UNL1        0.2102
     19 C         -10.8446  -17.6926   22.5547 C.3     1  UNL1        0.1672
     20 C         -12.1950  -17.9268   21.9448 C.3     1  UNL1        0.0372
     21 C         -12.3567  -16.9746   20.7971 C.3     1  UNL1        0.0226
     22 C         -12.2306  -15.9277   19.7302 C.3     1  UNL1        0.0216
     23 C         -11.1064  -16.1520   20.6976 C.3     1  UNL1        0.0764
     24 N         -10.1719  -16.5957   21.7838 N.am    1  UNL1       -0.2691
     25 C          -8.8046  -16.0401   22.0521 C.2     1  UNL1        0.2403
     26 O          -8.2611  -14.9377   21.1923 O.2     1  UNL1       -0.2734
     27 N          -9.6920  -19.1603   24.9036 N.1     1  UNL1       -0.1942
     28 C         -10.2683  -18.4264   23.7291 C.1     1  UNL1        0.0925
@<TRIPOS>BOND
     1    27    28    3
     2    19    28    1
     3    19    20    1
     4    21    20    1
     5    21    22    1
     6    23    22    1
     7    23    24    1
     8    24    25   am
     9    25    26    2
    10    25     1    1
    11     1     2    1
    12     1     5    1
    13     5     6    1
    14     6     7    1
    15     7     8    1
    16     8     9    1
    17     9    10    1
    18     9    11    1
    19    11    12    1
    20    12    13    1
    21    12    14    1
    22    12    15    1
    23     9    16    1
    24    24    19    1
    25    15     5    1
    26    23    21    1
    27    16     5    1
    28    14     7    1
    29     2     3    1
    30     2     4    1
    31    10    17    1
    32    13    18    1
@<TRIPOS>MOLECULE
*****
 28 32 0 0 0
SMALL
GASTEIGER

@<TRIPOS>ATOM
      1 C          -9.8734  -17.1187   23.0859 C.3     1  UNL1        0.1286
      2 N         -10.8983  -16.0910   22.7072 N.3     1  UNL1       -0.3150
      3 H         -11.1011  -16.1644   21.7102 H       1  UNL1        0.1192
      4 H         -10.5379  -15.1593   22.9132 H       1  UNL1        0.1192
      5 C          -9.3209  -18.0462   22.0445 C.3     1  UNL1        0.0259
      6 C         -10.0888  -18.2974   20.7807 C.3     1  UNL1        0.0021
      7 C          -9.5363  -19.2250   19.7393 C.3     1  UNL1        0.0047
      8 C          -8.2160  -19.9013   19.9618 C.3     1  UNL1        0.0271
      9 C          -7.4482  -19.6501   21.2256 C.3     1  UNL1        0.0906
     10 O          -6.1279  -20.3264   21.4481 O.3     1  UNL1       -0.3867
     11 C         -10.2035  -17.8665   21.4163 C.3     1  UNL1        0.0538
     12 C         -11.4090  -17.6211   20.5582 C.3     1  UNL1        0.0906
     13 O         -12.7293  -16.9448   20.3357 O.3     1  UNL1       -0.3867
     14 C         -10.8566  -18.5487   19.5168 C.3     1  UNL1        0.0271
     15 C         -10.6412  -17.3699   21.8220 C.3     1  UNL1        0.0288
     16 C          -8.0007  -18.7225   22.2670 C.3     1  UNL1        0.0288
     17 H          -5.9192  -20.8871   20.6846 H       1  UNL1        0.2102
     18 H         -13.0897  -17.2140   19.4763 H       1  UNL1        0.2102
     19 C          -7.4604  -15.4182   24.1350 C.3     1  UNL1        0.1672
     20 C          -6.3962  -14.8120   25.0011 C.3     1  UNL1        0.0372
     21 C          -6.5198  -15.4073   26.3724 C.3     1  UNL1        0.0226
     22 C          -6.8817  -16.1622   27.6170 C.3     1  UNL1        0.0216
     23 C          -7.6604  -16.3813   26.3539 C.3     1  UNL1        0.0764
     24 N          -8.2417  -16.3880   24.9711 N.am    1  UNL1       -0.2691
     25 C          -9.4009  -17.2188   24.5060 C.2     1  UNL1        0.2403
     26 O         -10.0875  -18.1496   25.4611 O.2     1  UNL1       -0.2734
     27 N          -7.9417  -14.7995   21.2392 N.1     1  UNL1       -0.1942
     28 C          -7.7011  -15.1088   22.6871 C.1     1  UNL1        0.0925
@<TRIPOS>BOND
     1    27    28    3
     2    19    28    1
     3    19    20    1
     4    21    20    1
     5    21    22    1
     6    23    22    1
     7    23    24    1
     8    24    25   am
     9    25    26    2
    10    25     1    1
    11     1     2    1
    12     1     5    1
    13     5     6    1
    14     6     7    1
    15     7     8    1
    16     8     9    1
    17     9    10    1
    18     9    11    1
    19    11    12    1
    20    12    13    1
    21    12    14    1
    22    12    15    1
    23     9    16    1
    24    24    19    1
    25    15     5    1
    26    23    21    1
    27    16     5    1
    28    14     7    1
    29     2     3    1
    30     2     4    1
    31    10    17    1
    32    13    18    1
@<TRIPOS>MOLECULE
*****
 28 32 0 0 0
SMALL
GASTEIGER

@<TRIPOS>ATOM
      1 C          -9.2538  -16.4151   22.8147 C.3     1  UNL1        0.1286
      2 N          -9.3323  -15.6327   21.5374 N.3     1  UNL1       -0.3150
      3 H          -9.8001  -16.1920   20.8242 H       1  UNL1        0.1192
      4 H          -8.3903  -15.3997   21.2229 H       1  UNL1        0.1192
      5 C          -9.8226  -17.8016   22.8811 C.3     1  UNL1        0.0259
      6 C         -10.6325  -18.3355   21.7370 C.3     1  UNL1        0.0021
      7 C         -11.2012  -19.7219   21.8034 C.3     1  UNL1        0.0047
      8 C         -10.9600  -20.5743   23.0139 C.3     1  UNL1        0.0271
      9 C         -10.1501  -20.0404   24.1579 C.3     1  UNL1        0.0906
     10 O          -9.9089  -20.8928   25.3684 O.3     1  UNL1       -0.3867
     11 C         -10.2668  -17.6669   21.8859 C.3     1  UNL1        0.0538
     12 C         -10.8737  -17.4831   20.5266 C.3     1  UNL1        0.0906
     13 O         -11.1149  -16.6307   19.3161 O.3     1  UNL1       -0.3867
     14 C         -11.4424  -18.8695   20.5930 C.3     1  UNL1        0.0271
     15 C         -10.0638  -16.9492   21.6706 C.3     1  UNL1        0.0288
     16 C          -9.5814  -18.6540   24.0915 C.3     1  UNL1        0.0288
     17 H         -10.3422  -21.7525   25.2500 H       1  UNL1        0.2102
     18 H         -11.6522  -17.1229   18.6759 H       1  UNL1        0.2102
     19 C          -6.1859  -16.7319   23.3642 C.3     1  UNL1        0.1672
     20 C          -4.8173  -16.6504   23.9730 C.3     1  UNL1        0.0372
     21 C          -4.9200  -15.8529   25.2393 C.3     1  UNL1        0.0226
     22 C          -5.3266  -15.0367   26.4304 C.3     1  UNL1        0.0216
     23 C          -6.3520  -15.4415   25.4131 C.3     1  UNL1        0.0764
     24 N          -7.1343  -15.9847   24.2543 N.am    1  UNL1       -0.2691
     25 C          -8.6066  -15.8112   24.0256 C.2     1  UNL1        0.2403
     26 O          -9.4317  -15.0338   25.0079 O.2     1  UNL1       -0.2734
     27 N          -6.9005  -18.1416   20.8143 N.1     1  UNL1       -0.1942
     28 C          -6.5432  -17.4368   22.0893 C.1     1  UNL1        0.0925
@<TRIPOS>BOND
     1    27    28    3
     2    19    28    1
     3    19    20    1
     4    21    20    1
     5    21    22    1
     6    23    22    1
     7    23    24    1
     8    24    25   am
     9    25    26    2
    10    25     1    1
    11     1     2    1
    12     1     5    1
    13     5     6    1
    14     6     7    1
    15     7     8    1
    16     8     9    1
    17     9    10    1
    18     9    11    1
    19    11    12    1
    20    12    13    1
    21    12    14    1
    22    12    15    1
    23     9    16    1
    24    24    19    1
    25    15     5    1
    26    23    21    1
    27    16     5    1
    28    14     7    1
    29     2     3    1
    30     2     4    1
    31    10    17    1
    32    13    18    1
@<TRIPOS>MOLECULE
*****
 28 32 0 0 0
SMALL
GASTEIGER

@<TRIPOS>ATOM
      1 C          -8.6153  -15.9263   23.7354 C.3     1  UNL1        0.1286
      2 N          -9.6349  -15.4132   24.7086 N.3     1  UNL1       -0.3150
      3 H          -9.1844  -15.2210   25.6033 H       1  UNL1        0.1192
      4 H         -10.3639  -16.1147   24.8388 H       1  UNL1        0.1192
      5 C          -7.1847  -16.0803   24.1594 C.3     1  UNL1        0.0259
      6 C          -6.7703  -15.7044   25.5512 C.3     1  UNL1        0.0021
      7 C          -5.3398  -15.8584   25.9751 C.3     1  UNL1        0.0047
      8 C          -4.3236  -16.3883   25.0073 C.3     1  UNL1        0.0271
      9 C          -4.7380  -16.7642   23.6156 C.3     1  UNL1        0.0906
     10 O          -3.7218  -17.2942   22.6478 O.3     1  UNL1       -0.3867
     11 C          -7.4391  -15.6974   25.1567 C.3     1  UNL1        0.0538
     12 C          -7.7865  -15.1745   26.5189 C.3     1  UNL1        0.0906
     13 O          -8.8027  -14.6446   27.4867 O.3     1  UNL1       -0.3867
     14 C          -6.3560  -15.3285   26.9429 C.3     1  UNL1        0.0271
     15 C          -8.2009  -15.5504   25.1272 C.3     1  UNL1        0.0288
     16 C          -6.1685  -16.6102   23.1917 C.3     1  UNL1        0.0288
     17 H          -2.8534  -17.3303   23.0784 H       1  UNL1        0.2102
     18 H          -8.3723  -14.4522   28.3344 H       1  UNL1        0.2102
     19 C         -10.0661  -18.6283   23.0962 C.3     1  UNL1        0.1672
     20 C         -10.7481  -19.7637   22.3918 C.3     1  UNL1        0.0372
     21 C         -10.8226  -19.4258   20.9322 C.3     1  UNL1        0.0226
     22 C         -10.7514  -18.8242   19.5599 C.3     1  UNL1        0.0216
     23 C         -10.1867  -18.0817   20.7345 C.3     1  UNL1        0.0764
     24 N          -9.7192  -17.5889   22.0719 N.am    1  UNL1       -0.2691
     25 C          -9.0263  -16.2854   22.3383 C.2     1  UNL1        0.2403
     26 O          -8.7444  -15.3411   21.2074 O.2     1  UNL1       -0.2734
     27 N          -9.4962  -18.4655   26.0370 N.1     1  UNL1       -0.1942
     28 C          -9.7811  -18.5469   24.5666 C.1     1  UNL1        0.0925
@<TRIPOS>BOND
     1    27    28    3
     2    19    28    1
     3    19    20    1
     4    21    20    1
     5    21    22    1
     6    23    22    1
     7    23    24    1
     8    24    25   am
     9    25    26    2
    10    25     1    1
    11     1     2    1
    12     1     5    1
    13     5     6    1
    14     6     7    1
    15     7     8    1
    16     8     9    1
    17     9    10    1
    18     9    11    1
    19    11    12    1
    20    12    13    1
    21    12    14    1
    22    12    15    1
    23     9    16    1
    24    24    19    1
    25    15     5    1
    26    23    21    1
    27    16     5    1
    28    14     7    1
    29     2     3    1
    30     2     4    1
    31    10    17    1
    32    13    18    1
@<TRIPOS>MOLECULE
*****
 28 32 0 0 0
SMALL
GASTEIGER

@<TRIPOS>ATOM
      1 C          -8.3019  -16.3182   23.8212 C.3     1  UNL1        0.1286
      2 N          -8.2032  -14.8574   24.1472 N.3     1  UNL1       -0.3150
      3 H          -7.2599  -14.5266   23.9442 H       1  UNL1        0.1192
      4 H          -8.4079  -14.7152   25.1363 H       1  UNL1        0.1192
      5 C          -7.1071  -17.0491   23.2841 C.3     1  UNL1        0.0259
      6 C          -5.7275  -16.6537   23.7203 C.3     1  UNL1        0.0021
      7 C          -4.5328  -17.3846   23.1833 C.3     1  UNL1        0.0047
      8 C          -4.7178  -18.5109   22.2100 C.3     1  UNL1        0.0271
      9 C          -6.0974  -18.9063   21.7738 C.3     1  UNL1        0.0906
     10 O          -6.2823  -20.0326   20.8005 O.3     1  UNL1       -0.3867
     11 C          -6.4459  -16.4059   23.8799 C.3     1  UNL1        0.0538
     12 C          -5.5426  -15.5274   24.6936 C.3     1  UNL1        0.0906
     13 O          -5.3576  -14.4012   25.6669 O.3     1  UNL1       -0.3867
     14 C          -4.3479  -16.2584   24.1565 C.3     1  UNL1        0.0271
     15 C          -6.9222  -15.9228   24.2574 C.3     1  UNL1        0.0288
     16 C          -7.2920  -18.1754   22.3108 C.3     1  UNL1        0.0288
     17 H          -5.4160  -20.3935   20.5552 H       1  UNL1        0.2102
     18 H          -4.4116  -14.2765   25.8412 H       1  UNL1        0.2102
     19 C         -10.6430  -16.1394   21.7472 C.3     1  UNL1        0.1672
     20 C         -11.9528  -16.3146   21.0373 C.3     1  UNL1        0.0372
     21 C         -12.8124  -17.2211   21.8677 C.3     1  UNL1        0.0226
     22 C         -13.4249  -18.1308   22.8911 C.3     1  UNL1        0.0216
     23 C         -12.0338  -17.6062   23.0906 C.3     1  UNL1        0.0764
     24 N         -10.6931  -16.9377   23.0161 N.am    1  UNL1       -0.2691
     25 C          -9.5952  -17.0480   24.0322 C.2     1  UNL1        0.2403
     26 O          -9.7906  -17.8883   25.2593 O.2     1  UNL1       -0.2734
     27 N          -8.3295  -14.4833   20.7958 N.1     1  UNL1       -0.1942
     28 C          -9.4862  -15.3113   21.2715 C.1     1  UNL1        0.0925
@<TRIPOS>BOND
     1    27    28    3
     2    19    28    1
     3    19    20    1
     4    21    20    1
     5    21    22    1
     6    23    22    1
     7    23    24    1
     8    24    25   am
     9    25    26    2
    10    25     1    1
    11     1     2    1
    12     1     5    1
    13     5     6    1
    14     6     7    1
    15     7     8    1
    16     8     9    1
    17     9    10    1
    18     9    11    1
    19    11    12    1
    20    12    13    1
    21    12    14    1
    22    12    15    1
    23     9    16    1
    24    24    19    1
    25    15     5    1
    26    23    21    1
    27    16     5    1
    28    14     7    1
    29     2     3    1
    30     2     4    1
    31    10    17    1
    32    13    18    1
@<TRIPOS>MOLECULE
*****
 28 32 0 0 0
SMALL
GASTEIGER

@<TRIPOS>ATOM
      1 C          -9.3370  -18.0589   23.4126 C.3     1  UNL1        0.1286
      2 N          -9.5822  -18.1695   24.8883 N.3     1  UNL1       -0.3150
      3 H         -10.4920  -17.7666   25.1129 H       1  UNL1        0.1192
      4 H          -8.8532  -17.6652   25.3929 H       1  UNL1        0.1192
      5 C         -10.3683  -17.4255   22.5264 C.3     1  UNL1        0.0259
      6 C         -11.8245  -17.5458   22.8654 C.3     1  UNL1        0.0021
      7 C         -12.8556  -16.9124   21.9791 C.3     1  UNL1        0.0047
      8 C         -12.4306  -16.1587   20.7539 C.3     1  UNL1        0.0271
      9 C         -10.9744  -16.0384   20.4148 C.3     1  UNL1        0.0906
     10 O         -10.5494  -15.2847   19.1896 O.3     1  UNL1       -0.3867
     11 C         -11.1634  -17.7949   23.1875 C.3     1  UNL1        0.0538
     12 C         -12.2495  -18.2995   24.0907 C.3     1  UNL1        0.0906
     13 O         -12.6745  -19.0532   25.3159 O.3     1  UNL1       -0.3867
     14 C         -13.2807  -17.6661   23.2044 C.3     1  UNL1        0.0271
     15 C         -10.7933  -18.1792   23.7516 C.3     1  UNL1        0.0288
     16 C          -9.9433  -16.6718   21.3011 C.3     1  UNL1        0.0288
     17 H         -11.3334  -14.9417   18.7328 H       1  UNL1        0.2102
     18 H         -13.6417  -19.0351   25.3874 H       1  UNL1        0.2102
     19 C          -6.6014  -16.6032   23.8727 C.3     1  UNL1        0.1672
     20 C          -5.1488  -16.2294   23.8500 C.3     1  UNL1        0.0372
     21 C          -4.4199  -17.2517   23.0292 C.3     1  UNL1        0.0226
     22 C          -3.9753  -18.4024   22.1759 C.3     1  UNL1        0.0216
     23 C          -5.4220  -18.2573   22.5447 C.3     1  UNL1        0.0764
     24 N          -6.7701  -17.8565   23.0660 N.am    1  UNL1       -0.2691
     25 C          -8.0606  -18.5816   22.8232 C.2     1  UNL1        0.2403
     26 O          -8.0746  -19.8295   21.9910 O.2     1  UNL1       -0.2734
     27 N          -8.7853  -15.1069   25.2839 N.1     1  UNL1       -0.1942
     28 C          -7.6933  -15.8550   24.5783 C.1     1  UNL1        0.0925
@<TRIPOS>BOND
     1    27    28    3
     2    19    28    1
     3    19    20    1
     4    21    20    1
     5    21    22    1
     6    23    22    1
     7    23    24    1
     8    24    25   am
     9    25    26    2
    10    25     1    1
    11     1     2    1
    12     1     5    1
    13     5     6    1
    14     6     7    1
    15     7     8    1
    16     8     9    1
    17     9    10    1
    18     9    11    1
    19    11    12    1
    20    12    13    1
    21    12    14    1
    22    12    15    1
    23     9    16    1
    24    24    19    1
    25    15     5    1
    26    23    21    1
    27    16     5    1
    28    14     7    1
    29     2     3    1
    30     2     4    1
    31    10    17    1
    32    13    18    1
