@<TRIPOS>MOLECULE
*****
 25 28 0 0 0
SMALL
GASTEIGER

@<TRIPOS>ATOM
      1 C         -10.0789  -18.5875   22.3893 C.ar    1  UNL1        0.0183
      2 C          -8.7217  -18.3379   22.9773 C.ar    1  UNL1        0.0996
      3 N          -7.6949  -18.7611   21.9690 N.ar    1  UNL1       -0.2077
      4 C          -8.4175  -19.2722   20.7580 C.ar    1  UNL1        0.0825
      5 C          -7.9241  -19.8214   19.4522 C.ar    1  UNL1        0.0190
      6 C          -8.9042  -20.2633   18.4063 C.ar    1  UNL1        0.0015
      7 C         -10.3777  -20.1560   18.6660 C.ar    1  UNL1        0.0001
      8 C         -10.8710  -19.6068   19.9718 C.ar    1  UNL1        0.0015
      9 C          -9.8909  -19.1649   21.0177 C.ar    1  UNL1        0.0188
     10 C         -14.0457  -18.6043   25.8742 C.3     1  UNL1        0.0902
     11 N         -13.2168  -18.3163   24.6578 N.3     1  UNL1       -0.2632
     12 C         -13.6157  -17.4426   23.5056 C.3     1  UNL1        0.1107
     13 C         -12.4888  -17.4379   22.5156 C.2     1  UNL1        0.0490
     14 CL        -12.4621  -16.6931   21.2138 Cl      1  UNL1       -0.0858
     15 C         -11.3934  -18.3086   23.0559 C.2     1  UNL1        0.0033
     16 C         -11.8434  -18.8515   24.3798 C.3     1  UNL1        0.1001
     17 S          -6.2067  -18.6863   22.1415 S.O2    1  UNL1        0.0860
     18 O          -6.0965  -20.1481   21.8244 O.2     1  UNL1       -0.1476
     19 O          -6.3170  -17.2243   22.4586 O.2     1  UNL1       -0.1476
     20 C          -4.7185  -18.6114   22.3141 C.ar    1  UNL1        0.1277
     21 C          -4.1228  -17.6158   23.2648 C.ar    1  UNL1        0.0204
     22 C          -2.6347  -17.5410   23.4372 C.ar    1  UNL1        0.0014
     23 C          -1.7422  -18.4618   22.6590 C.ar    1  UNL1        0.0001
     24 C          -2.3379  -19.4574   21.7083 C.ar    1  UNL1        0.0014
     25 C          -3.8261  -19.5322   21.5358 C.ar    1  UNL1        0.0204
@<TRIPOS>BOND
     1    10    11    1
     2    11    12    1
     3    12    13    1
     4    13    14    1
     5    13    15    2
     6    15     1    1
     7     1     2   ar
     8     2     3   ar
     9     3    17    1
    10    17    18    2
    11    17    19    2
    12    17    20    1
    13    20    21   ar
    14    21    22   ar
    15    22    23   ar
    16    23    24   ar
    17    24    25   ar
    18     3     4   ar
    19     4     5   ar
    20     5     6   ar
    21     6     7   ar
    22     7     8   ar
    23     8     9   ar
    24    15    16    1
    25    16    11    1
    26     9     1   ar
    27    25    20   ar
    28     9     4   ar
@<TRIPOS>MOLECULE
*****
 25 28 0 0 0
SMALL
GASTEIGER

@<TRIPOS>ATOM
      1 C          -8.7841  -16.8524   23.5737 C.ar    1  UNL1        0.0183
      2 C          -7.6724  -17.2737   22.6591 C.ar    1  UNL1        0.0996
      3 N          -6.3712  -16.9546   23.3338 N.ar    1  UNL1       -0.2077
      4 C          -6.6788  -16.3361   24.6652 C.ar    1  UNL1        0.0825
      5 C          -5.7936  -15.8223   25.7618 C.ar    1  UNL1        0.0190
      6 C          -6.3998  -15.2453   27.0066 C.ar    1  UNL1        0.0015
      7 C          -7.8911  -15.1822   27.1549 C.ar    1  UNL1        0.0001
      8 C          -8.7762  -15.6960   26.0584 C.ar    1  UNL1        0.0015
      9 C          -8.1701  -16.2730   24.8136 C.ar    1  UNL1        0.0188
     10 C         -13.8721  -18.1980   24.0006 C.3     1  UNL1        0.0902
     11 N         -12.5910  -17.6055   23.4933 N.3     1  UNL1       -0.2632
     12 C         -12.4319  -16.7826   22.2493 C.3     1  UNL1        0.1107
     13 C         -10.9865  -16.4003   22.1280 C.2     1  UNL1        0.0490
     14 CL        -10.3817  -15.5761   21.0304 Cl      1  UNL1       -0.0858
     15 C         -10.2523  -16.9870   23.2971 C.2     1  UNL1        0.0033
     16 C         -11.2438  -17.7318   24.1408 C.3     1  UNL1        0.1001
     17 S          -5.0026  -17.2093   22.7750 S.O2    1  UNL1        0.0860
     18 O          -4.6258  -15.7833   23.0479 O.2     1  UNL1       -0.1476
     19 O          -5.3794  -18.6353   22.5020 O.2     1  UNL1       -0.1476
     20 C          -3.6341  -17.4640   22.2162 C.ar    1  UNL1        0.1277
     21 C          -3.1946  -18.8670   21.9186 C.ar    1  UNL1        0.0204
     22 C          -1.8261  -19.1216   21.3599 C.ar    1  UNL1        0.0014
     23 C          -0.8970  -17.9733   21.0986 C.ar    1  UNL1        0.0001
     24 C          -1.3365  -16.5704   21.3962 C.ar    1  UNL1        0.0014
     25 C          -2.7050  -16.3157   21.9550 C.ar    1  UNL1        0.0204
@<TRIPOS>BOND
     1    10    11    1
     2    11    12    1
     3    12    13    1
     4    13    14    1
     5    13    15    2
     6    15     1    1
     7     1     2   ar
     8     2     3   ar
     9     3    17    1
    10    17    18    2
    11    17    19    2
    12    17    20    1
    13    20    21   ar
    14    21    22   ar
    15    22    23   ar
    16    23    24   ar
    17    24    25   ar
    18     3     4   ar
    19     4     5   ar
    20     5     6   ar
    21     6     7   ar
    22     7     8   ar
    23     8     9   ar
    24    15    16    1
    25    16    11    1
    26     9     1   ar
    27    25    20   ar
    28     9     4   ar
@<TRIPOS>MOLECULE
*****
 25 28 0 0 0
SMALL
GASTEIGER

@<TRIPOS>ATOM
      1 C          -6.0257  -18.2803   22.2219 C.ar    1  UNL1        0.0183
      2 C          -7.4627  -18.6903   22.0924 C.ar    1  UNL1        0.0996
      3 N          -8.2694  -17.8595   23.0458 N.ar    1  UNL1       -0.2077
      4 C          -7.3309  -16.9361   23.7645 C.ar    1  UNL1        0.0825
      5 C          -7.5599  -15.8920   24.8169 C.ar    1  UNL1        0.0190
      6 C          -6.4022  -15.1080   25.3600 C.ar    1  UNL1        0.0015
      7 C          -5.0154  -15.3681   24.8507 C.ar    1  UNL1        0.0001
      8 C          -4.7864  -16.4122   23.7984 C.ar    1  UNL1        0.0015
      9 C          -5.9442  -17.1961   23.2553 C.ar    1  UNL1        0.0188
     10 C          -1.2414  -18.9280   20.0837 C.3     1  UNL1        0.0902
     11 N          -2.6734  -19.1515   20.4700 N.3     1  UNL1       -0.2632
     12 C          -3.5226  -20.3212   20.0690 C.3     1  UNL1        0.1107
     13 C          -4.8817  -20.1372   20.6765 C.2     1  UNL1        0.0490
     14 CL         -6.0456  -21.0724   20.5326 Cl      1  UNL1       -0.0858
     15 C          -4.8725  -18.8538   21.4529 C.2     1  UNL1        0.0033
     16 C          -3.5078  -18.2447   21.3253 C.3     1  UNL1        0.1001
     17 S          -9.7540  -17.9383   23.2455 S.O2    1  UNL1        0.0860
     18 O          -9.5483  -18.8589   24.4117 O.2     1  UNL1       -0.1476
     19 O          -9.9597  -17.0176   22.0793 O.2     1  UNL1       -0.1476
     20 C         -11.2386  -18.0170   23.4452 C.ar    1  UNL1        0.1277
     21 C         -11.7956  -18.6135   24.7037 C.ar    1  UNL1        0.0204
     22 C         -13.2801  -18.6922   24.9032 C.ar    1  UNL1        0.0014
     23 C         -14.2077  -18.1743   23.8443 C.ar    1  UNL1        0.0001
     24 C         -13.6507  -17.5778   22.5858 C.ar    1  UNL1        0.0014
     25 C         -12.1661  -17.4991   22.3862 C.ar    1  UNL1        0.0204
@<TRIPOS>BOND
     1    10    11    1
     2    11    12    1
     3    12    13    1
     4    13    14    1
     5    13    15    2
     6    15     1    1
     7     1     2   ar
     8     2     3   ar
     9     3    17    1
    10    17    18    2
    11    17    19    2
    12    17    20    1
    13    20    21   ar
    14    21    22   ar
    15    22    23   ar
    16    23    24   ar
    17    24    25   ar
    18     3     4   ar
    19     4     5   ar
    20     5     6   ar
    21     6     7   ar
    22     7     8   ar
    23     8     9   ar
    24    15    16    1
    25    16    11    1
    26     9     1   ar
    27    25    20   ar
    28     9     4   ar
@<TRIPOS>MOLECULE
*****
 25 28 0 0 0
SMALL
GASTEIGER

@<TRIPOS>ATOM
      1 C           7.3505   -4.3377   23.7809 C.ar    1  UNL1        0.0183
      2 C           6.9035   -3.7884   25.1031 C.ar    1  UNL1        0.0996
      3 N           7.3970   -4.7102   26.1787 N.ar    1  UNL1       -0.2077
      4 C           8.1489   -5.8292   25.5211 C.ar    1  UNL1        0.0825
      5 C           8.8561   -7.0280   26.0803 C.ar    1  UNL1        0.0190
      6 C           9.5345   -7.9966   25.1576 C.ar    1  UNL1        0.0015
      7 C           9.5058   -7.7664   23.6756 C.ar    1  UNL1        0.0001
      8 C           8.7987   -6.5676   23.1164 C.ar    1  UNL1        0.0015
      9 C           8.1202   -5.5990   24.0392 C.ar    1  UNL1        0.0188
     10 C           8.0349   -2.2324   18.9871 C.3     1  UNL1        0.0902
     11 N           7.3906   -2.7643   20.2328 N.3     1  UNL1       -0.2632
     12 C           5.9166   -2.8358   20.5016 C.3     1  UNL1        0.1107
     13 C           5.7222   -3.4339   21.8634 C.2     1  UNL1        0.0490
     14 CL          4.4051   -3.6890   22.5344 Cl      1  UNL1       -0.0858
     15 C           7.0760   -3.7320   22.4363 C.2     1  UNL1        0.0033
     16 C           8.1071   -3.3183   21.4286 C.3     1  UNL1        0.1001
     17 S           7.1770   -4.5425   27.6529 S.O2    1  UNL1        0.0860
     18 O           6.0970   -5.5824   27.6102 O.2     1  UNL1       -0.1476
     19 O           8.2572   -3.5025   27.6958 O.2     1  UNL1       -0.1476
     20 C           6.9572   -4.3747   29.1273 C.ar    1  UNL1        0.1277
     21 C           6.5662   -3.0361   29.6798 C.ar    1  UNL1        0.0204
     22 C           6.3464   -2.8684   31.1540 C.ar    1  UNL1        0.0014
     23 C           6.5176   -4.0393   32.0759 C.ar    1  UNL1        0.0001
     24 C           6.9085   -5.3779   31.5234 C.ar    1  UNL1        0.0014
     25 C           7.1284   -5.5456   30.0490 C.ar    1  UNL1        0.0204
@<TRIPOS>BOND
     1    10    11    1
     2    11    12    1
     3    12    13    1
     4    13    14    1
     5    13    15    2
     6    15     1    1
     7     1     2   ar
     8     2     3   ar
     9     3    17    1
    10    17    18    2
    11    17    19    2
    12    17    20    1
    13    20    21   ar
    14    21    22   ar
    15    22    23   ar
    16    23    24   ar
    17    24    25   ar
    18     3     4   ar
    19     4     5   ar
    20     5     6   ar
    21     6     7   ar
    22     7     8   ar
    23     8     9   ar
    24    15    16    1
    25    16    11    1
    26     9     1   ar
    27    25    20   ar
    28     9     4   ar
@<TRIPOS>MOLECULE
*****
 25 28 0 0 0
SMALL
GASTEIGER

@<TRIPOS>ATOM
      1 C          -9.3374  -19.1024   22.0492 C.ar    1  UNL1        0.0183
      2 C          -7.9011  -18.8266   22.3823 C.ar    1  UNL1        0.0996
      3 N          -7.0780  -19.1196   21.1630 N.ar    1  UNL1       -0.2077
      4 C          -8.0056  -19.5763   20.0763 C.ar    1  UNL1        0.0825
      5 C          -7.7591  -20.0006   18.6589 C.ar    1  UNL1        0.0190
      6 C          -8.9090  -20.4142   17.7891 C.ar    1  UNL1        0.0015
      7 C         -10.3054  -20.4035   18.3367 C.ar    1  UNL1        0.0001
      8 C         -10.5519  -19.9793   19.7542 C.ar    1  UNL1        0.0015
      9 C          -9.4020  -19.5657   20.6240 C.ar    1  UNL1        0.0188
     10 C         -13.9856  -17.6135   24.0634 C.3     1  UNL1        0.0902
     11 N         -12.6409  -18.2584   23.9040 N.3     1  UNL1       -0.2632
     12 C         -11.9589  -19.1361   24.9113 C.3     1  UNL1        0.1107
     13 C         -10.6384  -19.5591   24.3391 C.2     1  UNL1        0.0490
     14 CL         -9.6294  -20.4432   25.0101 Cl      1  UNL1       -0.0858
     15 C         -10.5043  -18.9428   22.9781 C.2     1  UNL1        0.0033
     16 C         -11.7418  -18.1390   22.7093 C.3     1  UNL1        0.1001
     17 S          -5.5887  -18.9802   21.0502 S.O2    1  UNL1        0.0860
     18 O          -5.7516  -18.3227   19.7120 O.2     1  UNL1       -0.1476
     19 O          -5.4258  -19.6377   22.3886 O.2     1  UNL1       -0.1476
     20 C          -4.0994  -18.8409   20.9375 C.ar    1  UNL1        0.1277
     21 C          -3.4561  -18.7346   19.5866 C.ar    1  UNL1        0.0204
     22 C          -1.9670  -18.5952   19.4740 C.ar    1  UNL1        0.0014
     23 C          -1.1209  -18.5622   20.7122 C.ar    1  UNL1        0.0001
     24 C          -1.7642  -18.6685   22.0631 C.ar    1  UNL1        0.0014
     25 C          -3.2535  -18.8079   22.1757 C.ar    1  UNL1        0.0204
@<TRIPOS>BOND
     1    10    11    1
     2    11    12    1
     3    12    13    1
     4    13    14    1
     5    13    15    2
     6    15     1    1
     7     1     2   ar
     8     2     3   ar
     9     3    17    1
    10    17    18    2
    11    17    19    2
    12    17    20    1
    13    20    21   ar
    14    21    22   ar
    15    22    23   ar
    16    23    24   ar
    17    24    25   ar
    18     3     4   ar
    19     4     5   ar
    20     5     6   ar
    21     6     7   ar
    22     7     8   ar
    23     8     9   ar
    24    15    16    1
    25    16    11    1
    26     9     1   ar
    27    25    20   ar
    28     9     4   ar
@<TRIPOS>MOLECULE
*****
 25 28 0 0 0
SMALL
GASTEIGER

@<TRIPOS>ATOM
      1 C           7.1423   -4.6376   25.9160 C.ar    1  UNL1        0.0183
      2 C           6.4974   -3.8106   24.8436 C.ar    1  UNL1        0.0996
      3 N           6.9182   -4.3649   23.5148 N.ar    1  UNL1       -0.2077
      4 C           7.8232   -5.5345   23.7660 C.ar    1  UNL1        0.0825
      5 C           8.5390   -6.4678   22.8351 C.ar    1  UNL1        0.0190
      6 C           9.3934   -7.5696   23.3883 C.ar    1  UNL1        0.0015
      7 C           9.5319   -7.7381   24.8724 C.ar    1  UNL1        0.0001
      8 C           8.8161   -6.8048   25.8032 C.ar    1  UNL1        0.0015
      9 C           7.9617   -5.7030   25.2501 C.ar    1  UNL1        0.0188
     10 C           6.8484   -5.5598   31.1068 C.3     1  UNL1        0.0902
     11 N           6.8589   -4.8587   29.7808 N.3     1  UNL1       -0.2632
     12 C           6.6725   -3.3867   29.5602 C.3     1  UNL1        0.1107
     13 C           6.7560   -3.1248   28.0856 C.2     1  UNL1        0.0490
     14 CL          6.6246   -1.7875   27.4189 Cl      1  UNL1       -0.0858
     15 C           6.9940   -4.4348   27.3948 C.2     1  UNL1        0.0033
     16 C           7.0575   -5.5064   28.4425 C.3     1  UNL1        0.1001
     17 S           6.5063   -3.8416   22.1708 S.O2    1  UNL1        0.0860
     18 O           7.8656   -3.2337   21.9909 O.2     1  UNL1       -0.1476
     19 O           5.1468   -4.4495   22.3507 O.2     1  UNL1       -0.1476
     20 C           6.0943   -3.3183   20.8267 C.ar    1  UNL1        0.1277
     21 C           4.6426   -3.2743   20.4517 C.ar    1  UNL1        0.0204
     22 C           4.2307   -2.7510   19.1077 C.ar    1  UNL1        0.0014
     23 C           5.2705   -2.2716   18.1386 C.ar    1  UNL1        0.0001
     24 C           6.7221   -2.3156   18.5136 C.ar    1  UNL1        0.0014
     25 C           7.1340   -2.8389   19.8577 C.ar    1  UNL1        0.0204
@<TRIPOS>BOND
     1    10    11    1
     2    11    12    1
     3    12    13    1
     4    13    14    1
     5    13    15    2
     6    15     1    1
     7     1     2   ar
     8     2     3   ar
     9     3    17    1
    10    17    18    2
    11    17    19    2
    12    17    20    1
    13    20    21   ar
    14    21    22   ar
    15    22    23   ar
    16    23    24   ar
    17    24    25   ar
    18     3     4   ar
    19     4     5   ar
    20     5     6   ar
    21     6     7   ar
    22     7     8   ar
    23     8     9   ar
    24    15    16    1
    25    16    11    1
    26     9     1   ar
    27    25    20   ar
    28     9     4   ar
@<TRIPOS>MOLECULE
*****
 25 28 0 0 0
SMALL
GASTEIGER

@<TRIPOS>ATOM
      1 C           0.5857    2.7189   18.6972 C.ar    1  UNL1        0.0183
      2 C           0.8664    1.2563   18.8761 C.ar    1  UNL1        0.0996
      3 N           2.3385    1.0402   18.6853 N.ar    1  UNL1       -0.2077
      4 C           2.9675    2.3692   18.3886 C.ar    1  UNL1        0.0825
      5 C           4.3867    2.7687   18.1127 C.ar    1  UNL1        0.0190
      6 C           4.7227    4.2057   17.8441 C.ar    1  UNL1        0.0015
      7 C           3.6394    5.2432   17.8515 C.ar    1  UNL1        0.0001
      8 C           2.2201    4.8437   18.1274 C.ar    1  UNL1        0.0015
      9 C           1.8842    3.4067   18.3960 C.ar    1  UNL1        0.0188
     10 C          -3.9812    4.5340   20.6283 C.3     1  UNL1        0.0902
     11 N          -2.8569    4.2123   19.6890 N.3     1  UNL1       -0.2632
     12 C          -2.7931    4.5722   18.2342 C.3     1  UNL1        0.1107
     13 C          -1.4957    4.0566   17.6856 C.2     1  UNL1        0.0490
     14 CL         -1.0199    4.1952   16.2698 Cl      1  UNL1       -0.0858
     15 C          -0.7577    3.3780   18.8014 C.2     1  UNL1        0.0033
     16 C          -1.5990    3.4743   20.0395 C.3     1  UNL1        0.1001
     17 S           3.0556   -0.2742   18.7754 S.O2    1  UNL1        0.0860
     18 O           2.9703   -0.2182   20.2719 O.2     1  UNL1       -0.1476
     19 O           3.1409   -0.3303   17.2789 O.2     1  UNL1       -0.1476
     20 C           3.7728   -1.5886   18.8655 C.ar    1  UNL1        0.1277
     21 C           3.1808   -2.7130   19.6625 C.ar    1  UNL1        0.0204
     22 C           3.8980   -4.0273   19.7525 C.ar    1  UNL1        0.0014
     23 C           5.2072   -4.2173   19.0454 C.ar    1  UNL1        0.0001
     24 C           5.7991   -3.0929   18.2484 C.ar    1  UNL1        0.0014
     25 C           5.0819   -1.7786   18.1584 C.ar    1  UNL1        0.0204
@<TRIPOS>BOND
     1    10    11    1
     2    11    12    1
     3    12    13    1
     4    13    14    1
     5    13    15    2
     6    15     1    1
     7     1     2   ar
     8     2     3   ar
     9     3    17    1
    10    17    18    2
    11    17    19    2
    12    17    20    1
    13    20    21   ar
    14    21    22   ar
    15    22    23   ar
    16    23    24   ar
    17    24    25   ar
    18     3     4   ar
    19     4     5   ar
    20     5     6   ar
    21     6     7   ar
    22     7     8   ar
    23     8     9   ar
    24    15    16    1
    25    16    11    1
    26     9     1   ar
    27    25    20   ar
    28     9     4   ar
@<TRIPOS>MOLECULE
*****
 25 28 0 0 0
SMALL
GASTEIGER

@<TRIPOS>ATOM
      1 C          -2.3443    3.5568   25.5368 C.ar    1  UNL1        0.0183
      2 C          -2.2248    3.3185   24.0607 C.ar    1  UNL1        0.0996
      3 N          -3.4600    3.8582   23.4027 N.ar    1  UNL1       -0.2077
      4 C          -4.3428    4.4301   24.4721 C.ar    1  UNL1        0.0825
      5 C          -5.6855    5.0963   24.4153 C.ar    1  UNL1        0.0190
      6 C          -6.3386    5.5763   25.6774 C.ar    1  UNL1        0.0015
      7 C          -5.6490    5.3901   26.9964 C.ar    1  UNL1        0.0001
      8 C          -4.3063    4.7238   27.0532 C.ar    1  UNL1        0.0015
      9 C          -3.6532    4.2438   25.7911 C.ar    1  UNL1        0.0188
     10 C           0.8347    0.7049   28.6418 C.3     1  UNL1        0.0902
     11 N           0.1289    1.8643   28.0035 N.3     1  UNL1       -0.2632
     12 C           0.3208    3.3115   28.3480 C.3     1  UNL1        0.1107
     13 C          -0.5823    4.1217   27.4659 C.2     1  UNL1        0.0490
     14 CL         -0.7124    5.6161   27.4724 Cl      1  UNL1       -0.0858
     15 C          -1.3323    3.1752   26.5762 C.2     1  UNL1        0.0033
     16 C          -0.8928    1.7801   26.9084 C.3     1  UNL1        0.1001
     17 S          -3.7599    3.8309   21.9332 S.O2    1  UNL1        0.0860
     18 O          -4.5874    2.5947   22.1250 O.2     1  UNL1       -0.1476
     19 O          -2.9322    5.0671   21.7413 O.2     1  UNL1       -0.1476
     20 C          -4.0596    3.8036   20.4637 C.ar    1  UNL1        0.1277
     21 C          -2.9711    4.0850   19.4707 C.ar    1  UNL1        0.0204
     22 C          -3.2709    4.0577   18.0013 C.ar    1  UNL1        0.0014
     23 C          -4.6593    3.7491   17.5247 C.ar    1  UNL1        0.0001
     24 C          -5.7479    3.4677   18.5176 C.ar    1  UNL1        0.0014
     25 C          -5.4480    3.4950   19.9871 C.ar    1  UNL1        0.0204
@<TRIPOS>BOND
     1    10    11    1
     2    11    12    1
     3    12    13    1
     4    13    14    1
     5    13    15    2
     6    15     1    1
     7     1     2   ar
     8     2     3   ar
     9     3    17    1
    10    17    18    2
    11    17    19    2
    12    17    20    1
    13    20    21   ar
    14    21    22   ar
    15    22    23   ar
    16    23    24   ar
    17    24    25   ar
    18     3     4   ar
    19     4     5   ar
    20     5     6   ar
    21     6     7   ar
    22     7     8   ar
    23     8     9   ar
    24    15    16    1
    25    16    11    1
    26     9     1   ar
    27    25    20   ar
    28     9     4   ar
@<TRIPOS>MOLECULE
*****
 25 28 0 0 0
SMALL
GASTEIGER

@<TRIPOS>ATOM
      1 C           3.6556   -1.2278   21.0273 C.ar    1  UNL1        0.0183
      2 C           2.8168   -0.4765   20.0364 C.ar    1  UNL1        0.0996
      3 N           1.9326    0.4660   20.7980 N.ar    1  UNL1       -0.2077
      4 C           2.2250    0.2971   22.2595 C.ar    1  UNL1        0.0825
      5 C           1.6592    0.9613   23.4796 C.ar    1  UNL1        0.0190
      6 C           2.1583    0.5786   24.8414 C.ar    1  UNL1        0.0015
      7 C           3.2232   -0.4683   24.9830 C.ar    1  UNL1        0.0001
      8 C           3.7890   -1.1325   23.7630 C.ar    1  UNL1        0.0015
      9 C           3.2899   -0.7498   22.4012 C.ar    1  UNL1        0.0188
     10 C           8.1940   -3.9187   20.8181 C.3     1  UNL1        0.0902
     11 N           6.7664   -3.5106   20.6052 N.3     1  UNL1       -0.2632
     12 C           5.7479   -4.2557   19.7945 C.3     1  UNL1        0.1107
     13 C           4.4586   -3.4913   19.8539 C.2     1  UNL1        0.0490
     14 CL          3.1734   -3.8770   19.1834 Cl      1  UNL1       -0.0858
     15 C           4.6803   -2.2737   20.7014 C.2     1  UNL1        0.0033
     16 C           6.1065   -2.2856   21.1657 C.3     1  UNL1        0.1001
     17 S           0.9318    1.4114   20.2027 S.O2    1  UNL1        0.0860
     18 O           2.0287    2.3945   19.9198 O.2     1  UNL1       -0.1476
     19 O          -0.1652    0.4283   20.4856 O.2     1  UNL1       -0.1476
     20 C          -0.0692    2.3568   19.6073 C.ar    1  UNL1        0.1277
     21 C          -1.2304    2.8343   20.4281 C.ar    1  UNL1        0.0204
     22 C          -2.2312    3.7796   19.8327 C.ar    1  UNL1        0.0014
     23 C          -2.0710    4.2475   18.4165 C.ar    1  UNL1        0.0001
     24 C          -0.9098    3.7700   17.5958 C.ar    1  UNL1        0.0014
     25 C           0.0911    2.8246   18.1912 C.ar    1  UNL1        0.0204
@<TRIPOS>BOND
     1    10    11    1
     2    11    12    1
     3    12    13    1
     4    13    14    1
     5    13    15    2
     6    15     1    1
     7     1     2   ar
     8     2     3   ar
     9     3    17    1
    10    17    18    2
    11    17    19    2
    12    17    20    1
    13    20    21   ar
    14    21    22   ar
    15    22    23   ar
    16    23    24   ar
    17    24    25   ar
    18     3     4   ar
    19     4     5   ar
    20     5     6   ar
    21     6     7   ar
    22     7     8   ar
    23     8     9   ar
    24    15    16    1
    25    16    11    1
    26     9     1   ar
    27    25    20   ar
    28     9     4   ar
