@<TRIPOS>MOLECULE
*****
 30 34 0 0 0
SMALL
GASTEIGER

@<TRIPOS>ATOM
      1 C           5.3734    0.5481   35.2639 C.ar    1  UNL1        0.1427
      2 N           6.7050    1.2385   35.2459 N.ar    1  UNL1       -0.2046
      3 S           7.6077    0.4803   34.3184 S.2     1  UNL1        0.0132
      4 C           6.8340   -0.6787   33.7631 C.ar    1  UNL1        0.0524
      5 C           7.2085   -1.7667   32.8010 C.ar    1  UNL1        0.0481
      6 C           6.2022   -2.8129   32.4232 C.ar    1  UNL1        0.1363
      7 C           4.8213   -2.7710   33.0076 C.ar    1  UNL1        0.0402
      8 C           4.4468   -1.6830   33.9697 C.ar    1  UNL1        0.0057
      9 C           5.4532   -0.6368   34.3475 C.ar    1  UNL1        0.0304
     10 O           3.1099    1.8136   35.4216 O.2     1  UNL1       -0.2685
     11 C           4.1729    0.9687   36.0587 C.2     1  UNL1        0.2642
     12 N           4.0353    0.5443   37.4910 N.am    1  UNL1       -0.3009
     13 H           4.7330   -0.0103   37.9092 H       1  UNL1        0.1497
     14 C           2.8348    0.9649   38.2858 C.3     1  UNL1        0.0828
     15 C           1.9923    2.2038   38.3595 C.3     1  UNL1        0.0863
     16 C           1.1369    1.5597   39.4099 C.3     1  UNL1        0.2671
     17 F           0.2816    0.9156   40.4603 F       1  UNL1       -0.2042
     18 F           0.2945    2.7986   39.4835 F       1  UNL1       -0.2042
     19 C           1.9794    0.3208   39.3362 C.3     1  UNL1        0.0863
     20 N           6.5767   -3.9010   31.4610 N.pl3   1  UNL1       -0.1957
     21 H           6.8887   -4.7714   31.7992 H       1  UNL1        0.2986
     22 C           6.4757   -3.6631   29.9834 C.2     1  UNL1        0.3707
     23 N           5.9960   -2.4042   29.3238 N.2     1  UNL1        0.0819
     24 N           6.0605   -2.6053   27.8388 N.2     1  UNL1       -0.0365
     25 C           6.5801   -3.9885   27.5805 C.2     1  UNL1        0.1346
     26 C           6.8528   -4.7372   26.3096 C.3     1  UNL1        0.0792
     27 C           7.3820   -6.1397   26.3643 C.2     1  UNL1        0.0010
     28 C           7.6386   -6.7934   27.6897 C.2     1  UNL1        0.0950
     29 N           7.3659   -6.0447   28.9605 N.2     1  UNL1       -0.2354
     30 C           6.8367   -4.6422   28.9059 C.2     1  UNL1        0.1834
@<TRIPOS>BOND
     1    10    11    2
     2    11    12   am
     3    12    14    1
     4    14    15    1
     5    15    16    1
     6    16    17    1
     7    16    18    1
     8    16    19    1
     9    11     1    1
    10     1     2   ar
    11     2     3   ar
    12     3     4   ar
    13     4     5   ar
    14     5     6   ar
    15     6    20    1
    16    20    22    1
    17    22    23    2
    18    23    24    1
    19    24    25    2
    20    25    26    1
    21    26    27    1
    22    27    28    2
    23    28    29    1
    24    29    30    2
    25     6     7   ar
    26     7     8   ar
    27     8     9   ar
    28    19    14    1
    29     9     1   ar
    30     9     4   ar
    31    30    22    1
    32    30    25    1
    33    12    13    1
    34    20    21    1
@<TRIPOS>MOLECULE
*****
 30 34 0 0 0
SMALL
GASTEIGER

@<TRIPOS>ATOM
      1 C           0.8608    1.2293   22.8954 C.ar    1  UNL1        0.1427
      2 N          -0.1132    1.8323   21.9271 N.ar    1  UNL1       -0.2046
      3 S           0.1034    1.1878   20.5900 S.2     1  UNL1        0.0132
      4 C           1.2113    0.1866   20.7320 C.ar    1  UNL1        0.0524
      5 C           1.8543   -0.7451   19.7480 C.ar    1  UNL1        0.0481
      6 C           2.9654   -1.6512   20.1888 C.ar    1  UNL1        0.1363
      7 C           3.4335   -1.6256   21.6136 C.ar    1  UNL1        0.0402
      8 C           2.7905   -0.6939   22.5977 C.ar    1  UNL1        0.0057
      9 C           1.6794    0.2122   22.1569 C.ar    1  UNL1        0.0304
     10 O           2.0654    2.5302   24.7945 O.2     1  UNL1       -0.2685
     11 C           0.9930    1.5815   24.3475 C.2     1  UNL1        0.2642
     12 N           0.0528    0.9850   25.3526 N.am    1  UNL1       -0.3009
     13 H          -0.6511    0.3623   25.0593 H       1  UNL1        0.1497
     14 C           0.1850    1.3373   26.8047 C.3     1  UNL1        0.0828
     15 C           0.4774    0.5699   28.0599 C.3     1  UNL1        0.0863
     16 C           0.3720    1.8354   28.8582 C.3     1  UNL1        0.2671
     17 F           0.2666    3.1010   29.6563 F       1  UNL1       -0.2042
     18 F           0.6645    1.0680   30.1134 F       1  UNL1       -0.2042
     19 C           0.0796    2.6028   27.6028 C.3     1  UNL1        0.0863
     20 N           3.6085   -2.5830   19.2047 N.pl3   1  UNL1       -0.1957
     21 H           3.1168   -3.3714   18.8795 H       1  UNL1        0.2986
     22 C           5.0009   -2.3134   18.7162 C.2     1  UNL1        0.3707
     23 N           5.3682   -1.5819   17.4592 N.2     1  UNL1        0.0819
     24 N           6.8647   -1.5444   17.3651 N.2     1  UNL1       -0.0365
     25 C           7.4225   -2.2528   18.5639 C.2     1  UNL1        0.1346
     26 C           8.8304   -2.5265   19.0030 C.3     1  UNL1        0.0792
     27 C           9.0864   -3.2755   20.2771 C.2     1  UNL1        0.0010
     28 C           7.9345   -3.7507   21.1122 C.2     1  UNL1        0.0950
     29 N           6.5266   -3.4770   20.6730 N.2     1  UNL1       -0.2354
     30 C           6.2705   -2.7281   19.3989 C.2     1  UNL1        0.1834
@<TRIPOS>BOND
     1    10    11    2
     2    11    12   am
     3    12    14    1
     4    14    15    1
     5    15    16    1
     6    16    17    1
     7    16    18    1
     8    16    19    1
     9    11     1    1
    10     1     2   ar
    11     2     3   ar
    12     3     4   ar
    13     4     5   ar
    14     5     6   ar
    15     6    20    1
    16    20    22    1
    17    22    23    2
    18    23    24    1
    19    24    25    2
    20    25    26    1
    21    26    27    1
    22    27    28    2
    23    28    29    1
    24    29    30    2
    25     6     7   ar
    26     7     8   ar
    27     8     9   ar
    28    19    14    1
    29     9     1   ar
    30     9     4   ar
    31    30    22    1
    32    30    25    1
    33    12    13    1
    34    20    21    1
@<TRIPOS>MOLECULE
*****
 30 34 0 0 0
SMALL
GASTEIGER

@<TRIPOS>ATOM
      1 C           8.0681   -4.1333   23.9104 C.ar    1  UNL1        0.1427
      2 N           9.3357   -4.2971   23.1253 N.ar    1  UNL1       -0.2046
      3 S           8.9876   -4.2466   21.6672 S.2     1  UNL1        0.0132
      4 C           7.5049   -4.0516   21.5510 C.ar    1  UNL1        0.0524
      5 C           6.5988   -3.9288   20.3619 C.ar    1  UNL1        0.0481
      6 C           5.1244   -3.7360   20.5593 C.ar    1  UNL1        0.1363
      7 C           4.5561   -3.6660   21.9457 C.ar    1  UNL1        0.0402
      8 C           5.4622   -3.7888   23.1348 C.ar    1  UNL1        0.0057
      9 C           6.9365   -3.9816   22.9374 C.ar    1  UNL1        0.0304
     10 O           8.6789   -3.0841   26.2073 O.2     1  UNL1       -0.2685
     11 C           7.9523   -4.1230   25.4059 C.2     1  UNL1        0.2642
     12 N           7.1097   -5.1519   26.1000 N.am    1  UNL1       -0.3009
     13 H           6.6327   -5.8338   25.5740 H       1  UNL1        0.1497
     14 C           6.9939   -5.1416   27.5955 C.3     1  UNL1        0.0828
     15 C           6.4409   -4.1850   28.6099 C.3     1  UNL1        0.0863
     16 C           6.8301   -5.1270   29.7104 C.3     1  UNL1        0.2671
     17 F           7.2193   -6.0692   30.8108 F       1  UNL1       -0.2042
     18 F           6.2771   -4.1704   30.7249 F       1  UNL1       -0.2042
     19 C           7.3830   -6.0837   28.6959 C.3     1  UNL1        0.0863
     20 N           4.2183   -3.6132   19.3702 N.pl3   1  UNL1       -0.1957
     21 H           3.7452   -4.4058   19.0278 H       1  UNL1        0.2986
     22 C           4.0329   -2.2827   18.7028 C.2     1  UNL1        0.3707
     23 N           4.8389   -1.7525   17.5541 N.2     1  UNL1        0.0819
     24 N           4.3132   -0.3909   17.2083 N.2     1  UNL1       -0.0365
     25 C           3.1822   -0.0795   18.1431 C.2     1  UNL1        0.1346
     26 C           2.2877    1.1176   18.2727 C.3     1  UNL1        0.0792
     27 C           1.2200    1.1455   19.3259 C.2     1  UNL1        0.0010
     28 C           1.0469   -0.0236   20.2496 C.2     1  UNL1        0.0950
     29 N           1.9414   -1.2207   20.1200 N.2     1  UNL1       -0.2354
     30 C           3.0090   -1.2487   19.0668 C.2     1  UNL1        0.1834
@<TRIPOS>BOND
     1    10    11    2
     2    11    12   am
     3    12    14    1
     4    14    15    1
     5    15    16    1
     6    16    17    1
     7    16    18    1
     8    16    19    1
     9    11     1    1
    10     1     2   ar
    11     2     3   ar
    12     3     4   ar
    13     4     5   ar
    14     5     6   ar
    15     6    20    1
    16    20    22    1
    17    22    23    2
    18    23    24    1
    19    24    25    2
    20    25    26    1
    21    26    27    1
    22    27    28    2
    23    28    29    1
    24    29    30    2
    25     6     7   ar
    26     7     8   ar
    27     8     9   ar
    28    19    14    1
    29     9     1   ar
    30     9     4   ar
    31    30    22    1
    32    30    25    1
    33    12    13    1
    34    20    21    1
@<TRIPOS>MOLECULE
*****
 30 34 0 0 0
SMALL
GASTEIGER

@<TRIPOS>ATOM
      1 C           0.8714    2.2705   20.6257 C.ar    1  UNL1        0.1427
      2 N           1.1361    3.3698   19.6400 N.ar    1  UNL1       -0.2046
      3 S           2.0203    2.8208   18.5599 S.2     1  UNL1        0.0132
      4 C           2.3022    1.3823   18.8780 C.ar    1  UNL1        0.0524
      5 C           3.1136    0.3381   18.1700 C.ar    1  UNL1        0.0481
      6 C           3.2150   -1.0461   18.7388 C.ar    1  UNL1        0.1363
      7 C           2.5050   -1.3862   20.0156 C.ar    1  UNL1        0.0402
      8 C           1.6935   -0.3421   20.7236 C.ar    1  UNL1        0.0057
      9 C           1.5921    1.0422   20.1548 C.ar    1  UNL1        0.0304
     10 O          -1.4348    2.6672   21.7544 O.2     1  UNL1       -0.2685
     11 C           0.0333    2.3803   21.8649 C.2     1  UNL1        0.2642
     12 N           0.6633    2.2031   23.2146 N.am    1  UNL1       -0.3009
     13 H           1.6269    2.0148   23.2872 H       1  UNL1        0.1497
     14 C          -0.1748    2.3129   24.4538 C.3     1  UNL1        0.0828
     15 C          -1.2349    3.2577   24.9370 C.3     1  UNL1        0.0863
     16 C          -1.3601    2.4681   26.2062 C.3     1  UNL1        0.2671
     17 F          -1.4853    1.6785   27.4753 F       1  UNL1       -0.2042
     18 F          -2.4203    3.4129   26.6894 F       1  UNL1       -0.2042
     19 C          -0.2999    1.5233   25.7229 C.3     1  UNL1        0.0863
     20 N           4.0265   -2.0903   18.0308 N.pl3   1  UNL1       -0.1957
     21 H           3.6092   -2.6524   17.3386 H       1  UNL1        0.2986
     22 C           5.4738   -2.2781   18.3775 C.2     1  UNL1        0.3707
     23 N           6.6408   -1.9729   17.4860 N.2     1  UNL1        0.0819
     24 N           7.8964   -2.3102   18.2342 N.2     1  UNL1       -0.0365
     25 C           7.5053   -2.8239   19.5881 C.2     1  UNL1        0.1346
     26 C           8.3192   -3.3071   20.7518 C.3     1  UNL1        0.0792
     27 C           7.6357   -3.7704   22.0041 C.2     1  UNL1        0.0010
     28 C           6.1385   -3.7506   22.0927 C.2     1  UNL1        0.0950
     29 N           5.3246   -3.2673   20.9290 N.2     1  UNL1       -0.2354
     30 C           6.0081   -2.8040   19.6767 C.2     1  UNL1        0.1834
@<TRIPOS>BOND
     1    10    11    2
     2    11    12   am
     3    12    14    1
     4    14    15    1
     5    15    16    1
     6    16    17    1
     7    16    18    1
     8    16    19    1
     9    11     1    1
    10     1     2   ar
    11     2     3   ar
    12     3     4   ar
    13     4     5   ar
    14     5     6   ar
    15     6    20    1
    16    20    22    1
    17    22    23    2
    18    23    24    1
    19    24    25    2
    20    25    26    1
    21    26    27    1
    22    27    28    2
    23    28    29    1
    24    29    30    2
    25     6     7   ar
    26     7     8   ar
    27     8     9   ar
    28    19    14    1
    29     9     1   ar
    30     9     4   ar
    31    30    22    1
    32    30    25    1
    33    12    13    1
    34    20    21    1
@<TRIPOS>MOLECULE
*****
 30 34 0 0 0
SMALL
GASTEIGER

@<TRIPOS>ATOM
      1 C           3.9032    0.8377   18.1843 C.ar    1  UNL1        0.1427
      2 N           4.9831    1.8556   17.9661 N.ar    1  UNL1       -0.2046
      3 S           4.3875    3.2159   18.1779 S.2     1  UNL1        0.0132
      4 C           2.9395    3.0387   18.5270 C.ar    1  UNL1        0.0524
      5 C           1.8549    4.0259   18.8418 C.ar    1  UNL1        0.0481
      6 C           0.4709    3.5432   19.1605 C.ar    1  UNL1        0.1363
      7 C           0.1716    2.0733   19.1645 C.ar    1  UNL1        0.0402
      8 C           1.2562    1.0862   18.8497 C.ar    1  UNL1        0.0057
      9 C           2.6402    1.5689   18.5310 C.ar    1  UNL1        0.0304
     10 O           4.3781   -1.2755   16.7496 O.2     1  UNL1       -0.2685
     11 C           4.0589   -0.6501   18.0750 C.2     1  UNL1        0.2642
     12 N           3.8953   -1.5127   19.2914 N.am    1  UNL1       -0.3009
     13 H           3.6858   -1.1023   20.1613 H       1  UNL1        0.1497
     14 C           4.0511   -3.0006   19.1821 C.3     1  UNL1        0.0828
     15 C           4.9304   -3.9195   18.3868 C.3     1  UNL1        0.0863
     16 C           4.2713   -5.1048   19.0276 C.3     1  UNL1        0.2671
     17 F           3.6121   -6.2901   19.6683 F       1  UNL1       -0.2042
     18 F           5.1506   -6.0237   18.2323 F       1  UNL1       -0.2042
     19 C           3.3919   -4.1859   19.8228 C.3     1  UNL1        0.0863
     20 N          -0.6138    4.5303   19.4753 N.pl3   1  UNL1       -0.1957
     21 H          -0.4867    5.4842   19.2676 H       1  UNL1        0.2986
     22 C          -1.8921    4.0640   20.1066 C.2     1  UNL1        0.3707
     23 N          -2.0669    3.6410   21.5351 N.2     1  UNL1        0.0819
     24 N          -3.5029    3.2544   21.7316 N.2     1  UNL1       -0.0365
     25 C          -4.2155    3.4385   20.4246 C.2     1  UNL1        0.1346
     26 C          -5.6423    3.2151   20.0192 C.3     1  UNL1        0.0792
     27 C          -6.0735    3.4921   18.6095 C.2     1  UNL1        0.0010
     28 C          -5.0780    3.9925   17.6052 C.2     1  UNL1        0.0950
     29 N          -3.6512    4.2158   18.0106 N.2     1  UNL1       -0.2354
     30 C          -3.2200    3.9388   19.4203 C.2     1  UNL1        0.1834
@<TRIPOS>BOND
     1    10    11    2
     2    11    12   am
     3    12    14    1
     4    14    15    1
     5    15    16    1
     6    16    17    1
     7    16    18    1
     8    16    19    1
     9    11     1    1
    10     1     2   ar
    11     2     3   ar
    12     3     4   ar
    13     4     5   ar
    14     5     6   ar
    15     6    20    1
    16    20    22    1
    17    22    23    2
    18    23    24    1
    19    24    25    2
    20    25    26    1
    21    26    27    1
    22    27    28    2
    23    28    29    1
    24    29    30    2
    25     6     7   ar
    26     7     8   ar
    27     8     9   ar
    28    19    14    1
    29     9     1   ar
    30     9     4   ar
    31    30    22    1
    32    30    25    1
    33    12    13    1
    34    20    21    1
@<TRIPOS>MOLECULE
*****
 30 34 0 0 0
SMALL
GASTEIGER

@<TRIPOS>ATOM
      1 C           3.9579    1.3905   18.8866 C.ar    1  UNL1        0.1427
      2 N           5.0462    2.4155   18.7642 N.ar    1  UNL1       -0.2046
      3 S           4.4104    3.7260   18.4061 S.2     1  UNL1        0.0132
      4 C           2.9292    3.5110   18.3072 C.ar    1  UNL1        0.0524
      5 C           1.7990    4.4430   17.9851 C.ar    1  UNL1        0.0481
      6 C           0.3891    3.9316   17.9599 C.ar    1  UNL1        0.1363
      7 C           0.1094    2.4882   18.2569 C.ar    1  UNL1        0.0402
      8 C           1.2397    1.5561   18.5791 C.ar    1  UNL1        0.0057
      9 C           2.6495    2.0675   18.6042 C.ar    1  UNL1        0.0304
     10 O           4.6802   -0.4449   20.5776 O.2     1  UNL1       -0.2685
     11 C           4.1451   -0.0574   19.2310 C.2     1  UNL1        0.2642
     12 N           3.7971   -1.1178   18.2287 N.am    1  UNL1       -0.3009
     13 H           3.4459   -0.8635   17.3449 H       1  UNL1        0.1497
     14 C           3.9843   -2.5657   18.5731 C.3     1  UNL1        0.0828
     15 C           3.1639   -3.6019   19.2826 C.3     1  UNL1        0.0863
     16 C           4.2491   -4.6133   19.0602 C.3     1  UNL1        0.2671
     17 F           5.3343   -5.6246   18.8378 F       1  UNL1       -0.2042
     18 F           3.4287   -5.6495   19.7696 F       1  UNL1       -0.2042
     19 C           5.0695   -3.5770   18.3508 C.3     1  UNL1        0.0863
     20 N          -0.7412    4.8637   17.6378 N.pl3   1  UNL1       -0.1957
     21 H          -0.5762    5.8317   17.5672 H       1  UNL1        0.2986
     22 C          -2.1230    4.3209   17.4232 C.2     1  UNL1        0.3707
     23 N          -2.6476    3.7226   16.1517 N.2     1  UNL1        0.0819
     24 N          -4.0716    3.3129   16.3850 N.2     1  UNL1       -0.0365
     25 C          -4.4271    3.6581   17.8008 C.2     1  UNL1        0.1346
     26 C          -5.6918    3.4857   18.5887 C.3     1  UNL1        0.0792
     27 C          -5.7523    3.9362   20.0181 C.2     1  UNL1        0.0010
     28 C          -4.5480    4.5592   20.6597 C.2     1  UNL1        0.0950
     29 N          -3.2832    4.7316   19.8719 N.2     1  UNL1       -0.2354
     30 C          -3.2228    4.2811   18.4424 C.2     1  UNL1        0.1834
@<TRIPOS>BOND
     1    10    11    2
     2    11    12   am
     3    12    14    1
     4    14    15    1
     5    15    16    1
     6    16    17    1
     7    16    18    1
     8    16    19    1
     9    11     1    1
    10     1     2   ar
    11     2     3   ar
    12     3     4   ar
    13     4     5   ar
    14     5     6   ar
    15     6    20    1
    16    20    22    1
    17    22    23    2
    18    23    24    1
    19    24    25    2
    20    25    26    1
    21    26    27    1
    22    27    28    2
    23    28    29    1
    24    29    30    2
    25     6     7   ar
    26     7     8   ar
    27     8     9   ar
    28    19    14    1
    29     9     1   ar
    30     9     4   ar
    31    30    22    1
    32    30    25    1
    33    12    13    1
    34    20    21    1
@<TRIPOS>MOLECULE
*****
 30 34 0 0 0
SMALL
GASTEIGER

@<TRIPOS>ATOM
      1 C           5.3519   -2.0360   26.0477 C.ar    1  UNL1        0.1427
      2 N           4.5776   -0.7880   26.3521 N.ar    1  UNL1       -0.2046
      3 S           3.8754   -0.3606   25.0974 S.2     1  UNL1        0.0132
      4 C           4.2158   -1.3444   24.0176 C.ar    1  UNL1        0.0524
      5 C           3.8126   -1.4312   22.5754 C.ar    1  UNL1        0.0481
      6 C           4.3221   -2.5535   21.7205 C.ar    1  UNL1        0.1363
      7 C           5.2347   -3.5890   22.3078 C.ar    1  UNL1        0.0402
      8 C           5.6378   -3.5022   23.7500 C.ar    1  UNL1        0.0057
      9 C           5.1283   -2.3800   24.6048 C.ar    1  UNL1        0.0304
     10 O           7.4618   -2.1976   27.5550 O.2     1  UNL1       -0.2685
     11 C           6.2008   -2.8052   27.0160 C.2     1  UNL1        0.2642
     12 N           5.7887   -4.1821   27.4455 N.am    1  UNL1       -0.3009
     13 H           4.9610   -4.5810   27.0918 H       1  UNL1        0.1497
     14 C           6.6376   -4.9513   28.4139 C.3     1  UNL1        0.0828
     15 C           6.8592   -4.9082   29.8968 C.3     1  UNL1        0.0863
     16 C           7.8382   -6.0390   29.7833 C.3     1  UNL1        0.2671
     17 F           8.8172   -7.1698   29.6698 F       1  UNL1       -0.2042
     18 F           8.0598   -5.9960   31.2662 F       1  UNL1       -0.2042
     19 C           7.6166   -6.0820   28.3003 C.3     1  UNL1        0.0863
     20 N           3.9190   -2.6403   20.2782 N.pl3   1  UNL1       -0.1957
     21 H           3.0312   -2.9898   20.0354 H       1  UNL1        0.2986
     22 C           4.8685   -2.1945   19.2060 C.2     1  UNL1        0.3707
     23 N           5.7903   -3.0798   18.4207 N.2     1  UNL1        0.0819
     24 N           6.5544   -2.2176   17.4602 N.2     1  UNL1       -0.0365
     25 C           6.1049   -0.7994   17.6517 C.2     1  UNL1        0.1346
     26 C           6.5098    0.4808   16.9831 C.3     1  UNL1        0.0792
     27 C           5.8726    1.7753   17.3934 C.2     1  UNL1        0.0010
     28 C           4.8307    1.7896   18.4724 C.2     1  UNL1        0.0950
     29 N           4.4259    0.5093   19.1410 N.2     1  UNL1       -0.2354
     30 C           5.0630   -0.7852   18.7307 C.2     1  UNL1        0.1834
@<TRIPOS>BOND
     1    10    11    2
     2    11    12   am
     3    12    14    1
     4    14    15    1
     5    15    16    1
     6    16    17    1
     7    16    18    1
     8    16    19    1
     9    11     1    1
    10     1     2   ar
    11     2     3   ar
    12     3     4   ar
    13     4     5   ar
    14     5     6   ar
    15     6    20    1
    16    20    22    1
    17    22    23    2
    18    23    24    1
    19    24    25    2
    20    25    26    1
    21    26    27    1
    22    27    28    2
    23    28    29    1
    24    29    30    2
    25     6     7   ar
    26     7     8   ar
    27     8     9   ar
    28    19    14    1
    29     9     1   ar
    30     9     4   ar
    31    30    22    1
    32    30    25    1
    33    12    13    1
    34    20    21    1
@<TRIPOS>MOLECULE
*****
 30 34 0 0 0
SMALL
GASTEIGER

@<TRIPOS>ATOM
      1 C           1.4631    1.0051   23.8115 C.ar    1  UNL1        0.1427
      2 N           2.4827    0.5523   24.8141 N.ar    1  UNL1       -0.2046
      3 S           3.3933   -0.4294   24.1381 S.2     1  UNL1        0.0132
      4 C           2.9365   -0.5834   22.7177 C.ar    1  UNL1        0.0524
      5 C           3.4526   -1.4163   21.5820 C.ar    1  UNL1        0.0481
      6 C           2.7758   -1.3627   20.2445 C.ar    1  UNL1        0.1363
      7 C           1.5828   -0.4762   20.0427 C.ar    1  UNL1        0.0402
      8 C           1.0666    0.3568   21.1783 C.ar    1  UNL1        0.0057
      9 C           1.7435    0.3032   22.5158 C.ar    1  UNL1        0.0304
     10 O           0.1132    3.1044   23.0900 O.2     1  UNL1       -0.2685
     11 C           0.3571    1.9873   24.0607 C.2     1  UNL1        0.2642
     12 N          -0.5051    1.8523   25.2808 N.am    1  UNL1       -0.3009
     13 H          -0.3451    1.1191   25.9180 H       1  UNL1        0.1497
     14 C          -1.6110    2.8345   25.5301 C.3     1  UNL1        0.0828
     15 C          -2.7657    3.3577   24.7281 C.3     1  UNL1        0.0863
     16 C          -3.1751    4.2236   25.8825 C.3     1  UNL1        0.2671
     17 F          -3.5844    5.0894   27.0370 F       1  UNL1       -0.2042
     18 F          -4.3297    4.7468   25.0806 F       1  UNL1       -0.2042
     19 C          -2.0204    3.7003   26.6845 C.3     1  UNL1        0.0863
     20 N           3.2919   -2.1957   19.1088 N.pl3   1  UNL1       -0.1957
     21 H           2.7892   -2.9882   18.8114 H       1  UNL1        0.2986
     22 C           4.5740   -1.8212   18.4262 C.2     1  UNL1        0.3707
     23 N           5.6244   -2.7745   17.9385 N.2     1  UNL1        0.0819
     24 N           6.7304   -1.9701   17.3224 N.2     1  UNL1       -0.0365
     25 C           6.3637   -0.5196   17.4294 C.2     1  UNL1        0.1346
     26 C           7.0710    0.7293   16.9937 C.3     1  UNL1        0.0792
     27 C           6.4457    2.0703   17.2403 C.2     1  UNL1        0.0010
     28 C           5.1130    2.1623   17.9226 C.2     1  UNL1        0.0950
     29 N           4.4056    0.9134   18.3582 N.2     1  UNL1       -0.2354
     30 C           5.0310   -0.4276   18.1116 C.2     1  UNL1        0.1834
@<TRIPOS>BOND
     1    10    11    2
     2    11    12   am
     3    12    14    1
     4    14    15    1
     5    15    16    1
     6    16    17    1
     7    16    18    1
     8    16    19    1
     9    11     1    1
    10     1     2   ar
    11     2     3   ar
    12     3     4   ar
    13     4     5   ar
    14     5     6   ar
    15     6    20    1
    16    20    22    1
    17    22    23    2
    18    23    24    1
    19    24    25    2
    20    25    26    1
    21    26    27    1
    22    27    28    2
    23    28    29    1
    24    29    30    2
    25     6     7   ar
    26     7     8   ar
    27     8     9   ar
    28    19    14    1
    29     9     1   ar
    30     9     4   ar
    31    30    22    1
    32    30    25    1
    33    12    13    1
    34    20    21    1
@<TRIPOS>MOLECULE
*****
 30 34 0 0 0
SMALL
GASTEIGER

@<TRIPOS>ATOM
      1 C         -15.2601   -3.8635   19.4843 C.ar    1  UNL1        0.1427
      2 N         -16.6730   -4.2728   19.7779 N.ar    1  UNL1       -0.2046
      3 S         -17.5401   -3.0534   19.6729 S.2     1  UNL1        0.0132
      4 C         -16.6632   -1.8904   19.3144 C.ar    1  UNL1        0.0524
      5 C         -16.9658   -0.4403   19.0790 C.ar    1  UNL1        0.0481
      6 C         -15.8592    0.5092   18.7270 C.ar    1  UNL1        0.1363
      7 C         -14.4500    0.0085   18.6104 C.ar    1  UNL1        0.0402
      8 C         -14.1475   -1.4417   18.8458 C.ar    1  UNL1        0.0057
      9 C         -15.2541   -2.3911   19.1978 C.ar    1  UNL1        0.0304
     10 O         -13.5754   -5.3748   20.7600 O.2     1  UNL1       -0.2685
     11 C         -14.0634   -4.7678   19.4782 C.2     1  UNL1        0.2642
     12 N         -13.3545   -5.0651   18.1900 N.am    1  UNL1       -0.3009
     13 H         -13.6748   -4.6668   17.3486 H       1  UNL1        0.1497
     14 C         -12.1578   -5.9694   18.1839 C.3     1  UNL1        0.0828
     15 C         -10.7983   -5.9340   18.8169 C.3     1  UNL1        0.0863
     16 C         -10.4653   -7.2483   18.1753 C.3     1  UNL1        0.2671
     17 F         -10.1324   -8.5626   17.5336 F       1  UNL1       -0.2042
     18 F          -9.1059   -7.2129   18.8082 F       1  UNL1       -0.2042
     19 C         -11.8249   -7.2837   17.5423 C.3     1  UNL1        0.0863
     20 N         -16.1617    1.9594   18.4916 N.pl3   1  UNL1       -0.1957
     21 H         -16.6273    2.2382   17.6702 H       1  UNL1        0.2986
     22 C         -15.7549    2.9850   19.5079 C.2     1  UNL1        0.3707
     23 N         -14.8231    4.1369   19.2737 N.2     1  UNL1        0.0819
     24 N         -14.7007    4.9026   20.5578 N.2     1  UNL1       -0.0365
     25 C         -15.5569    4.2238   21.5856 C.2     1  UNL1        0.1346
     26 C         -15.8274    4.5317   23.0285 C.3     1  UNL1        0.0792
     27 C         -16.7494    3.6545   23.8224 C.2     1  UNL1        0.0010
     28 C         -17.4009    2.4694   23.1735 C.2     1  UNL1        0.0950
     29 N         -17.1304    2.1615   21.7306 N.2     1  UNL1       -0.2354
     30 C         -16.2083    3.0387   20.9366 C.2     1  UNL1        0.1834
@<TRIPOS>BOND
     1    10    11    2
     2    11    12   am
     3    12    14    1
     4    14    15    1
     5    15    16    1
     6    16    17    1
     7    16    18    1
     8    16    19    1
     9    11     1    1
    10     1     2   ar
    11     2     3   ar
    12     3     4   ar
    13     4     5   ar
    14     5     6   ar
    15     6    20    1
    16    20    22    1
    17    22    23    2
    18    23    24    1
    19    24    25    2
    20    25    26    1
    21    26    27    1
    22    27    28    2
    23    28    29    1
    24    29    30    2
    25     6     7   ar
    26     7     8   ar
    27     8     9   ar
    28    19    14    1
    29     9     1   ar
    30     9     4   ar
    31    30    22    1
    32    30    25    1
    33    12    13    1
    34    20    21    1
