@<TRIPOS>MOLECULE
*****
 31 33 0 0 0
SMALL
GASTEIGER

@<TRIPOS>ATOM
      1 N          -8.8431  -18.2135   22.7014 N.am    1  UNL1       -0.2916
      2 C          -7.8039  -19.2921   22.6201 C.2     1  UNL1        0.2462
      3 O          -8.1565  -20.7026   22.9889 O.2     1  UNL1       -0.2701
      4 H          -8.6117  -17.2877   22.4593 H       1  UNL1        0.1502
      5 C          -6.4120  -18.9601   22.1699 C.ar    1  UNL1        0.0534
      6 C          -5.9147  -19.4544   20.8439 C.ar    1  UNL1        0.0045
      7 C          -4.5229  -19.1224   20.3938 C.ar    1  UNL1        0.0002
      8 C          -3.6284  -18.2963   21.2697 C.ar    1  UNL1        0.0022
      9 C          -4.1257  -17.8021   22.5958 C.ar    1  UNL1        0.0002
     10 C          -5.5175  -18.1340   23.0459 C.ar    1  UNL1        0.0045
     11 C          -2.2365  -17.9644   20.8196 C.ar    1  UNL1        0.0275
     12 C          -1.4202  -18.9889   20.0889 C.ar    1  UNL1        0.0022
     13 C          -0.0283  -18.6570   19.6388 C.ar    1  UNL1        0.0001
     14 C           0.5472  -17.3005   19.9193 C.ar    1  UNL1        0.0023
     15 C          -0.2692  -16.2759   20.6501 C.ar    1  UNL1        0.0296
     16 C          -1.6610  -16.6079   21.1002 C.ar    1  UNL1        0.1401
     17 F          -2.4774  -15.5833   21.8309 F       1  UNL1       -0.2042
     18 C         -10.2350  -18.5454   23.1515 C.3     1  UNL1        0.1963
     19 C         -10.5347  -18.6951   24.6136 C.2     1  UNL1        0.3371
     20 O         -11.9472  -18.9070   25.0718 O.2     1  UNL1       -0.2482
     21 O          -9.4219  -18.6329   25.6175 O.3     1  UNL1       -0.4473
     22 C          -9.3370  -17.4795   26.5727 C.3     1  UNL1        0.2084
     23 C          -7.3282  -15.9804   27.2563 C.3     1  UNL1        0.0038
     24 C          -8.4143  -16.3327   26.2836 C.3     1  UNL1        0.0439
     25 C          -8.5778  -15.5382   25.0218 C.3     1  UNL1        0.0038
     26 C         -11.3271  -18.7276   22.1396 C.3     1  UNL1        0.1602
     27 N         -11.6250  -17.6375   21.1532 N.ar    1  UNL1       -0.2278
     28 C         -12.8990  -16.8504   21.0670 C.ar    1  UNL1        0.1973
     29 N         -12.7627  -15.8696   19.9404 N.ar    1  UNL1       -0.2007
     30 C         -11.4043  -16.0505   19.3303 C.ar    1  UNL1        0.2210
     31 N         -10.7012  -17.1431   20.0798 N.ar    1  UNL1       -0.1451
@<TRIPOS>BOND
     1    23    24    1
     2    24    25    1
     3    24    22    1
     4    22    21    1
     5    21    19    1
     6    19    20    2
     7    19    18    1
     8    18    26    1
     9    26    27    1
    10    27    28   ar
    11    28    29   ar
    12    29    30   ar
    13    30    31   ar
    14    18     1    1
    15     1     2   am
    16     2     3    2
    17     2     5    1
    18     5     6   ar
    19     6     7   ar
    20     7     8   ar
    21     8    11    1
    22    11    12   ar
    23    12    13   ar
    24    13    14   ar
    25    14    15   ar
    26    15    16   ar
    27    16    17    1
    28     8     9   ar
    29     9    10   ar
    30    31    27   ar
    31    10     5   ar
    32    16    11   ar
    33     1     4    1
@<TRIPOS>MOLECULE
*****
 31 33 0 0 0
SMALL
GASTEIGER

@<TRIPOS>ATOM
      1 N          -8.9510  -18.2935   22.7117 N.am    1  UNL1       -0.2916
      2 C          -7.9256  -19.3865   22.6506 C.2     1  UNL1        0.2462
      3 O          -8.2353  -20.7382   23.2225 O.2     1  UNL1       -0.2701
      4 H          -8.7478  -17.4063   22.3364 H       1  UNL1        0.1502
      5 C          -6.5905  -19.1279   22.0176 C.ar    1  UNL1        0.0534
      6 C          -5.5563  -18.3252   22.7497 C.ar    1  UNL1        0.0045
      7 C          -4.2212  -18.0666   22.1167 C.ar    1  UNL1        0.0002
      8 C          -3.9204  -18.6107   20.7516 C.ar    1  UNL1        0.0022
      9 C          -4.9547  -19.4135   20.0195 C.ar    1  UNL1        0.0002
     10 C          -6.2897  -19.6720   20.6526 C.ar    1  UNL1        0.0045
     11 C          -2.5853  -18.3521   20.1186 C.ar    1  UNL1        0.0275
     12 C          -2.5014  -17.9948   18.6642 C.ar    1  UNL1        0.0022
     13 C          -1.1663  -17.7362   18.0312 C.ar    1  UNL1        0.0001
     14 C           0.0849  -17.8349   18.8527 C.ar    1  UNL1        0.0023
     15 C           0.0010  -18.1923   20.3071 C.ar    1  UNL1        0.0296
     16 C          -1.3341  -18.4508   20.9400 C.ar    1  UNL1        0.1401
     17 F          -1.4180  -18.8082   22.3945 F       1  UNL1       -0.2042
     18 C         -10.2862  -18.5521   23.3448 C.3     1  UNL1        0.1963
     19 C         -11.4008  -19.1395   22.5309 C.2     1  UNL1        0.3371
     20 O         -11.3430  -20.5774   22.1073 O.2     1  UNL1       -0.2482
     21 O         -12.5733  -18.2892   22.1406 O.3     1  UNL1       -0.4473
     22 C         -12.3509  -16.9776   21.4478 C.3     1  UNL1        0.2084
     23 C         -10.9059  -18.1559   19.6386 C.3     1  UNL1        0.0038
     24 C         -11.6201  -16.9353   20.1386 C.3     1  UNL1        0.0439
     25 C         -11.6035  -15.6724   19.3293 C.3     1  UNL1        0.0038
     26 C         -10.5065  -18.2232   24.7915 C.3     1  UNL1        0.1602
     27 N          -9.5622  -17.3002   25.5031 N.ar    1  UNL1       -0.2278
     28 C          -9.0676  -17.4583   26.9104 C.ar    1  UNL1        0.1973
     29 N          -8.1464  -16.3129   27.2094 N.ar    1  UNL1       -0.2007
     30 C          -8.0717  -15.4469   25.9869 C.ar    1  UNL1        0.2210
     31 N          -8.9468  -16.0571   24.9324 N.ar    1  UNL1       -0.1451
@<TRIPOS>BOND
     1    23    24    1
     2    24    25    1
     3    24    22    1
     4    22    21    1
     5    21    19    1
     6    19    20    2
     7    19    18    1
     8    18    26    1
     9    26    27    1
    10    27    28   ar
    11    28    29   ar
    12    29    30   ar
    13    30    31   ar
    14    18     1    1
    15     1     2   am
    16     2     3    2
    17     2     5    1
    18     5     6   ar
    19     6     7   ar
    20     7     8   ar
    21     8    11    1
    22    11    12   ar
    23    12    13   ar
    24    13    14   ar
    25    14    15   ar
    26    15    16   ar
    27    16    17    1
    28     8     9   ar
    29     9    10   ar
    30    31    27   ar
    31    10     5   ar
    32    16    11   ar
    33     1     4    1
@<TRIPOS>MOLECULE
*****
 31 33 0 0 0
SMALL
GASTEIGER

@<TRIPOS>ATOM
      1 N           2.9551   -0.9094   27.7247 N.am    1  UNL1       -0.2916
      2 C           3.2586   -0.0665   26.5218 C.2     1  UNL1        0.2462
      3 O           3.3022    1.4279   26.6447 O.2     1  UNL1       -0.2701
      4 H           2.9265   -1.8902   27.6440 H       1  UNL1        0.1502
      5 C           3.5187   -0.7178   25.1958 C.ar    1  UNL1        0.0534
      6 C           2.7453   -0.2881   23.9846 C.ar    1  UNL1        0.0045
      7 C           3.0054   -0.9394   22.6587 C.ar    1  UNL1        0.0002
      8 C           4.0389   -2.0205   22.5440 C.ar    1  UNL1        0.0022
      9 C           4.8124   -2.4501   23.7552 C.ar    1  UNL1        0.0002
     10 C           4.5523   -1.7988   25.0811 C.ar    1  UNL1        0.0045
     11 C           4.2990   -2.6718   21.2180 C.ar    1  UNL1        0.0275
     12 C           3.9542   -4.1169   21.0117 C.ar    1  UNL1        0.0022
     13 C           4.2143   -4.7683   19.6857 C.ar    1  UNL1        0.0001
     14 C           4.8192   -3.9744   18.5660 C.ar    1  UNL1        0.0023
     15 C           5.1641   -2.5292   18.7723 C.ar    1  UNL1        0.0296
     16 C           4.9040   -1.8779   20.0983 C.ar    1  UNL1        0.1401
     17 F           5.2489   -0.4327   20.3045 F       1  UNL1       -0.2042
     18 C           2.6950   -0.2581   29.0507 C.3     1  UNL1        0.1963
     19 C           1.2892    0.0560   29.4691 C.2     1  UNL1        0.3371
     20 O           1.0388    0.8912   30.6898 O.2     1  UNL1       -0.2482
     21 O           0.1338   -0.4651   28.6670 O.3     1  UNL1       -0.4473
     22 C          -0.8716    0.4887   28.0930 C.3     1  UNL1        0.2084
     23 C          -0.1399    1.2515   25.7196 C.3     1  UNL1        0.0038
     24 C          -0.4272    1.5728   27.1563 C.3     1  UNL1        0.0439
     25 C          -0.2702    2.9783   27.6564 C.3     1  UNL1        0.0038
     26 C           3.8407    0.0791   29.9583 C.3     1  UNL1        0.1602
     27 N           4.0537   -0.7039   31.2198 N.ar    1  UNL1       -0.2278
     28 C           3.5510   -0.3327   32.5834 C.ar    1  UNL1        0.1973
     29 N           3.9935   -1.3949   33.5456 N.ar    1  UNL1       -0.2007
     30 C           4.7696   -2.4227   32.7766 C.ar    1  UNL1        0.2210
     31 N           4.8068   -1.9956   31.3391 N.ar    1  UNL1       -0.1451
@<TRIPOS>BOND
     1    23    24    1
     2    24    25    1
     3    24    22    1
     4    22    21    1
     5    21    19    1
     6    19    20    2
     7    19    18    1
     8    18    26    1
     9    26    27    1
    10    27    28   ar
    11    28    29   ar
    12    29    30   ar
    13    30    31   ar
    14    18     1    1
    15     1     2   am
    16     2     3    2
    17     2     5    1
    18     5     6   ar
    19     6     7   ar
    20     7     8   ar
    21     8    11    1
    22    11    12   ar
    23    12    13   ar
    24    13    14   ar
    25    14    15   ar
    26    15    16   ar
    27    16    17    1
    28     8     9   ar
    29     9    10   ar
    30    31    27   ar
    31    10     5   ar
    32    16    11   ar
    33     1     4    1
@<TRIPOS>MOLECULE
*****
 31 33 0 0 0
SMALL
GASTEIGER

@<TRIPOS>ATOM
      1 N          -5.6883  -18.5800   22.8250 N.am    1  UNL1       -0.2916
      2 C          -6.8187  -18.3986   21.8559 C.2     1  UNL1        0.2462
      3 O          -6.5318  -18.2102   20.3956 O.2     1  UNL1       -0.2701
      4 H          -5.8766  -18.7036   23.7834 H       1  UNL1        0.1502
      5 C          -8.2361  -18.4055   22.3469 C.ar    1  UNL1        0.0534
      6 C          -9.0500  -17.1462   22.3066 C.ar    1  UNL1        0.0045
      7 C         -10.4673  -17.1532   22.7977 C.ar    1  UNL1        0.0002
      8 C         -11.0706  -18.4195   23.3291 C.ar    1  UNL1        0.0022
      9 C         -10.2567  -19.6788   23.3694 C.ar    1  UNL1        0.0002
     10 C          -8.8394  -19.6718   22.8783 C.ar    1  UNL1        0.0045
     11 C         -12.4880  -18.4265   23.8201 C.ar    1  UNL1        0.0275
     12 C         -12.7763  -18.6450   25.2758 C.ar    1  UNL1        0.0022
     13 C         -14.1937  -18.6519   25.7669 C.ar    1  UNL1        0.0001
     14 C         -15.3227  -18.4404   24.8022 C.ar    1  UNL1        0.0023
     15 C         -15.0343  -18.2220   23.3465 C.ar    1  UNL1        0.0296
     16 C         -13.6170  -18.2150   22.8554 C.ar    1  UNL1        0.1401
     17 F         -13.3286  -17.9965   21.3997 F       1  UNL1       -0.2042
     18 C          -4.2709  -18.5730   22.3339 C.3     1  UNL1        0.1963
     19 C          -3.2245  -17.7940   23.0743 C.2     1  UNL1        0.3371
     20 O          -1.7731  -18.1268   22.8927 O.2     1  UNL1       -0.2482
     21 O          -3.6293  -16.6822   23.9962 O.3     1  UNL1       -0.4473
     22 C          -4.7783  -15.7884   23.6341 C.3     1  UNL1        0.2084
     23 C          -5.4568  -15.5258   26.1282 C.3     1  UNL1        0.0038
     24 C          -5.7971  -15.4193   24.6712 C.3     1  UNL1        0.0439
     25 C          -7.1563  -14.9435   24.2513 C.3     1  UNL1        0.0038
     26 C          -3.9000  -19.3450   21.1025 C.3     1  UNL1        0.1602
     27 N          -3.0112  -18.7229   20.0667 N.ar    1  UNL1       -0.2278
     28 C          -1.5394  -18.9648   19.9076 C.ar    1  UNL1        0.1973
     29 N          -1.0566  -18.1411   18.7507 N.ar    1  UNL1       -0.2007
     30 C          -2.2301  -17.3902   18.1948 C.ar    1  UNL1        0.2210
     31 N          -3.4381  -17.7497   19.0081 N.ar    1  UNL1       -0.1451
@<TRIPOS>BOND
     1    23    24    1
     2    24    25    1
     3    24    22    1
     4    22    21    1
     5    21    19    1
     6    19    20    2
     7    19    18    1
     8    18    26    1
     9    26    27    1
    10    27    28   ar
    11    28    29   ar
    12    29    30   ar
    13    30    31   ar
    14    18     1    1
    15     1     2   am
    16     2     3    2
    17     2     5    1
    18     5     6   ar
    19     6     7   ar
    20     7     8   ar
    21     8    11    1
    22    11    12   ar
    23    12    13   ar
    24    13    14   ar
    25    14    15   ar
    26    15    16   ar
    27    16    17    1
    28     8     9   ar
    29     9    10   ar
    30    31    27   ar
    31    10     5   ar
    32    16    11   ar
    33     1     4    1
@<TRIPOS>MOLECULE
*****
 31 33 0 0 0
SMALL
GASTEIGER

@<TRIPOS>ATOM
      1 N          -2.2266    2.4496   20.6005 N.am    1  UNL1       -0.2916
      2 C          -0.7649    2.7612   20.7278 C.2     1  UNL1        0.2462
      3 O          -0.3254    4.0991   21.2442 O.2     1  UNL1       -0.2701
      4 H          -2.5150    1.5714   20.2615 H       1  UNL1        0.1502
      5 C           0.2575    1.7347   20.3387 C.ar    1  UNL1        0.0534
      6 C           0.7011    1.6220   18.9102 C.ar    1  UNL1        0.0045
      7 C           1.7234    0.5956   18.5212 C.ar    1  UNL1        0.0002
      8 C           2.3021   -0.3180   19.5606 C.ar    1  UNL1        0.0022
      9 C           1.8585   -0.2053   20.9890 C.ar    1  UNL1        0.0002
     10 C           0.8362    0.8211   21.3781 C.ar    1  UNL1        0.0045
     11 C           3.3245   -1.3444   19.1714 C.ar    1  UNL1        0.0275
     12 C           3.1197   -2.7840   19.5397 C.ar    1  UNL1        0.0022
     13 C           4.1421   -3.8104   19.1505 C.ar    1  UNL1        0.0001
     14 C           5.3691   -3.3972   18.3932 C.ar    1  UNL1        0.0023
     15 C           5.5738   -1.9575   18.0250 C.ar    1  UNL1        0.0296
     16 C           4.5515   -0.9312   18.4141 C.ar    1  UNL1        0.1401
     17 F           4.7562    0.5085   18.0459 F       1  UNL1       -0.2042
     18 C          -3.2489    3.4760   20.9896 C.3     1  UNL1        0.1963
     19 C          -3.7030    3.5792   22.4155 C.2     1  UNL1        0.3371
     20 O          -4.9730    2.9087   22.8486 O.2     1  UNL1       -0.2482
     21 O          -2.8871    4.3529   23.4083 O.3     1  UNL1       -0.4473
     22 C          -2.0061    3.6281   24.3822 C.3     1  UNL1        0.2084
     23 C          -3.8335    3.8522   26.2152 C.3     1  UNL1        0.0038
     24 C          -2.4484    3.4491   25.8043 C.3     1  UNL1        0.0439
     25 C          -1.5056    2.8670   26.8154 C.3     1  UNL1        0.0038
     26 C          -3.8172    4.3991   19.9528 C.3     1  UNL1        0.1602
     27 N          -3.5680    4.1363   18.4972 N.ar    1  UNL1       -0.2278
     28 C          -4.6033    3.7579   17.4798 C.ar    1  UNL1        0.1973
     29 N          -3.9150    3.5934   16.1572 N.ar    1  UNL1       -0.2007
     30 C          -2.4543    3.8702   16.3573 C.ar    1  UNL1        0.2210
     31 N          -2.2400    4.2057   17.8035 N.ar    1  UNL1       -0.1451
@<TRIPOS>BOND
     1    23    24    1
     2    24    25    1
     3    24    22    1
     4    22    21    1
     5    21    19    1
     6    19    20    2
     7    19    18    1
     8    18    26    1
     9    26    27    1
    10    27    28   ar
    11    28    29   ar
    12    29    30   ar
    13    30    31   ar
    14    18     1    1
    15     1     2   am
    16     2     3    2
    17     2     5    1
    18     5     6   ar
    19     6     7   ar
    20     7     8   ar
    21     8    11    1
    22    11    12   ar
    23    12    13   ar
    24    13    14   ar
    25    14    15   ar
    26    15    16   ar
    27    16    17    1
    28     8     9   ar
    29     9    10   ar
    30    31    27   ar
    31    10     5   ar
    32    16    11   ar
    33     1     4    1
@<TRIPOS>MOLECULE
*****
 31 33 0 0 0
SMALL
GASTEIGER

@<TRIPOS>ATOM
      1 N           2.5709   -1.0662   27.6181 N.am    1  UNL1       -0.2916
      2 C           3.1501   -0.1428   26.5876 C.2     1  UNL1        0.2462
      3 O           3.3958    1.2980   26.9251 O.2     1  UNL1       -0.2701
      4 H           2.4096   -2.0118   27.3966 H       1  UNL1        0.1502
      5 C           3.4836   -0.6601   25.2197 C.ar    1  UNL1        0.0534
      6 C           4.6175   -1.6252   25.0386 C.ar    1  UNL1        0.0045
      7 C           4.9509   -2.1424   23.6707 C.ar    1  UNL1        0.0002
      8 C           4.1504   -1.6946   22.4839 C.ar    1  UNL1        0.0022
      9 C           3.0165   -0.7295   22.6649 C.ar    1  UNL1        0.0002
     10 C           2.6831   -0.2123   24.0328 C.ar    1  UNL1        0.0045
     11 C           4.4839   -2.2119   21.1159 C.ar    1  UNL1        0.0275
     12 C           4.8886   -1.2580   20.0314 C.ar    1  UNL1        0.0022
     13 C           5.2221   -1.7753   18.6634 C.ar    1  UNL1        0.0001
     14 C           5.1508   -3.2466   18.3800 C.ar    1  UNL1        0.0023
     15 C           4.7461   -4.2005   19.4646 C.ar    1  UNL1        0.0296
     16 C           4.4126   -3.6832   20.8325 C.ar    1  UNL1        0.1401
     17 F           4.0078   -4.6371   21.9171 F       1  UNL1       -0.2042
     18 C           2.2374   -0.5489   28.9860 C.3     1  UNL1        0.1963
     19 C           3.2422   -0.6576   30.0945 C.2     1  UNL1        0.3371
     20 O           4.7064   -0.5302   29.7946 O.2     1  UNL1       -0.2482
     21 O           2.7828   -0.8937   31.5027 O.3     1  UNL1       -0.4473
     22 C           3.5368   -0.2878   32.6491 C.3     1  UNL1        0.2084
     23 C           5.3462   -0.5047   34.5008 C.3     1  UNL1        0.0038
     24 C           4.4468   -1.1405   33.4826 C.3     1  UNL1        0.0439
     25 C           4.4574   -2.6291   33.2978 C.3     1  UNL1        0.0038
     26 C           0.8993    0.0771   29.2455 C.3     1  UNL1        0.1602
     27 N           0.8140    1.4048   29.9382 N.ar    1  UNL1       -0.2278
     28 C           1.0832    2.7429   29.3160 C.ar    1  UNL1        0.1973
     29 N           0.8802    3.7926   30.3680 N.ar    1  UNL1       -0.2007
     30 C           0.4856    3.1033   31.6405 C.ar    1  UNL1        0.2210
     31 N           0.4447    1.6276   31.3748 N.ar    1  UNL1       -0.1451
@<TRIPOS>BOND
     1    23    24    1
     2    24    25    1
     3    24    22    1
     4    22    21    1
     5    21    19    1
     6    19    20    2
     7    19    18    1
     8    18    26    1
     9    26    27    1
    10    27    28   ar
    11    28    29   ar
    12    29    30   ar
    13    30    31   ar
    14    18     1    1
    15     1     2   am
    16     2     3    2
    17     2     5    1
    18     5     6   ar
    19     6     7   ar
    20     7     8   ar
    21     8    11    1
    22    11    12   ar
    23    12    13   ar
    24    13    14   ar
    25    14    15   ar
    26    15    16   ar
    27    16    17    1
    28     8     9   ar
    29     9    10   ar
    30    31    27   ar
    31    10     5   ar
    32    16    11   ar
    33     1     4    1
@<TRIPOS>MOLECULE
*****
 31 33 0 0 0
SMALL
GASTEIGER

@<TRIPOS>ATOM
      1 N           0.1368    0.6970   25.6435 N.am    1  UNL1       -0.2916
      2 C           1.5280    1.0615   25.2173 C.2     1  UNL1        0.2462
      3 O           2.2829    2.1281   25.9538 O.2     1  UNL1       -0.2701
      4 H          -0.3587   -0.0030   25.1601 H       1  UNL1        0.1502
      5 C           2.1643    0.3594   24.0544 C.ar    1  UNL1        0.0534
      6 C           1.7487    0.7000   22.6539 C.ar    1  UNL1        0.0045
      7 C           2.3850   -0.0021   21.4911 C.ar    1  UNL1        0.0002
      8 C           3.4369   -1.0447   21.7287 C.ar    1  UNL1        0.0022
      9 C           3.8525   -1.3853   23.1292 C.ar    1  UNL1        0.0002
     10 C           3.2162   -0.6832   24.2920 C.ar    1  UNL1        0.0045
     11 C           4.0732   -1.7468   20.5658 C.ar    1  UNL1        0.0275
     12 C           3.4878   -3.0287   20.0521 C.ar    1  UNL1        0.0022
     13 C           4.1241   -3.7308   18.8892 C.ar    1  UNL1        0.0001
     14 C           5.3458   -3.1509   18.2401 C.ar    1  UNL1        0.0023
     15 C           5.9311   -1.8689   18.7539 C.ar    1  UNL1        0.0296
     16 C           5.2948   -1.1669   19.9168 C.ar    1  UNL1        0.1401
     17 F           5.8801    0.1151   20.4306 F       1  UNL1       -0.2042
     18 C          -0.4995    1.3991   26.8065 C.3     1  UNL1        0.1963
     19 C          -0.5144    0.7491   28.1582 C.2     1  UNL1        0.3371
     20 O          -1.3138   -0.5006   28.3807 O.2     1  UNL1       -0.2482
     21 O           0.2702    1.3485   29.2874 O.3     1  UNL1       -0.4473
     22 C           1.7679    1.2663   29.2868 C.3     1  UNL1        0.2084
     23 C           2.8553   -0.7943   28.1373 C.3     1  UNL1        0.0038
     24 C           2.4458   -0.0681   29.3843 C.3     1  UNL1        0.0439
     25 C           2.7143   -0.6765   30.7289 C.3     1  UNL1        0.0038
     26 C          -1.1209    2.7512   26.6176 C.3     1  UNL1        0.1602
     27 N          -1.6846    3.1376   25.2824 N.ar    1  UNL1       -0.2278
     28 C          -3.1080    3.5197   25.0034 C.ar    1  UNL1        0.1973
     29 N          -3.2270    3.8280   23.5402 N.ar    1  UNL1       -0.2007
     30 C          -1.8770    3.6365   22.9150 C.ar    1  UNL1        0.2210
     31 N          -0.9238    3.2098   23.9916 N.ar    1  UNL1       -0.1451
@<TRIPOS>BOND
     1    23    24    1
     2    24    25    1
     3    24    22    1
     4    22    21    1
     5    21    19    1
     6    19    20    2
     7    19    18    1
     8    18    26    1
     9    26    27    1
    10    27    28   ar
    11    28    29   ar
    12    29    30   ar
    13    30    31   ar
    14    18     1    1
    15     1     2   am
    16     2     3    2
    17     2     5    1
    18     5     6   ar
    19     6     7   ar
    20     7     8   ar
    21     8    11    1
    22    11    12   ar
    23    12    13   ar
    24    13    14   ar
    25    14    15   ar
    26    15    16   ar
    27    16    17    1
    28     8     9   ar
    29     9    10   ar
    30    31    27   ar
    31    10     5   ar
    32    16    11   ar
    33     1     4    1
@<TRIPOS>MOLECULE
*****
 31 33 0 0 0
SMALL
GASTEIGER

@<TRIPOS>ATOM
      1 N          -1.7465    2.5148   20.8527 N.am    1  UNL1       -0.2916
      2 C          -0.3162    2.6618   21.2800 C.2     1  UNL1        0.2462
      3 O           0.1329    3.9101   21.9799 O.2     1  UNL1       -0.2701
      4 H          -2.0413    1.6954   20.3933 H       1  UNL1        0.1502
      5 C           0.6650    1.5604   21.0073 C.ar    1  UNL1        0.0534
      6 C           2.1057    1.7278   21.3898 C.ar    1  UNL1        0.0045
      7 C           3.0868    0.6265   21.1171 C.ar    1  UNL1        0.0002
      8 C           2.6273   -0.6422   20.4620 C.ar    1  UNL1        0.0022
      9 C           1.1866   -0.8096   20.0795 C.ar    1  UNL1        0.0002
     10 C           0.2054    0.2917   20.3522 C.ar    1  UNL1        0.0045
     11 C           3.6085   -1.7436   20.1893 C.ar    1  UNL1        0.0275
     12 C           4.1455   -2.5671   21.3222 C.ar    1  UNL1        0.0022
     13 C           5.1268   -3.6684   21.0495 C.ar    1  UNL1        0.0001
     14 C           5.5709   -3.9462   19.6440 C.ar    1  UNL1        0.0023
     15 C           5.0339   -3.1226   18.5111 C.ar    1  UNL1        0.0296
     16 C           4.0527   -2.0213   18.7838 C.ar    1  UNL1        0.1401
     17 F           3.5156   -1.1977   17.6509 F       1  UNL1       -0.2042
     18 C          -2.7278    3.6161   21.1254 C.3     1  UNL1        0.1963
     19 C          -3.4374    3.6786   22.4454 C.2     1  UNL1        0.3371
     20 O          -2.7732    4.3264   23.6241 O.2     1  UNL1       -0.2482
     21 O          -4.8112    3.0932   22.5868 O.3     1  UNL1       -0.4473
     22 C          -6.0145    3.9883   22.5579 C.3     1  UNL1        0.2084
     23 C          -5.8739    4.4637   25.1083 C.3     1  UNL1        0.0038
     24 C          -6.6735    4.4006   23.8407 C.3     1  UNL1        0.0439
     25 C          -8.1323    4.7498   23.8561 C.3     1  UNL1        0.0038
     26 C          -2.9993    4.6550   20.0780 C.3     1  UNL1        0.1602
     27 N          -2.9590    4.2837   18.6253 N.ar    1  UNL1       -0.2278
     28 C          -4.1474    4.0080   17.7524 C.ar    1  UNL1        0.1973
     29 N          -3.6461    3.6768   16.3780 N.ar    1  UNL1       -0.2007
     30 C          -2.1480    3.7479   16.4014 C.ar    1  UNL1        0.2210
     31 N          -1.7234    4.1230   17.7903 N.ar    1  UNL1       -0.1451
@<TRIPOS>BOND
     1    23    24    1
     2    24    25    1
     3    24    22    1
     4    22    21    1
     5    21    19    1
     6    19    20    2
     7    19    18    1
     8    18    26    1
     9    26    27    1
    10    27    28   ar
    11    28    29   ar
    12    29    30   ar
    13    30    31   ar
    14    18     1    1
    15     1     2   am
    16     2     3    2
    17     2     5    1
    18     5     6   ar
    19     6     7   ar
    20     7     8   ar
    21     8    11    1
    22    11    12   ar
    23    12    13   ar
    24    13    14   ar
    25    14    15   ar
    26    15    16   ar
    27    16    17    1
    28     8     9   ar
    29     9    10   ar
    30    31    27   ar
    31    10     5   ar
    32    16    11   ar
    33     1     4    1
@<TRIPOS>MOLECULE
*****
 31 33 0 0 0
SMALL
GASTEIGER

@<TRIPOS>ATOM
      1 N          -2.2938    2.6614   20.7369 N.am    1  UNL1       -0.2916
      2 C          -0.8736    2.7697   21.2072 C.2     1  UNL1        0.2462
      3 O          -0.4806    3.8578   22.1619 O.2     1  UNL1       -0.2701
      4 H          -2.5518    1.9473   20.1103 H       1  UNL1        0.1502
      5 C           0.1536    1.7897   20.7228 C.ar    1  UNL1        0.0534
      6 C           0.4491    1.6762   19.2566 C.ar    1  UNL1        0.0045
      7 C           1.4763    0.6963   18.7723 C.ar    1  UNL1        0.0002
      8 C           2.2080   -0.1701   19.7541 C.ar    1  UNL1        0.0022
      9 C           1.9125   -0.0566   21.2203 C.ar    1  UNL1        0.0002
     10 C           0.8853    0.9233   21.7046 C.ar    1  UNL1        0.0045
     11 C           3.2352   -1.1500   19.2697 C.ar    1  UNL1        0.0275
     12 C           3.1142   -2.6017   19.6273 C.ar    1  UNL1        0.0022
     13 C           4.1414   -3.5817   19.1428 C.ar    1  UNL1        0.0001
     14 C           5.2897   -3.1098   18.3009 C.ar    1  UNL1        0.0023
     15 C           5.4107   -1.6580   17.9434 C.ar    1  UNL1        0.0296
     16 C           4.3835   -0.6782   18.4278 C.ar    1  UNL1        0.1401
     17 F           4.5045    0.7736   18.0702 F       1  UNL1       -0.2042
     18 C          -3.3211    3.6414   21.2213 C.3     1  UNL1        0.1963
     19 C          -3.2767    5.0664   20.7551 C.2     1  UNL1        0.3371
     20 O          -2.9074    6.1584   21.7149 O.2     1  UNL1       -0.2482
     21 O          -3.6016    5.3994   19.3291 O.3     1  UNL1       -0.4473
     22 C          -4.1720    4.3476   18.4244 C.3     1  UNL1        0.2084
     23 C          -6.4992    3.2757   18.8547 C.3     1  UNL1        0.0038
     24 C          -5.6488    4.3014   18.1657 C.3     1  UNL1        0.0439
     25 C          -6.2752    5.2810   17.2180 C.3     1  UNL1        0.0038
     26 C          -4.3926    3.1963   22.1719 C.3     1  UNL1        0.1602
     27 N          -4.2361    3.4365   23.6442 N.ar    1  UNL1       -0.2278
     28 C          -5.3493    3.6601   24.6243 C.ar    1  UNL1        0.1973
     29 N          -4.7401    3.8571   25.9808 N.ar    1  UNL1       -0.2007
     30 C          -3.2502    3.7552   25.8390 C.ar    1  UNL1        0.2210
     31 N          -2.9388    3.4953   24.3949 N.ar    1  UNL1       -0.1451
@<TRIPOS>BOND
     1    23    24    1
     2    24    25    1
     3    24    22    1
     4    22    21    1
     5    21    19    1
     6    19    20    2
     7    19    18    1
     8    18    26    1
     9    26    27    1
    10    27    28   ar
    11    28    29   ar
    12    29    30   ar
    13    30    31   ar
    14    18     1    1
    15     1     2   am
    16     2     3    2
    17     2     5    1
    18     5     6   ar
    19     6     7   ar
    20     7     8   ar
    21     8    11    1
    22    11    12   ar
    23    12    13   ar
    24    13    14   ar
    25    14    15   ar
    26    15    16   ar
    27    16    17    1
    28     8     9   ar
    29     9    10   ar
    30    31    27   ar
    31    10     5   ar
    32    16    11   ar
    33     1     4    1
