@<TRIPOS>MOLECULE
*****
 31 34 0 0 0
SMALL
GASTEIGER

@<TRIPOS>ATOM
      1 C          -6.5195  -19.8838   20.5861 C.3     1  UNL1        0.0071
      2 C          -7.1935  -20.1272   21.9038 C.3     1  UNL1        0.0177
      3 C          -8.6890  -20.0667   22.0038 C.3     1  UNL1        0.0721
      4 N          -9.5104  -19.7629   20.7860 N.3     1  UNL1       -0.2724
      5 C          -8.8363  -19.5196   19.4683 C.3     1  UNL1        0.0721
      6 C          -7.3409  -19.5800   19.3683 C.3     1  UNL1        0.0177
      7 C          -5.0241  -19.9443   20.4861 C.3     1  UNL1        0.0270
      8 C          -3.7171  -17.4135   23.2497 C.ar    1  UNL1        0.1381
      9 C          -2.5029  -16.8536   22.5699 C.ar    1  UNL1        0.0374
     10 C          -2.1291  -17.3239   21.1954 C.ar    1  UNL1        0.0095
     11 C          -2.9695  -18.3541   20.5009 C.ar    1  UNL1        0.0308
     12 BR         -2.5957  -18.8244   19.1264 Br      1  UNL1       -0.0493
     13 C          -4.1837  -18.9141   21.1807 C.ar    1  UNL1       -0.0130
     14 C          -4.5575  -18.4438   22.5551 C.ar    1  UNL1        0.0331
     15 O          -4.0910  -16.9433   24.6242 O.3     1  UNL1       -0.4792
     16 C          -5.1507  -15.0985   26.1155 C.3     1  UNL1        0.0472
     17 C          -5.0407  -15.7943   24.7912 C.3     1  UNL1        0.1661
     18 C          -5.8804  -15.3410   23.6338 C.3     1  UNL1        0.0472
     19 C         -11.0058  -19.7025   20.8860 C.3     1  UNL1        0.0768
     20 C         -11.6529  -19.1187   22.1068 C.3     1  UNL1        0.0446
     21 C         -10.9063  -18.1282   22.9504 C.ar    1  UNL1       -0.0070
     22 C         -10.4412  -18.5126   24.3237 C.ar    1  UNL1        0.0367
     23 C          -9.6946  -17.5221   25.1673 C.ar    1  UNL1        0.1721
     24 C          -9.4131  -16.1473   24.6375 C.ar    1  UNL1        0.1732
     25 C          -9.8782  -15.7630   23.2642 C.ar    1  UNL1        0.0511
     26 C         -10.6247  -16.7534   22.4207 C.ar    1  UNL1        0.0570
     27 CL        -11.0898  -16.3691   21.0473 Cl      1  UNL1       -0.0825
     28 O          -8.6665  -15.1568   25.4811 O.3     1  UNL1       -0.4683
     29 C          -8.2015  -15.5412   26.8543 C.3     1  UNL1        0.2526
     30 C          -8.4830  -16.9160   27.3841 C.3     1  UNL1        0.2526
     31 O          -9.2296  -17.9064   26.5406 O.3     1  UNL1       -0.4684
@<TRIPOS>BOND
     1    16    17    1
     2    17    18    1
     3    17    15    1
     4    15     8    1
     5     8     9   ar
     6     9    10   ar
     7    10    11   ar
     8    11    12    1
     9    11    13   ar
    10    13     7    1
    11     7     1    1
    12     1     2    1
    13     2     3    1
    14     3     4    1
    15     4    19    1
    16    19    20    1
    17    20    21    1
    18    21    22   ar
    19    22    23   ar
    20    23    24   ar
    21    24    25   ar
    22    25    26   ar
    23    26    27    1
    24    24    28    1
    25    28    29    1
    26    29    30    1
    27    30    31    1
    28     4     5    1
    29     5     6    1
    30    13    14   ar
    31    14     8   ar
    32     6     1    1
    33    26    21   ar
    34    31    23    1
@<TRIPOS>MOLECULE
*****
 31 34 0 0 0
SMALL
GASTEIGER

@<TRIPOS>ATOM
      1 C          -3.7551  -16.6318   23.6276 C.3     1  UNL1        0.0071
      2 C          -3.9605  -17.1828   25.0075 C.3     1  UNL1        0.0177
      3 C          -5.1290  -16.7275   25.8306 C.3     1  UNL1        0.0721
      4 N          -6.0920  -15.7214   25.2738 N.3     1  UNL1       -0.2724
      5 C          -5.8867  -15.1704   23.8939 C.3     1  UNL1        0.0721
      6 C          -4.7183  -15.6255   23.0708 C.3     1  UNL1        0.0177
      7 C          -2.5867  -17.0869   22.8044 C.3     1  UNL1        0.0270
      8 C          -4.1814  -19.7563   20.3384 C.ar    1  UNL1        0.1381
      9 C          -3.2599  -19.6403   19.1606 C.ar    1  UNL1        0.0374
     10 C          -2.1140  -18.6731   19.1974 C.ar    1  UNL1        0.0095
     11 C          -1.8896  -17.8220   20.4120 C.ar    1  UNL1        0.0308
     12 BR         -0.7436  -16.8548   20.4488 Br      1  UNL1       -0.0493
     13 C          -2.8111  -17.9381   21.5898 C.ar    1  UNL1       -0.0130
     14 C          -3.9570  -18.9052   21.5530 C.ar    1  UNL1        0.0331
     15 O          -5.3274  -20.7235   20.3017 O.3     1  UNL1       -0.4792
     16 C          -7.1665  -20.2747   22.0811 C.3     1  UNL1        0.0472
     17 C          -6.7107  -20.2611   20.6521 C.3     1  UNL1        0.1661
     18 C          -7.6380  -19.7849   19.5735 C.3     1  UNL1        0.0472
     19 C          -7.2605  -15.2662   26.0970 C.3     1  UNL1        0.0768
     20 C          -8.6224  -15.1677   25.4761 C.3     1  UNL1        0.0446
     21 C          -9.1707  -16.3179   24.6845 C.ar    1  UNL1       -0.0070
     22 C          -9.4134  -16.1670   23.2120 C.ar    1  UNL1        0.0367
     23 C          -9.9617  -17.3172   22.4205 C.ar    1  UNL1        0.1721
     24 C         -10.2673  -18.6183   23.1015 C.ar    1  UNL1        0.1732
     25 C         -10.0245  -18.7692   24.5740 C.ar    1  UNL1        0.0511
     26 C          -9.4762  -17.6190   25.3655 C.ar    1  UNL1        0.0570
     27 CL         -9.2335  -17.7699   26.8381 Cl      1  UNL1       -0.0825
     28 O         -10.8156  -19.7684   22.3100 O.3     1  UNL1       -0.4683
     29 C         -11.0583  -19.6175   20.8375 C.3     1  UNL1        0.2526
     30 C         -10.7527  -18.3164   20.1565 C.3     1  UNL1        0.2526
     31 O         -10.2044  -17.1662   20.9480 O.3     1  UNL1       -0.4684
@<TRIPOS>BOND
     1    16    17    1
     2    17    18    1
     3    17    15    1
     4    15     8    1
     5     8     9   ar
     6     9    10   ar
     7    10    11   ar
     8    11    12    1
     9    11    13   ar
    10    13     7    1
    11     7     1    1
    12     1     2    1
    13     2     3    1
    14     3     4    1
    15     4    19    1
    16    19    20    1
    17    20    21    1
    18    21    22   ar
    19    22    23   ar
    20    23    24   ar
    21    24    25   ar
    22    25    26   ar
    23    26    27    1
    24    24    28    1
    25    28    29    1
    26    29    30    1
    27    30    31    1
    28     4     5    1
    29     5     6    1
    30    13    14   ar
    31    14     8   ar
    32     6     1    1
    33    26    21   ar
    34    31    23    1
@<TRIPOS>MOLECULE
*****
 31 34 0 0 0
SMALL
GASTEIGER

@<TRIPOS>ATOM
      1 C          -9.8052  -16.7693   23.6409 C.3     1  UNL1        0.0071
      2 C          -9.8272  -18.2537   23.8554 C.3     1  UNL1        0.0177
      3 C         -10.2415  -19.1667   22.7396 C.3     1  UNL1        0.0721
      4 N         -10.6337  -18.5952   21.4094 N.3     1  UNL1       -0.2724
      5 C         -10.6117  -17.1108   21.1949 C.3     1  UNL1        0.0721
      6 C         -10.1974  -16.1978   22.3106 C.3     1  UNL1        0.0177
      7 C          -9.3909  -15.8563   24.7566 C.3     1  UNL1        0.0270
      8 C          -5.4875  -15.3718   24.2292 C.ar    1  UNL1        0.1381
      9 C          -5.0248  -15.2314   25.6491 C.ar    1  UNL1        0.0374
     10 C          -6.0175  -15.2992   26.7715 C.ar    1  UNL1        0.0095
     11 C          -7.4729  -15.5075   26.4740 C.ar    1  UNL1        0.0308
     12 BR         -8.4656  -15.5754   27.5965 Br      1  UNL1       -0.0493
     13 C          -7.9355  -15.6480   25.0541 C.ar    1  UNL1       -0.0130
     14 C          -6.9428  -15.5801   23.9317 C.ar    1  UNL1        0.0331
     15 O          -4.4947  -15.3040   23.1067 O.3     1  UNL1       -0.4792
     16 C          -2.3145  -16.1814   21.9991 C.3     1  UNL1        0.0472
     17 C          -3.4420  -16.3639   22.9714 C.3     1  UNL1        0.1661
     18 C          -3.5168  -17.6064   23.8085 C.3     1  UNL1        0.0472
     19 C         -11.0480  -19.5081   20.2937 C.3     1  UNL1        0.0768
     20 C         -10.1722  -19.6614   19.0855 C.3     1  UNL1        0.0446
     21 C          -8.7358  -20.0627   19.2465 C.ar    1  UNL1       -0.0070
     22 C          -7.7973  -19.1932   20.0294 C.ar    1  UNL1        0.0367
     23 C          -6.3610  -19.5946   20.1903 C.ar    1  UNL1        0.1721
     24 C          -5.8632  -20.8656   19.5683 C.ar    1  UNL1        0.1732
     25 C          -6.8018  -21.7351   18.7854 C.ar    1  UNL1        0.0511
     26 C          -8.2381  -21.3337   18.6245 C.ar    1  UNL1        0.0570
     27 CL         -9.1767  -22.2033   17.8415 Cl      1  UNL1       -0.0825
     28 O          -4.4269  -21.2670   19.7292 O.3     1  UNL1       -0.4683
     29 C          -3.4884  -20.3974   20.5121 C.3     1  UNL1        0.2526
     30 C          -3.9861  -19.1264   21.1341 C.3     1  UNL1        0.2526
     31 O          -5.4224  -18.7250   20.9732 O.3     1  UNL1       -0.4684
@<TRIPOS>BOND
     1    16    17    1
     2    17    18    1
     3    17    15    1
     4    15     8    1
     5     8     9   ar
     6     9    10   ar
     7    10    11   ar
     8    11    12    1
     9    11    13   ar
    10    13     7    1
    11     7     1    1
    12     1     2    1
    13     2     3    1
    14     3     4    1
    15     4    19    1
    16    19    20    1
    17    20    21    1
    18    21    22   ar
    19    22    23   ar
    20    23    24   ar
    21    24    25   ar
    22    25    26   ar
    23    26    27    1
    24    24    28    1
    25    28    29    1
    26    29    30    1
    27    30    31    1
    28     4     5    1
    29     5     6    1
    30    13    14   ar
    31    14     8   ar
    32     6     1    1
    33    26    21   ar
    34    31    23    1
@<TRIPOS>MOLECULE
*****
 31 34 0 0 0
SMALL
GASTEIGER

@<TRIPOS>ATOM
      1 C           6.7855   -3.9471   22.5280 C.3     1  UNL1        0.0071
      2 C           5.4332   -3.5544   23.0448 C.3     1  UNL1        0.0177
      3 C           4.3360   -3.2036   22.0840 C.3     1  UNL1        0.0721
      4 N           4.5910   -3.2455   20.6065 N.3     1  UNL1       -0.2724
      5 C           5.9433   -3.6383   20.0896 C.3     1  UNL1        0.0721
      6 C           7.0405   -3.9890   21.0504 C.3     1  UNL1        0.0177
      7 C           7.8827   -4.2979   23.4887 C.3     1  UNL1        0.0270
      8 C           6.6726   -5.9618   26.8824 C.ar    1  UNL1        0.1381
      9 C           7.1652   -7.3668   26.7006 C.ar    1  UNL1        0.0374
     10 C           7.8969   -7.7489   25.4483 C.ar    1  UNL1        0.0095
     11 C           8.1361   -6.7259   24.3776 C.ar    1  UNL1        0.0308
     12 BR          8.8679   -7.1081   23.1252 Br      1  UNL1       -0.0493
     13 C           7.6435   -5.3209   24.5593 C.ar    1  UNL1       -0.0130
     14 C           6.9118   -4.9388   25.8117 C.ar    1  UNL1        0.0331
     15 O           5.9408   -5.5796   28.1348 O.3     1  UNL1       -0.4792
     16 C           7.4597   -5.8990   30.2183 C.3     1  UNL1        0.0472
     17 C           6.6930   -4.9988   29.2953 C.3     1  UNL1        0.1661
     18 C           6.6784   -3.5178   29.5330 C.3     1  UNL1        0.0472
     19 C           3.4938   -2.8947   19.6457 C.3     1  UNL1        0.0768
     20 C           3.6972   -1.7980   18.6429 C.3     1  UNL1        0.0446
     21 C           3.0366   -0.4663   18.8434 C.ar    1  UNL1       -0.0070
     22 C           1.7533   -0.3743   19.6146 C.ar    1  UNL1        0.0367
     23 C           1.0926    0.9574   19.8152 C.ar    1  UNL1        0.1721
     24 C           1.7153    2.1971   19.2445 C.ar    1  UNL1        0.1732
     25 C           2.9986    2.1050   18.4733 C.ar    1  UNL1        0.0511
     26 C           3.6592    0.7733   18.2728 C.ar    1  UNL1        0.0570
     27 CL          4.9425    0.6813   17.5016 Cl      1  UNL1       -0.0825
     28 O           1.0547    3.5287   19.4450 O.3     1  UNL1       -0.4683
     29 C          -0.2286    3.6207   20.2162 C.3     1  UNL1        0.2526
     30 C          -0.8512    2.3811   20.7868 C.3     1  UNL1        0.2526
     31 O          -0.1906    1.0495   20.5863 O.3     1  UNL1       -0.4684
@<TRIPOS>BOND
     1    16    17    1
     2    17    18    1
     3    17    15    1
     4    15     8    1
     5     8     9   ar
     6     9    10   ar
     7    10    11   ar
     8    11    12    1
     9    11    13   ar
    10    13     7    1
    11     7     1    1
    12     1     2    1
    13     2     3    1
    14     3     4    1
    15     4    19    1
    16    19    20    1
    17    20    21    1
    18    21    22   ar
    19    22    23   ar
    20    23    24   ar
    21    24    25   ar
    22    25    26   ar
    23    26    27    1
    24    24    28    1
    25    28    29    1
    26    29    30    1
    27    30    31    1
    28     4     5    1
    29     5     6    1
    30    13    14   ar
    31    14     8   ar
    32     6     1    1
    33    26    21   ar
    34    31    23    1
@<TRIPOS>MOLECULE
*****
 31 34 0 0 0
SMALL
GASTEIGER

@<TRIPOS>ATOM
      1 C           4.6577   -3.2801   20.5574 C.3     1  UNL1        0.0071
      2 C           4.2473   -3.2437   21.9997 C.3     1  UNL1        0.0177
      3 C           5.2590   -3.5113   23.0743 C.3     1  UNL1        0.0721
      4 N           6.6810   -3.8154   22.7067 N.3     1  UNL1       -0.2724
      5 C           7.0915   -3.8518   21.2644 C.3     1  UNL1        0.0721
      6 C           6.0799   -3.5842   20.1898 C.3     1  UNL1        0.0177
      7 C           3.6461   -3.0124   19.4827 C.3     1  UNL1        0.0270
      8 C           1.2691    0.1306   19.9535 C.ar    1  UNL1        0.1381
      9 C           1.9028    1.1092   19.0098 C.ar    1  UNL1        0.0374
     10 C           3.1176    0.7139   18.2236 C.ar    1  UNL1        0.0095
     11 C           3.6987   -0.6599   18.3813 C.ar    1  UNL1        0.0308
     12 BR          4.9136   -1.0552   17.5951 Br      1  UNL1       -0.0493
     13 C           3.0650   -1.6385   19.3251 C.ar    1  UNL1       -0.0130
     14 C           1.8502   -1.2433   20.1112 C.ar    1  UNL1        0.0331
     15 O           0.0543    0.5258   20.7397 O.3     1  UNL1       -0.4792
     16 C           0.9919    1.3120   23.0316 C.3     1  UNL1        0.0472
     17 C           0.1610    1.5713   21.8100 C.3     1  UNL1        0.1661
     18 C          -0.5633    2.8762   21.6586 C.3     1  UNL1        0.0472
     19 C           7.6926   -4.0831   23.7814 C.3     1  UNL1        0.0768
     20 C           7.8059   -5.4537   24.3803 C.3     1  UNL1        0.0446
     21 C           7.7252   -5.6313   25.8676 C.ar    1  UNL1       -0.0070
     22 C           7.2115   -4.5162   26.7293 C.ar    1  UNL1        0.0367
     23 C           7.1308   -4.6938   28.2166 C.ar    1  UNL1        0.1721
     24 C           7.5638   -5.9865   28.8421 C.ar    1  UNL1        0.1732
     25 C           8.0775   -7.1017   27.9803 C.ar    1  UNL1        0.0511
     26 C           8.1582   -6.9240   26.4931 C.ar    1  UNL1        0.0570
     27 CL          8.6719   -8.0392   25.6313 Cl      1  UNL1       -0.0825
     28 O           7.4831   -6.1642   30.3293 O.3     1  UNL1       -0.4683
     29 C           6.9694   -5.0490   31.1910 C.3     1  UNL1        0.2526
     30 C           6.5364   -3.7563   30.5655 C.3     1  UNL1        0.2526
     31 O           6.6171   -3.5786   29.0783 O.3     1  UNL1       -0.4684
@<TRIPOS>BOND
     1    16    17    1
     2    17    18    1
     3    17    15    1
     4    15     8    1
     5     8     9   ar
     6     9    10   ar
     7    10    11   ar
     8    11    12    1
     9    11    13   ar
    10    13     7    1
    11     7     1    1
    12     1     2    1
    13     2     3    1
    14     3     4    1
    15     4    19    1
    16    19    20    1
    17    20    21    1
    18    21    22   ar
    19    22    23   ar
    20    23    24   ar
    21    24    25   ar
    22    25    26   ar
    23    26    27    1
    24    24    28    1
    25    28    29    1
    26    29    30    1
    27    30    31    1
    28     4     5    1
    29     5     6    1
    30    13    14   ar
    31    14     8   ar
    32     6     1    1
    33    26    21   ar
    34    31    23    1
@<TRIPOS>MOLECULE
*****
 31 34 0 0 0
SMALL
GASTEIGER

@<TRIPOS>ATOM
      1 C          -3.5948  -17.1650   24.0369 C.3     1  UNL1        0.0071
      2 C          -3.7405  -17.6532   25.4477 C.3     1  UNL1        0.0177
      3 C          -4.6634  -16.9451   26.3948 C.3     1  UNL1        0.0721
      4 N          -5.4405  -15.7489   25.9310 N.3     1  UNL1       -0.2724
      5 C          -5.2948  -15.2607   24.5202 C.3     1  UNL1        0.0721
      6 C          -4.3720  -15.9687   23.5731 C.3     1  UNL1        0.0177
      7 C          -2.6719  -17.8731   23.0898 C.3     1  UNL1        0.0270
      8 C          -5.1225  -19.8017   20.6352 C.ar    1  UNL1        0.1381
      9 C          -4.3130  -19.8063   19.3724 C.ar    1  UNL1        0.0374
     10 C          -2.9565  -19.1666   19.3487 C.ar    1  UNL1        0.0095
     11 C          -2.4095  -18.5221   20.5878 C.ar    1  UNL1        0.0308
     12 BR         -1.0530  -17.8823   20.5641 Br      1  UNL1       -0.0493
     13 C          -3.2190  -18.5175   21.8506 C.ar    1  UNL1       -0.0130
     14 C          -4.5754  -19.1573   21.8743 C.ar    1  UNL1        0.0331
     15 O          -6.4790  -20.4415   20.6589 O.3     1  UNL1       -0.4792
     16 C          -8.4782  -20.2776   19.0077 C.3     1  UNL1        0.0472
     17 C          -7.6687  -19.6971   20.1291 C.3     1  UNL1        0.1661
     18 C          -8.0487  -18.3721   20.7208 C.3     1  UNL1        0.0472
     19 C          -6.3634  -15.0408   26.8781 C.3     1  UNL1        0.0768
     20 C          -7.7604  -15.5470   27.0830 C.3     1  UNL1        0.0446
     21 C          -8.4542  -16.2990   25.9860 C.ar    1  UNL1       -0.0070
     22 C          -8.8599  -17.7277   26.1964 C.ar    1  UNL1        0.0367
     23 C          -9.5536  -18.4797   25.0995 C.ar    1  UNL1        0.1721
     24 C          -9.8416  -17.8030   23.7921 C.ar    1  UNL1        0.1732
     25 C          -9.4359  -16.3742   23.5818 C.ar    1  UNL1        0.0511
     26 C          -8.7422  -15.6223   24.6787 C.ar    1  UNL1        0.0570
     27 CL         -8.3364  -14.1935   24.4683 Cl      1  UNL1       -0.0825
     28 O         -10.5353  -18.5549   22.6952 O.3     1  UNL1       -0.4683
     29 C         -10.9410  -19.9836   22.9056 C.3     1  UNL1        0.2526
     30 C         -10.6530  -20.6603   24.2129 C.3     1  UNL1        0.2526
     31 O          -9.9593  -19.9083   25.3099 O.3     1  UNL1       -0.4684
@<TRIPOS>BOND
     1    16    17    1
     2    17    18    1
     3    17    15    1
     4    15     8    1
     5     8     9   ar
     6     9    10   ar
     7    10    11   ar
     8    11    12    1
     9    11    13   ar
    10    13     7    1
    11     7     1    1
    12     1     2    1
    13     2     3    1
    14     3     4    1
    15     4    19    1
    16    19    20    1
    17    20    21    1
    18    21    22   ar
    19    22    23   ar
    20    23    24   ar
    21    24    25   ar
    22    25    26   ar
    23    26    27    1
    24    24    28    1
    25    28    29    1
    26    29    30    1
    27    30    31    1
    28     4     5    1
    29     5     6    1
    30    13    14   ar
    31    14     8   ar
    32     6     1    1
    33    26    21   ar
    34    31    23    1
@<TRIPOS>MOLECULE
*****
 31 34 0 0 0
SMALL
GASTEIGER

@<TRIPOS>ATOM
      1 C           1.5827   -0.1637   20.0173 C.3     1  UNL1        0.0071
      2 C           0.9998    0.4364   21.2623 C.3     1  UNL1        0.0177
      3 C           0.1936    1.6987   21.1800 C.3     1  UNL1        0.0721
      4 N          -0.0297    2.3608   19.8528 N.3     1  UNL1       -0.2724
      5 C           0.5532    1.7607   18.6077 C.3     1  UNL1        0.0721
      6 C           1.3594    0.4985   18.6900 C.3     1  UNL1        0.0177
      7 C           2.3889   -1.4259   20.0996 C.3     1  UNL1        0.0270
      8 C           5.9013   -0.3359   18.6080 C.ar    1  UNL1        0.1381
      9 C           6.4212   -1.6536   18.1150 C.ar    1  UNL1        0.0374
     10 C           5.5970   -2.8955   18.2835 C.ar    1  UNL1        0.0095
     11 C           4.2529   -2.8196   18.9450 C.ar    1  UNL1        0.0308
     12 BR          3.4287   -4.0616   19.1135 Br      1  UNL1       -0.0493
     13 C           3.7330   -1.5018   19.4380 C.ar    1  UNL1       -0.0130
     14 C           4.5572   -0.2600   19.2695 C.ar    1  UNL1        0.0331
     15 O           6.7255    0.9061   18.4395 O.3     1  UNL1       -0.4792
     16 C           7.1930    1.6075   15.9820 C.3     1  UNL1        0.0472
     17 C           6.4720    1.8228   17.2796 C.3     1  UNL1        0.1661
     18 C           5.4975    2.9548   17.4174 C.3     1  UNL1        0.0472
     19 C          -0.8359    3.6230   19.7705 C.3     1  UNL1        0.0768
     20 C          -2.1956    3.6046   19.1375 C.3     1  UNL1        0.0446
     21 C          -3.4199    3.7871   19.9848 C.ar    1  UNL1       -0.0070
     22 C          -3.2881    3.9320   21.4719 C.ar    1  UNL1        0.0367
     23 C          -4.5124    4.1145   22.3192 C.ar    1  UNL1        0.1721
     24 C          -5.8685    4.1523   21.6793 C.ar    1  UNL1        0.1732
     25 C          -6.0003    4.0074   20.1921 C.ar    1  UNL1        0.0511
     26 C          -4.7761    3.8249   19.3449 C.ar    1  UNL1        0.0570
     27 CL         -4.9079    3.6800   17.8577 Cl      1  UNL1       -0.0825
     28 O          -7.0927    4.3348   22.5265 O.3     1  UNL1       -0.4683
     29 C          -6.9609    4.4797   24.0136 C.3     1  UNL1        0.2526
     30 C          -5.6047    4.4419   24.6535 C.3     1  UNL1        0.2526
     31 O          -4.3805    4.2594   23.8063 O.3     1  UNL1       -0.4684
@<TRIPOS>BOND
     1    16    17    1
     2    17    18    1
     3    17    15    1
     4    15     8    1
     5     8     9   ar
     6     9    10   ar
     7    10    11   ar
     8    11    12    1
     9    11    13   ar
    10    13     7    1
    11     7     1    1
    12     1     2    1
    13     2     3    1
    14     3     4    1
    15     4    19    1
    16    19    20    1
    17    20    21    1
    18    21    22   ar
    19    22    23   ar
    20    23    24   ar
    21    24    25   ar
    22    25    26   ar
    23    26    27    1
    24    24    28    1
    25    28    29    1
    26    29    30    1
    27    30    31    1
    28     4     5    1
    29     5     6    1
    30    13    14   ar
    31    14     8   ar
    32     6     1    1
    33    26    21   ar
    34    31    23    1
@<TRIPOS>MOLECULE
*****
 31 34 0 0 0
SMALL
GASTEIGER

@<TRIPOS>ATOM
      1 C           2.2180   -1.1082   20.5403 C.3     1  UNL1        0.0071
      2 C           0.9475   -0.4545   20.0837 C.3     1  UNL1        0.0177
      3 C           0.3141    0.6185   20.9189 C.3     1  UNL1        0.0721
      4 N           0.9511    1.0377   22.2106 N.3     1  UNL1       -0.2724
      5 C           2.2216    0.3839   22.6672 C.3     1  UNL1        0.0721
      6 C           2.8551   -0.6890   21.8321 C.3     1  UNL1        0.0177
      7 C           2.8515   -2.1812   19.7052 C.3     1  UNL1        0.0270
      8 C           6.1658   -1.0928   17.8128 C.ar    1  UNL1        0.1381
      9 C           7.1954   -1.8783   18.5697 C.ar    1  UNL1        0.0374
     10 C           6.7770   -2.7648   19.7051 C.ar    1  UNL1        0.0095
     11 C           5.3290   -2.8657   20.0836 C.ar    1  UNL1        0.0308
     12 BR          4.9107   -3.7522   21.2190 Br      1  UNL1       -0.0493
     13 C           4.2995   -2.0802   19.3267 C.ar    1  UNL1       -0.0130
     14 C           4.7178   -1.1938   18.1913 C.ar    1  UNL1        0.0331
     15 O           6.5841   -0.2063   16.6774 O.3     1  UNL1       -0.4792
     16 C           8.2580    1.7807   16.6729 C.3     1  UNL1        0.0472
     17 C           6.8811    1.2426   16.9273 C.3     1  UNL1        0.1661
     18 C           5.8012    2.1534   17.4316 C.3     1  UNL1        0.0472
     19 C           0.3176    2.1106   23.0457 C.3     1  UNL1        0.0768
     20 C           1.0702    2.7062   24.1986 C.3     1  UNL1        0.0446
     21 C           1.0310    2.0421   25.5430 C.ar    1  UNL1       -0.0070
     22 C           2.2655    1.3934   26.0954 C.ar    1  UNL1        0.0367
     23 C           2.2264    0.7293   27.4398 C.ar    1  UNL1        0.1721
     24 C           0.9527    0.7139   28.2319 C.ar    1  UNL1        0.1732
     25 C          -0.2819    1.3626   27.6795 C.ar    1  UNL1        0.0511
     26 C          -0.2427    2.0267   26.3351 C.ar    1  UNL1        0.0570
     27 CL         -1.4773    2.6754   25.7827 Cl      1  UNL1       -0.0825
     28 O           0.9135    0.0499   29.5763 O.3     1  UNL1       -0.4683
     29 C           2.1480   -0.5988   30.1286 C.3     1  UNL1        0.2526
     30 C           3.4217   -0.5834   29.3366 C.3     1  UNL1        0.2526
     31 O           3.4609    0.0807   27.9922 O.3     1  UNL1       -0.4684
@<TRIPOS>BOND
     1    16    17    1
     2    17    18    1
     3    17    15    1
     4    15     8    1
     5     8     9   ar
     6     9    10   ar
     7    10    11   ar
     8    11    12    1
     9    11    13   ar
    10    13     7    1
    11     7     1    1
    12     1     2    1
    13     2     3    1
    14     3     4    1
    15     4    19    1
    16    19    20    1
    17    20    21    1
    18    21    22   ar
    19    22    23   ar
    20    23    24   ar
    21    24    25   ar
    22    25    26   ar
    23    26    27    1
    24    24    28    1
    25    28    29    1
    26    29    30    1
    27    30    31    1
    28     4     5    1
    29     5     6    1
    30    13    14   ar
    31    14     8   ar
    32     6     1    1
    33    26    21   ar
    34    31    23    1
@<TRIPOS>MOLECULE
*****
 31 34 0 0 0
SMALL
GASTEIGER

@<TRIPOS>ATOM
      1 C           4.5325   -3.2683   20.3273 C.3     1  UNL1        0.0071
      2 C           5.9473   -3.5150   19.8942 C.3     1  UNL1        0.0177
      3 C           6.9830   -3.9103   20.9047 C.3     1  UNL1        0.0721
      4 N           6.6039   -4.0588   22.3484 N.3     1  UNL1       -0.2724
      5 C           5.1891   -3.8121   22.7816 C.3     1  UNL1        0.0721
      6 C           4.1535   -3.4168   21.7711 C.3     1  UNL1        0.0177
      7 C           3.4969   -2.8730   19.3169 C.3     1  UNL1        0.0270
      8 C           1.2680    0.2621   20.2929 C.ar    1  UNL1        0.1381
      9 C           1.8013    1.2952   19.3452 C.ar    1  UNL1        0.0374
     10 C           2.8998    0.9389   18.3880 C.ar    1  UNL1        0.0095
     11 C           3.4650   -0.4505   18.3785 C.ar    1  UNL1        0.0308
     12 BR          4.5635   -0.8068   17.4213 Br      1  UNL1       -0.0493
     13 C           2.9317   -1.4836   19.3263 C.ar    1  UNL1       -0.0130
     14 C           1.8332   -1.1273   20.2835 C.ar    1  UNL1        0.0331
     15 O           0.1694    0.6185   21.2502 O.3     1  UNL1       -0.4792
     16 C           0.9785    1.1736   23.6558 C.3     1  UNL1        0.0472
     17 C           0.4184    1.6207   22.3381 C.3     1  UNL1        0.1661
     18 C           0.1073    3.0700   22.1083 C.3     1  UNL1        0.0472
     19 C           7.6395   -4.4541   23.3589 C.3     1  UNL1        0.0768
     20 C           8.0325   -3.4961   24.4442 C.3     1  UNL1        0.0446
     21 C           7.6685   -3.7878   25.8699 C.ar    1  UNL1       -0.0070
     22 C           8.4428   -4.8105   26.6474 C.ar    1  UNL1        0.0367
     23 C           8.0789   -5.1022   28.0731 C.ar    1  UNL1        0.1721
     24 C           6.9407   -4.3711   28.7213 C.ar    1  UNL1        0.1732
     25 C           6.1664   -3.3483   27.9437 C.ar    1  UNL1        0.0511
     26 C           6.5304   -3.0567   26.5180 C.ar    1  UNL1        0.0570
     27 CL          5.7561   -2.0340   25.7404 Cl      1  UNL1       -0.0825
     28 O           6.5768   -4.6627   30.1469 O.3     1  UNL1       -0.4683
     29 C           7.3510   -5.6854   30.9244 C.3     1  UNL1        0.2526
     30 C           8.4892   -6.4165   30.2763 C.3     1  UNL1        0.2526
     31 O           8.8531   -6.1249   28.8506 O.3     1  UNL1       -0.4684
@<TRIPOS>BOND
     1    16    17    1
     2    17    18    1
     3    17    15    1
     4    15     8    1
     5     8     9   ar
     6     9    10   ar
     7    10    11   ar
     8    11    12    1
     9    11    13   ar
    10    13     7    1
    11     7     1    1
    12     1     2    1
    13     2     3    1
    14     3     4    1
    15     4    19    1
    16    19    20    1
    17    20    21    1
    18    21    22   ar
    19    22    23   ar
    20    23    24   ar
    21    24    25   ar
    22    25    26   ar
    23    26    27    1
    24    24    28    1
    25    28    29    1
    26    29    30    1
    27    30    31    1
    28     4     5    1
    29     5     6    1
    30    13    14   ar
    31    14     8   ar
    32     6     1    1
    33    26    21   ar
    34    31    23    1
