@<TRIPOS>MOLECULE
*****
 35 39 0 0 0
SMALL
GASTEIGER

@<TRIPOS>ATOM
      1 C           6.9095   -4.5644   27.8957 C.ar    1  UNL1       -0.0024
      2 C           7.1521   -5.2388   29.2133 C.ar    1  UNL1       -0.0013
      3 C           6.9223   -4.4900   30.4927 C.ar    1  UNL1        0.0181
      4 C           6.4499   -3.0668   30.4542 C.ar    1  UNL1        0.1056
      5 C           6.2073   -2.3924   29.1365 C.ar    1  UNL1        0.0181
      6 C           6.4371   -3.1412   27.8572 C.ar    1  UNL1       -0.0013
      7 S           6.2202   -2.3181   31.7335 S.O2    1  UNL1        0.0071
      8 O           6.2390   -1.0222   30.9784 O.2     1  UNL1       -0.1687
      9 O           6.2014   -3.6139   32.4886 O.2     1  UNL1       -0.1687
     10 C           5.9904   -1.5693   33.0127 C.3     1  UNL1        0.1366
     11 C           7.0886   -0.7330   33.5999 C.3     1  UNL1        0.0413
     12 C           6.8589    0.0158   34.8792 C.3     1  UNL1        0.0738
     13 N           5.5310   -0.0717   35.5713 N.3     1  UNL1       -0.2737
     14 C           4.4328   -0.9079   34.9842 C.3     1  UNL1        0.0738
     15 C           4.6625   -1.6568   33.7049 C.3     1  UNL1        0.0413
     16 C           5.3012    0.6771   36.8505 C.3     1  UNL1        0.0625
     17 C           3.9609    0.6215   37.5218 C.3     1  UNL1        0.0481
     18 C           3.7311    1.3703   38.8010 C.3     1  UNL1        0.1435
     19 O           4.8416    2.1746   39.4091 O.3     1  UNL1       -0.3537
     20 C           6.1819    2.2303   38.7379 C.3     1  UNL1        0.1435
     21 C           6.4117    1.4815   37.4586 C.3     1  UNL1        0.0481
     22 C           7.1392   -5.3131   26.6163 C.3     1  UNL1        0.1177
     23 O           8.8604   -4.7600   24.2223 O.2     1  UNL1       -0.2526
     24 C           7.3771   -4.5510   24.1440 C.2     1  UNL1        0.3047
     25 N           6.5165   -4.8276   25.3410 N.am    1  UNL1       -0.2847
     26 N           6.7544   -4.0655   22.8686 N.am    1  UNL1       -0.2560
     27 C           7.4832   -3.7485   21.5965 C.3     1  UNL1        0.1218
     28 C           6.4728   -3.2988   20.5831 C.ar    1  UNL1       -0.0016
     29 C           6.6102   -2.8588   19.1557 C.ar    1  UNL1        0.0178
     30 C           5.3943   -2.4579   18.3742 C.ar    1  UNL1        0.0986
     31 N           4.0410   -2.4969   19.0200 N.ar    1  UNL1       -0.2426
     32 C           3.9037   -2.9369   20.4474 C.ar    1  UNL1        0.0960
     33 C           5.1195   -3.3379   21.2290 C.ar    1  UNL1        0.0146
     34 C           5.2936   -3.8117   22.6415 C.3     1  UNL1        0.1233
     35 H           5.5430   -4.6905   25.2896 H       1  UNL1        0.1513
@<TRIPOS>BOND
     1    23    24    2
     2    24    25   am
     3    25    22    1
     4    22     1    1
     5     1     2   ar
     6     2     3   ar
     7     3     4   ar
     8     4     7    1
     9     7     8    2
    10     7     9    2
    11     7    10    1
    12    10    11    1
    13    11    12    1
    14    12    13    1
    15    13    16    1
    16    16    17    1
    17    17    18    1
    18    18    19    1
    19    19    20    1
    20    20    21    1
    21    13    14    1
    22    14    15    1
    23     4     5   ar
    24     5     6   ar
    25    24    26   am
    26    26    27    1
    27    27    28    1
    28    28    29   ar
    29    29    30   ar
    30    30    31   ar
    31    31    32   ar
    32    32    33   ar
    33    33    34    1
    34     6     1   ar
    35    34    26    1
    36    15    10    1
    37    33    28   ar
    38    21    16    1
    39    25    35    1
@<TRIPOS>MOLECULE
*****
 35 39 0 0 0
SMALL
GASTEIGER

@<TRIPOS>ATOM
      1 C           6.1770   -3.0495   28.5204 C.ar    1  UNL1       -0.0024
      2 C           5.4329   -1.7480   28.4709 C.ar    1  UNL1       -0.0013
      3 C           5.0532   -1.0523   29.7444 C.ar    1  UNL1        0.0181
      4 C           5.4175   -1.6581   31.0674 C.ar    1  UNL1        0.1056
      5 C           6.1616   -2.9596   31.1168 C.ar    1  UNL1        0.0181
      6 C           6.5413   -3.6553   29.8434 C.ar    1  UNL1       -0.0013
      7 S           5.0378   -0.9624   32.3409 S.O2    1  UNL1        0.0071
      8 O           6.1796   -0.0067   32.1592 O.2     1  UNL1       -0.1687
      9 O           3.8961   -1.9181   32.5225 O.2     1  UNL1       -0.1687
     10 C           4.6581   -0.2667   33.6143 C.3     1  UNL1        0.1366
     11 C           5.0438   -0.8601   34.9369 C.3     1  UNL1        0.0413
     12 C           4.6641   -0.1644   36.2104 C.3     1  UNL1        0.0738
     13 N           3.8987    1.1247   36.1614 N.3     1  UNL1       -0.2737
     14 C           3.5130    1.7181   34.8389 C.3     1  UNL1        0.0738
     15 C           3.8927    1.0224   33.5653 C.3     1  UNL1        0.0413
     16 C           3.5190    1.8204   37.4349 C.3     1  UNL1        0.0625
     17 C           4.4896    2.7515   38.0990 C.3     1  UNL1        0.0481
     18 C           4.1099    3.4472   39.3725 C.3     1  UNL1        0.1435
     19 O           2.7596    3.2118   39.9819 O.3     1  UNL1       -0.3537
     20 C           1.7891    2.2808   39.3178 C.3     1  UNL1        0.1435
     21 C           2.1687    1.5850   38.0443 C.3     1  UNL1        0.0481
     22 C           6.5567   -3.7453   27.2468 C.3     1  UNL1        0.1177
     23 O           7.6264   -4.8000   24.6501 O.2     1  UNL1       -0.2526
     24 C           6.4486   -3.8712   24.6541 C.2     1  UNL1        0.3047
     25 N           5.9137   -3.3439   25.9525 N.am    1  UNL1       -0.2847
     26 N           5.8056   -3.4699   23.3597 N.am    1  UNL1       -0.2560
     27 C           6.2276   -3.9141   21.9906 C.3     1  UNL1        0.1218
     28 C           5.3105   -3.2725   20.9919 C.ar    1  UNL1       -0.0016
     29 C           5.2481   -3.3453   19.4950 C.ar    1  UNL1        0.0178
     30 C           4.1968   -2.5774   18.7500 C.ar    1  UNL1        0.0986
     31 N           3.2080   -1.7367   19.5019 N.ar    1  UNL1       -0.2426
     32 C           3.2704   -1.6639   20.9988 C.ar    1  UNL1        0.0960
     33 C           4.3216   -2.4319   21.7438 C.ar    1  UNL1        0.0146
     34 C           4.6276   -2.5538   23.2072 C.3     1  UNL1        0.1233
     35 H           5.1406   -2.7343   25.9551 H       1  UNL1        0.1513
@<TRIPOS>BOND
     1    23    24    2
     2    24    25   am
     3    25    22    1
     4    22     1    1
     5     1     2   ar
     6     2     3   ar
     7     3     4   ar
     8     4     7    1
     9     7     8    2
    10     7     9    2
    11     7    10    1
    12    10    11    1
    13    11    12    1
    14    12    13    1
    15    13    16    1
    16    16    17    1
    17    17    18    1
    18    18    19    1
    19    19    20    1
    20    20    21    1
    21    13    14    1
    22    14    15    1
    23     4     5   ar
    24     5     6   ar
    25    24    26   am
    26    26    27    1
    27    27    28    1
    28    28    29   ar
    29    29    30   ar
    30    30    31   ar
    31    31    32   ar
    32    32    33   ar
    33    33    34    1
    34     6     1   ar
    35    34    26    1
    36    15    10    1
    37    33    28   ar
    38    21    16    1
    39    25    35    1
@<TRIPOS>MOLECULE
*****
 35 39 0 0 0
SMALL
GASTEIGER

@<TRIPOS>ATOM
      1 C           0.2454    1.9137   26.2008 C.ar    1  UNL1       -0.0024
      2 C          -0.6151    1.2701   27.2473 C.ar    1  UNL1       -0.0013
      3 C          -0.2142    1.3342   28.6914 C.ar    1  UNL1        0.0181
      4 C           1.0472    2.0419   29.0888 C.ar    1  UNL1        0.1056
      5 C           1.9077    2.6856   28.0422 C.ar    1  UNL1        0.0181
      6 C           1.5068    2.6214   26.5982 C.ar    1  UNL1       -0.0013
      7 S           1.4482    2.1060   30.5328 S.O2    1  UNL1        0.0071
      8 O           0.1868    1.3898   30.9148 O.2     1  UNL1       -0.1687
      9 O           2.7095    2.8223   30.1507 O.2     1  UNL1       -0.1687
     10 C           1.8491    2.1702   31.9767 C.3     1  UNL1        0.1366
     11 C           1.3226    3.2677   32.8533 C.3     1  UNL1        0.0413
     12 C           1.7235    3.3318   34.2973 C.3     1  UNL1        0.0738
     13 N           2.6509    2.2985   34.8648 N.3     1  UNL1       -0.2737
     14 C           3.1774    1.2010   33.9883 C.3     1  UNL1        0.0738
     15 C           2.7765    1.1368   32.5442 C.3     1  UNL1        0.0413
     16 C           3.0519    2.3626   36.3087 C.3     1  UNL1        0.0625
     17 C           3.8993    1.2756   36.9008 C.3     1  UNL1        0.0481
     18 C           4.3002    1.3398   38.3448 C.3     1  UNL1        0.1435
     19 O           3.8538    2.4908   39.1967 O.3     1  UNL1       -0.3537
     20 C           3.0064    3.5777   38.6047 C.3     1  UNL1        0.1435
     21 C           2.6054    3.5136   37.1607 C.3     1  UNL1        0.0481
     22 C          -0.1555    1.8496   24.7567 C.3     1  UNL1        0.1177
     23 O          -0.1030    2.6622   21.8694 O.2     1  UNL1       -0.2526
     24 C           0.7126    1.4924   22.3342 C.2     1  UNL1        0.3047
     25 N           0.6864    1.0860   23.7778 N.am    1  UNL1       -0.2847
     26 N           1.5545    0.7288   21.3553 N.am    1  UNL1       -0.2560
     27 C           1.6806    1.0162   19.8885 C.3     1  UNL1        0.1218
     28 C           2.6222    0.0089   19.2980 C.ar    1  UNL1       -0.0016
     29 C           3.1234   -0.1973   17.8993 C.ar    1  UNL1        0.0178
     30 C           4.0803   -1.3136   17.6025 C.ar    1  UNL1        0.0986
     31 N           4.5361   -2.2236   18.7044 N.ar    1  UNL1       -0.2426
     32 C           4.0349   -2.0174   20.1030 C.ar    1  UNL1        0.0960
     33 C           3.0780   -0.9012   20.3998 C.ar    1  UNL1        0.0146
     34 C           2.4181   -0.4562   21.6713 C.3     1  UNL1        0.1233
     35 H           1.2217    0.3182   24.0829 H       1  UNL1        0.1513
@<TRIPOS>BOND
     1    23    24    2
     2    24    25   am
     3    25    22    1
     4    22     1    1
     5     1     2   ar
     6     2     3   ar
     7     3     4   ar
     8     4     7    1
     9     7     8    2
    10     7     9    2
    11     7    10    1
    12    10    11    1
    13    11    12    1
    14    12    13    1
    15    13    16    1
    16    16    17    1
    17    17    18    1
    18    18    19    1
    19    19    20    1
    20    20    21    1
    21    13    14    1
    22    14    15    1
    23     4     5   ar
    24     5     6   ar
    25    24    26   am
    26    26    27    1
    27    27    28    1
    28    28    29   ar
    29    29    30   ar
    30    30    31   ar
    31    31    32   ar
    32    32    33   ar
    33    33    34    1
    34     6     1   ar
    35    34    26    1
    36    15    10    1
    37    33    28   ar
    38    21    16    1
    39    25    35    1
@<TRIPOS>MOLECULE
*****
 35 39 0 0 0
SMALL
GASTEIGER

@<TRIPOS>ATOM
      1 C           4.8577   -2.8878   22.4981 C.ar    1  UNL1       -0.0024
      2 C           4.2478   -1.8653   23.4104 C.ar    1  UNL1       -0.0013
      3 C           3.2878   -0.8502   22.8642 C.ar    1  UNL1        0.0181
      4 C           2.9379   -0.8577   21.4056 C.ar    1  UNL1        0.1056
      5 C           3.5479   -1.8803   20.4932 C.ar    1  UNL1        0.0181
      6 C           4.5078   -2.8953   21.0395 C.ar    1  UNL1       -0.0013
      7 S           1.9780    0.1572   20.8594 S.O2    1  UNL1        0.0071
      8 O           2.6908    1.2386   21.6160 O.2     1  UNL1       -0.1687
      9 O           1.2652   -0.9241   20.1027 O.2     1  UNL1       -0.1687
     10 C           1.0181    1.1722   20.3131 C.3     1  UNL1        0.1366
     11 C           1.0828    1.5632   18.8664 C.3     1  UNL1        0.0413
     12 C           0.1230    2.5782   18.3201 C.3     1  UNL1        0.0738
     13 N          -0.9016    3.2022   19.2206 N.3     1  UNL1       -0.2737
     14 C          -0.9664    2.8113   20.6672 C.3     1  UNL1        0.0738
     15 C          -0.0064    1.7962   21.2136 C.3     1  UNL1        0.0413
     16 C          -1.8615    4.2172   18.6743 C.3     1  UNL1        0.0625
     17 C          -1.3432    5.4556   18.0051 C.3     1  UNL1        0.0481
     18 C          -2.3031    6.4706   17.4588 C.3     1  UNL1        0.1435
     19 O          -3.7813    6.2472   17.5818 O.3     1  UNL1       -0.3537
     20 C          -4.2996    5.0089   18.2510 C.3     1  UNL1        0.1435
     21 C          -3.3397    3.9938   18.7973 C.3     1  UNL1        0.0481
     22 C           5.8176   -3.9028   23.0443 C.3     1  UNL1        0.1177
     23 O           7.6978   -5.9679   24.1397 O.2     1  UNL1       -0.2526
     24 C           6.9670   -5.0488   25.0730 C.2     1  UNL1        0.3047
     25 N           6.0269   -4.0163   24.5253 N.am    1  UNL1       -0.2847
     26 N           7.1762   -5.1623   26.5540 N.am    1  UNL1       -0.2560
     27 C           8.0797   -6.1406   27.2444 C.3     1  UNL1        0.1218
     28 C           7.9806   -5.9003   28.7217 C.ar    1  UNL1       -0.0016
     29 C           8.6442   -6.5620   29.8929 C.ar    1  UNL1        0.0178
     30 C           8.3430   -6.0969   31.2868 C.ar    1  UNL1        0.0986
     31 N           7.3783   -4.9701   31.5094 N.ar    1  UNL1       -0.2426
     32 C           6.7147   -4.3084   30.3382 C.ar    1  UNL1        0.0960
     33 C           7.0159   -4.7735   28.9443 C.ar    1  UNL1        0.0146
     34 C           6.5188   -4.3174   27.6046 C.3     1  UNL1        0.1233
     35 H           5.5472   -3.4130   25.1378 H       1  UNL1        0.1513
@<TRIPOS>BOND
     1    23    24    2
     2    24    25   am
     3    25    22    1
     4    22     1    1
     5     1     2   ar
     6     2     3   ar
     7     3     4   ar
     8     4     7    1
     9     7     8    2
    10     7     9    2
    11     7    10    1
    12    10    11    1
    13    11    12    1
    14    12    13    1
    15    13    16    1
    16    16    17    1
    17    17    18    1
    18    18    19    1
    19    19    20    1
    20    20    21    1
    21    13    14    1
    22    14    15    1
    23     4     5   ar
    24     5     6   ar
    25    24    26   am
    26    26    27    1
    27    27    28    1
    28    28    29   ar
    29    29    30   ar
    30    30    31   ar
    31    31    32   ar
    32    32    33   ar
    33    33    34    1
    34     6     1   ar
    35    34    26    1
    36    15    10    1
    37    33    28   ar
    38    21    16    1
    39    25    35    1
@<TRIPOS>MOLECULE
*****
 35 39 0 0 0
SMALL
GASTEIGER

@<TRIPOS>ATOM
      1 C          -1.0005    2.3880   26.9803 C.ar    1  UNL1       -0.0024
      2 C           0.3682    2.6317   26.4172 C.ar    1  UNL1       -0.0013
      3 C           1.5390    1.8423   26.9234 C.ar    1  UNL1        0.0181
      4 C           1.3410    0.8093   27.9928 C.ar    1  UNL1        0.1056
      5 C          -0.0278    0.5656   28.5560 C.ar    1  UNL1        0.0181
      6 C          -1.1985    1.3549   28.0497 C.ar    1  UNL1       -0.0013
      7 S           2.5117    0.0199   28.4991 S.O2    1  UNL1        0.0071
      8 O           1.7800   -0.2425   29.7819 O.2     1  UNL1       -0.1687
      9 O           3.2434    0.2824   27.2163 O.2     1  UNL1       -0.1687
     10 C           3.6824   -0.7694   29.0053 C.3     1  UNL1        0.1366
     11 C           3.9572   -0.8424   30.4782 C.3     1  UNL1        0.0413
     12 C           5.1279   -1.6318   30.9844 C.3     1  UNL1        0.0738
     13 N           6.0238   -2.3481   30.0179 N.3     1  UNL1       -0.2737
     14 C           5.7491   -2.2751   28.5451 C.3     1  UNL1        0.0738
     15 C           4.5783   -1.4858   28.0388 C.3     1  UNL1        0.0413
     16 C           7.1945   -3.1375   30.5242 C.3     1  UNL1        0.0625
     17 C           7.3574   -4.5752   30.1283 C.3     1  UNL1        0.0481
     18 C           8.5281   -5.3645   30.6345 C.3     1  UNL1        0.1435
     19 O           9.5360   -4.7163   31.5367 O.3     1  UNL1       -0.3537
     20 C           9.3732   -3.2787   31.9325 C.3     1  UNL1        0.1435
     21 C           8.2025   -2.4892   31.4263 C.3     1  UNL1        0.0481
     22 C          -2.1713    3.1774   26.4741 C.3     1  UNL1        0.1177
     23 O          -4.9794    3.2737   25.4228 O.2     1  UNL1       -0.2526
     24 C          -3.8203    3.3412   24.4731 C.2     1  UNL1        0.3047
     25 N          -2.4163    3.2930   24.9987 N.am    1  UNL1       -0.2847
     26 N          -4.0653    3.4569   22.9977 N.am    1  UNL1       -0.2560
     27 C          -5.4064    3.5159   22.3286 C.3     1  UNL1        0.1218
     28 C          -5.1821    3.6294   20.8498 C.ar    1  UNL1       -0.0016
     29 C          -6.1342    3.7240   19.6946 C.ar    1  UNL1        0.0178
     30 C          -5.6064    3.8297   18.2945 C.ar    1  UNL1        0.0986
     31 N          -4.1265    3.8409   18.0497 N.ar    1  UNL1       -0.2426
     32 C          -3.1745    3.7463   19.2049 C.ar    1  UNL1        0.0960
     33 C          -3.7023    3.6405   20.6050 C.ar    1  UNL1        0.0146
     34 C          -3.0120    3.5339   21.9325 C.3     1  UNL1        0.1233
     35 H          -1.6555    3.3373   24.3754 H       1  UNL1        0.1513
@<TRIPOS>BOND
     1    23    24    2
     2    24    25   am
     3    25    22    1
     4    22     1    1
     5     1     2   ar
     6     2     3   ar
     7     3     4   ar
     8     4     7    1
     9     7     8    2
    10     7     9    2
    11     7    10    1
    12    10    11    1
    13    11    12    1
    14    12    13    1
    15    13    16    1
    16    16    17    1
    17    17    18    1
    18    18    19    1
    19    19    20    1
    20    20    21    1
    21    13    14    1
    22    14    15    1
    23     4     5   ar
    24     5     6   ar
    25    24    26   am
    26    26    27    1
    27    27    28    1
    28    28    29   ar
    29    29    30   ar
    30    30    31   ar
    31    31    32   ar
    32    32    33   ar
    33    33    34    1
    34     6     1   ar
    35    34    26    1
    36    15    10    1
    37    33    28   ar
    38    21    16    1
    39    25    35    1
@<TRIPOS>MOLECULE
*****
 35 39 0 0 0
SMALL
GASTEIGER

@<TRIPOS>ATOM
      1 C          -4.4442    4.4030   24.0626 C.ar    1  UNL1       -0.0024
      2 C          -4.9346    5.1394   25.2738 C.ar    1  UNL1       -0.0013
      3 C          -6.3981    5.4254   25.4362 C.ar    1  UNL1        0.0181
      4 C          -7.3712    4.9749   24.3873 C.ar    1  UNL1        0.1056
      5 C          -6.8808    4.2384   23.1761 C.ar    1  UNL1        0.0181
      6 C          -5.4173    3.9524   23.0137 C.ar    1  UNL1       -0.0013
      7 S          -8.8347    5.2608   24.5497 S.O2    1  UNL1        0.0071
      8 O          -8.5060    6.5500   25.2424 O.2     1  UNL1       -0.1687
      9 O          -9.1634    3.9716   23.8570 O.2     1  UNL1       -0.1687
     10 C         -10.2982    5.5467   24.7121 C.3     1  UNL1        0.1366
     11 C         -11.2564    4.4243   24.9808 C.3     1  UNL1        0.0413
     12 C         -12.7199    4.7103   25.1432 C.3     1  UNL1        0.0738
     13 N         -13.2253    6.1186   25.0369 N.3     1  UNL1       -0.2737
     14 C         -12.2671    7.2409   24.7682 C.3     1  UNL1        0.0738
     15 C         -10.8036    6.9550   24.6058 C.3     1  UNL1        0.0413
     16 C         -14.6887    6.4045   25.1992 C.3     1  UNL1        0.0625
     17 C         -15.1836    7.1084   26.4280 C.3     1  UNL1        0.0481
     18 C         -16.6471    7.3943   26.5903 C.3     1  UNL1        0.1435
     19 O         -17.6158    6.9764   25.5240 O.3     1  UNL1       -0.3537
     20 C         -17.1210    6.2725   24.2954 C.3     1  UNL1        0.1435
     21 C         -15.6574    5.9866   24.1329 C.3     1  UNL1        0.0481
     22 C          -2.9806    4.1170   23.9001 C.3     1  UNL1        0.1177
     23 O          -1.3855    5.4687   26.0514 O.2     1  UNL1       -0.2526
     24 C          -1.4610    3.9715   26.0023 C.2     1  UNL1        0.3047
     25 N          -2.2585    3.2956   24.9267 N.am    1  UNL1       -0.2847
     26 N          -0.7389    3.1501   27.0289 N.am    1  UNL1       -0.2560
     27 C           0.0934    3.6823   28.1577 C.3     1  UNL1        0.1218
     28 C           0.6244    2.5134   28.9334 C.ar    1  UNL1       -0.0016
     29 C           1.5018    2.4295   30.1471 C.ar    1  UNL1        0.0178
     30 C           1.8751    1.0908   30.7114 C.ar    1  UNL1        0.0986
     31 N           1.3711   -0.1639   30.0621 N.ar    1  UNL1       -0.2426
     32 C           0.4937   -0.0799   28.8484 C.ar    1  UNL1        0.0960
     33 C           0.1204    1.2587   28.2840 C.ar    1  UNL1        0.0146
     34 C          -0.7222    1.6522   27.1070 C.3     1  UNL1        0.1233
     35 H          -2.3081    2.3129   24.8945 H       1  UNL1        0.1513
@<TRIPOS>BOND
     1    23    24    2
     2    24    25   am
     3    25    22    1
     4    22     1    1
     5     1     2   ar
     6     2     3   ar
     7     3     4   ar
     8     4     7    1
     9     7     8    2
    10     7     9    2
    11     7    10    1
    12    10    11    1
    13    11    12    1
    14    12    13    1
    15    13    16    1
    16    16    17    1
    17    17    18    1
    18    18    19    1
    19    19    20    1
    20    20    21    1
    21    13    14    1
    22    14    15    1
    23     4     5   ar
    24     5     6   ar
    25    24    26   am
    26    26    27    1
    27    27    28    1
    28    28    29   ar
    29    29    30   ar
    30    30    31   ar
    31    31    32   ar
    32    32    33   ar
    33    33    34    1
    34     6     1   ar
    35    34    26    1
    36    15    10    1
    37    33    28   ar
    38    21    16    1
    39    25    35    1
@<TRIPOS>MOLECULE
*****
 35 39 0 0 0
SMALL
GASTEIGER

@<TRIPOS>ATOM
      1 C          -1.4263    2.7333   25.5104 C.ar    1  UNL1       -0.0024
      2 C          -1.5022    2.6252   27.0045 C.ar    1  UNL1       -0.0013
      3 C          -0.4042    1.9410   27.7637 C.ar    1  UNL1        0.0181
      4 C           0.7697    1.3649   27.0287 C.ar    1  UNL1        0.1056
      5 C           0.8455    1.4732   25.5345 C.ar    1  UNL1        0.0181
      6 C          -0.2524    2.1573   24.7753 C.ar    1  UNL1       -0.0013
      7 S           1.8676    0.6808   27.7878 S.O2    1  UNL1        0.0071
      8 O           0.8716    0.2135   28.8073 O.2     1  UNL1       -0.1687
      9 O           2.8637    1.1481   26.7683 O.2     1  UNL1       -0.1687
     10 C           2.9656   -0.0034   28.5470 C.3     1  UNL1        0.1366
     11 C           4.1405   -0.5776   27.8121 C.3     1  UNL1        0.0413
     12 C           5.2385   -1.2618   28.5712 C.3     1  UNL1        0.0738
     13 N           5.1616   -1.3718   30.0652 N.3     1  UNL1       -0.2737
     14 C           3.9867   -0.7977   30.8001 C.3     1  UNL1        0.0738
     15 C           2.8887   -0.1135   30.0409 C.3     1  UNL1        0.0413
     16 C           6.2596   -2.0560   30.8244 C.3     1  UNL1        0.0625
     17 C           7.0437   -1.2987   31.8548 C.3     1  UNL1        0.0481
     18 C           8.1416   -1.9829   32.6139 C.3     1  UNL1        0.1435
     19 O           8.4556   -3.4244   32.3427 O.3     1  UNL1       -0.3537
     20 C           7.6715   -4.1817   31.3123 C.3     1  UNL1        0.1435
     21 C           6.5735   -3.4975   30.5531 C.3     1  UNL1        0.0481
     22 C          -2.5243    3.4175   24.7511 C.3     1  UNL1        0.1177
     23 O          -4.9507    3.1387   23.0092 O.2     1  UNL1       -0.2526
     24 C          -3.6207    3.4631   22.3962 C.2     1  UNL1        0.3047
     25 N          -2.4075    3.6026   23.2672 N.am    1  UNL1       -0.2847
     26 N          -3.5039    3.6482   20.9122 N.am    1  UNL1       -0.2560
     27 C          -4.6231    3.5402   19.9195 C.3     1  UNL1        0.1218
     28 C          -4.0583    3.7990   18.5542 C.ar    1  UNL1       -0.0016
     29 C          -4.6914    3.8253   17.1946 C.ar    1  UNL1        0.0178
     30 C          -3.8561    4.1194   15.9839 C.ar    1  UNL1        0.0986
     31 N          -2.3877    4.3873   16.1329 N.ar    1  UNL1       -0.2426
     32 C          -1.7547    4.3610   17.4925 C.ar    1  UNL1        0.0960
     33 C          -2.5900    4.0668   18.7031 C.ar    1  UNL1        0.0146
     34 C          -2.2473    3.9736   20.1605 C.3     1  UNL1        0.1233
     35 H          -1.5345    3.8155   22.8649 H       1  UNL1        0.1513
@<TRIPOS>BOND
     1    23    24    2
     2    24    25   am
     3    25    22    1
     4    22     1    1
     5     1     2   ar
     6     2     3   ar
     7     3     4   ar
     8     4     7    1
     9     7     8    2
    10     7     9    2
    11     7    10    1
    12    10    11    1
    13    11    12    1
    14    12    13    1
    15    13    16    1
    16    16    17    1
    17    17    18    1
    18    18    19    1
    19    19    20    1
    20    20    21    1
    21    13    14    1
    22    14    15    1
    23     4     5   ar
    24     5     6   ar
    25    24    26   am
    26    26    27    1
    27    27    28    1
    28    28    29   ar
    29    29    30   ar
    30    30    31   ar
    31    31    32   ar
    32    32    33   ar
    33    33    34    1
    34     6     1   ar
    35    34    26    1
    36    15    10    1
    37    33    28   ar
    38    21    16    1
    39    25    35    1
@<TRIPOS>MOLECULE
*****
 35 39 0 0 0
SMALL
GASTEIGER

@<TRIPOS>ATOM
      1 C           5.8859   -2.0865   30.9390 C.ar    1  UNL1       -0.0024
      2 C           6.5133   -2.7342   29.7403 C.ar    1  UNL1       -0.0013
      3 C           5.9846   -2.4422   28.3672 C.ar    1  UNL1        0.0181
      4 C           4.8284   -1.5026   28.1929 C.ar    1  UNL1        0.1056
      5 C           4.2009   -0.8550   29.3917 C.ar    1  UNL1        0.0181
      6 C           4.7297   -1.1470   30.7646 C.ar    1  UNL1       -0.0013
      7 S           4.2997   -1.2107   26.8199 S.O2    1  UNL1        0.0071
      8 O           5.4031   -2.0311   26.2205 O.2     1  UNL1       -0.1687
      9 O           3.1963   -0.3902   27.4193 O.2     1  UNL1       -0.1687
     10 C           3.7710   -0.9187   25.4469 C.3     1  UNL1        0.1366
     11 C           2.7671    0.1779   25.2473 C.3     1  UNL1        0.0413
     12 C           2.2384    0.4698   23.8743 C.3     1  UNL1        0.0738
     13 N           2.7135   -0.3348   22.7009 N.3     1  UNL1       -0.2737
     14 C           3.7173   -1.4313   22.9004 C.3     1  UNL1        0.0738
     15 C           4.2461   -1.7233   24.2735 C.3     1  UNL1        0.0413
     16 C           2.1848   -0.0428   21.3279 C.3     1  UNL1        0.0625
     17 C           0.8648    0.6508   21.1643 C.3     1  UNL1        0.0481
     18 C           0.3361    0.9428   19.7913 C.3     1  UNL1        0.1435
     19 O           1.1272    0.5412   18.5818 O.3     1  UNL1       -0.3537
     20 C           2.4471   -0.1524   18.7454 C.3     1  UNL1        0.1435
     21 C           2.9759   -0.4444   20.1184 C.3     1  UNL1        0.0481
     22 C           6.4146   -2.3785   32.3121 C.3     1  UNL1        0.1177
     23 O           8.0265   -0.2808   33.7266 O.2     1  UNL1       -0.2526
     24 C           6.6477   -0.6198   34.2102 C.2     1  UNL1        0.3047
     25 N           5.8417   -1.6687   33.5029 N.am    1  UNL1       -0.2847
     26 N           6.0749    0.0900   35.4010 N.am    1  UNL1       -0.2560
     27 C           6.7586    1.1554   36.2054 C.3     1  UNL1        0.1218
     28 C           5.8240    1.5829   37.2981 C.ar    1  UNL1       -0.0016
     29 C           5.9587    2.5983   38.3939 C.ar    1  UNL1        0.0178
     30 C           4.8319    2.8123   39.3606 C.ar    1  UNL1        0.0986
     31 N           3.5704    2.0109   39.2314 N.ar    1  UNL1       -0.2426
     32 C           3.4358    0.9956   38.1356 C.ar    1  UNL1        0.0960
     33 C           4.5626    0.7816   37.1689 C.ar    1  UNL1        0.0146
     34 C           4.7176   -0.1411   35.9964 C.3     1  UNL1        0.1233
     35 H           4.9367   -1.8912   33.8203 H       1  UNL1        0.1513
@<TRIPOS>BOND
     1    23    24    2
     2    24    25   am
     3    25    22    1
     4    22     1    1
     5     1     2   ar
     6     2     3   ar
     7     3     4   ar
     8     4     7    1
     9     7     8    2
    10     7     9    2
    11     7    10    1
    12    10    11    1
    13    11    12    1
    14    12    13    1
    15    13    16    1
    16    16    17    1
    17    17    18    1
    18    18    19    1
    19    19    20    1
    20    20    21    1
    21    13    14    1
    22    14    15    1
    23     4     5   ar
    24     5     6   ar
    25    24    26   am
    26    26    27    1
    27    27    28    1
    28    28    29   ar
    29    29    30   ar
    30    30    31   ar
    31    31    32   ar
    32    32    33   ar
    33    33    34    1
    34     6     1   ar
    35    34    26    1
    36    15    10    1
    37    33    28   ar
    38    21    16    1
    39    25    35    1
@<TRIPOS>MOLECULE
*****
 35 39 0 0 0
SMALL
GASTEIGER

@<TRIPOS>ATOM
      1 C           1.0305    2.3642   30.3681 C.ar    1  UNL1       -0.0024
      2 C           0.6226    2.8984   29.0272 C.ar    1  UNL1       -0.0013
      3 C           1.1141    2.2354   27.7745 C.ar    1  UNL1        0.0181
      4 C           2.0134    1.0382   27.8630 C.ar    1  UNL1        0.1056
      5 C           2.4213    0.5040   29.2040 C.ar    1  UNL1        0.0181
      6 C           1.9298    1.1670   30.4565 C.ar    1  UNL1       -0.0013
      7 S           2.5049    0.3752   26.6104 S.O2    1  UNL1        0.0071
      8 O           1.7998    1.4108   25.7856 O.2     1  UNL1       -0.1687
      9 O           3.2100   -0.6603   27.4353 O.2     1  UNL1       -0.1687
     10 C           2.9964   -0.2877   25.3579 C.3     1  UNL1        0.1366
     11 C           2.4619    0.1405   24.0233 C.3     1  UNL1        0.0413
     12 C           2.9534   -0.5225   22.7708 C.3     1  UNL1        0.0738
     13 N           3.9794   -1.6137   22.8528 N.3     1  UNL1       -0.2737
     14 C           4.5138   -2.0419   24.1873 C.3     1  UNL1        0.0738
     15 C           4.0224   -1.3789   25.4399 C.3     1  UNL1        0.0413
     16 C           4.4709   -2.2767   21.6003 C.3     1  UNL1        0.0625
     17 C           3.6736   -2.1722   20.3339 C.3     1  UNL1        0.0481
     18 C           4.1651   -2.8352   19.0814 C.3     1  UNL1        0.1435
     19 O           5.4538   -3.6027   19.0951 O.3     1  UNL1       -0.3537
     20 C           6.2510   -3.7072   20.3614 C.3     1  UNL1        0.1435
     21 C           5.7596   -3.0442   21.6140 C.3     1  UNL1        0.0481
     22 C           0.5390    3.0272   31.6207 C.3     1  UNL1        0.1177
     23 O           0.8616    5.2573   33.6011 O.2     1  UNL1       -0.2526
     24 C           1.3978    3.8921   33.9151 C.2     1  UNL1        0.3047
     25 N           1.2365    2.7771   32.9249 N.am    1  UNL1       -0.2847
     26 N           2.0953    3.6420   35.2193 N.am    1  UNL1       -0.2560
     27 C           2.3302    4.6535   36.3017 C.3     1  UNL1        0.1218
     28 C           3.0605    3.9731   37.4215 C.ar    1  UNL1       -0.0016
     29 C           3.5563    4.4725   38.7461 C.ar    1  UNL1        0.0178
     30 C           4.2686    3.5399   39.6803 C.ar    1  UNL1        0.0986
     31 N           4.4850    2.1079   39.2899 N.ar    1  UNL1       -0.2426
     32 C           3.9892    1.6084   37.9653 C.ar    1  UNL1        0.0960
     33 C           3.2769    2.5411   37.0311 C.ar    1  UNL1        0.0146
     34 C           2.6804    2.3365   35.6700 C.3     1  UNL1        0.1233
     35 H           1.5884    1.8810   33.1310 H       1  UNL1        0.1513
@<TRIPOS>BOND
     1    23    24    2
     2    24    25   am
     3    25    22    1
     4    22     1    1
     5     1     2   ar
     6     2     3   ar
     7     3     4   ar
     8     4     7    1
     9     7     8    2
    10     7     9    2
    11     7    10    1
    12    10    11    1
    13    11    12    1
    14    12    13    1
    15    13    16    1
    16    16    17    1
    17    17    18    1
    18    18    19    1
    19    19    20    1
    20    20    21    1
    21    13    14    1
    22    14    15    1
    23     4     5   ar
    24     5     6   ar
    25    24    26   am
    26    26    27    1
    27    27    28    1
    28    28    29   ar
    29    29    30   ar
    30    30    31   ar
    31    31    32   ar
    32    32    33   ar
    33    33    34    1
    34     6     1   ar
    35    34    26    1
    36    15    10    1
    37    33    28   ar
    38    21    16    1
    39    25    35    1
