@<TRIPOS>MOLECULE
*****
 31 34 0 0 0
SMALL
GASTEIGER

@<TRIPOS>ATOM
      1 C          -6.8292  -16.6608   23.5106 C.ar    1  UNL1       -0.0100
      2 C          -6.0558  -17.8028   22.9208 C.ar    1  UNL1       -0.0075
      3 C          -6.6900  -18.6819   21.8839 C.ar    1  UNL1       -0.0200
      4 C          -8.0975  -18.4190   21.4369 C.ar    1  UNL1       -0.0045
      5 C          -8.8708  -17.2771   22.0267 C.ar    1  UNL1       -0.0035
      6 C          -8.2367  -16.3980   23.0635 C.ar    1  UNL1       -0.0036
      7 C         -10.2784  -17.0143   21.5796 C.2     1  UNL1       -0.0011
      8 C         -10.5333  -16.2248   20.3299 C.2     1  UNL1        0.0472
      9 C         -11.9407  -15.9619   19.8828 C.2     1  UNL1        0.2354
     10 N         -13.0933  -16.4886   20.6854 N.2     1  UNL1       -0.0320
     11 C         -12.8384  -17.2780   21.9351 C.2     1  UNL1        0.3872
     12 N         -13.7663  -17.9195   22.9239 N.2     1  UNL1        0.0820
     13 N         -12.9323  -18.5788   23.9821 N.2     1  UNL1       -0.0337
     14 C         -11.4889  -18.3448   23.6473 C.2     1  UNL1        0.1921
     15 C         -11.4309  -17.5409   22.3822 C.3     1  UNL1        0.1845
     16 C         -10.3105  -18.8295   24.4386 C.3     1  UNL1        0.4355
     17 F          -9.1320  -19.3144   25.2300 F       1  UNL1       -0.1645
     18 F         -10.2516  -20.0670   23.5929 F       1  UNL1       -0.1645
     19 F         -10.1052  -17.8545   25.3495 F       1  UNL1       -0.1645
     20 C          -6.1950  -15.7817   24.5474 C.3     1  UNL1        0.0980
     21 C          -5.1579  -14.9654   25.2602 C.3     1  UNL1        0.0196
     22 C          -4.8144  -15.6573   23.9743 C.3     1  UNL1        0.0196
     23 N          -8.5158  -15.4200   26.4138 N.1     1  UNL1       -0.1956
     24 C          -7.3554  -15.6009   25.4806 C.1     1  UNL1        0.0752
     25 C          -5.9166  -19.8238   21.2941 C.3     1  UNL1        0.0581
     26 C          -4.8391  -19.5580   20.2849 C.3     1  UNL1        0.1440
     27 O          -4.9520  -18.3834   19.3589 O.3     1  UNL1       -0.3816
     28 H          -5.7746  -17.9038   19.5438 H       1  UNL1        0.2105
     29 C          -3.6487  -20.4669   20.2017 C.3     1  UNL1        0.1666
     30 O          -2.5027  -20.2908   21.1534 O.3     1  UNL1       -0.3795
     31 H          -2.0693  -19.4398   20.9836 H       1  UNL1        0.2105
@<TRIPOS>BOND
     1    23    24    3
     2    24    20    1
     3    20     1    1
     4     1     2   ar
     5     2     3   ar
     6     3    25    1
     7    25    26    1
     8    26    27    1
     9    26    29    1
    10    29    30    1
    11     3     4   ar
    12     4     5   ar
    13     5     7    1
    14     7     8    2
    15     8     9    1
    16     9    10    2
    17    10    11    1
    18    11    12    2
    19    12    13    1
    20    13    14    2
    21    14    16    1
    22    16    17    1
    23    16    18    1
    24    16    19    1
    25    14    15    1
    26     5     6   ar
    27    20    21    1
    28    21    22    1
    29    22    20    1
    30     6     1   ar
    31    15     7    1
    32    15    11    1
    33    27    28    1
    34    30    31    1
@<TRIPOS>MOLECULE
*****
 31 34 0 0 0
SMALL
GASTEIGER

@<TRIPOS>ATOM
      1 C          -6.6171  -16.8185   23.3687 C.ar    1  UNL1       -0.0100
      2 C          -6.0173  -18.1417   22.9954 C.ar    1  UNL1       -0.0075
      3 C          -6.8167  -19.1293   22.1981 C.ar    1  UNL1       -0.0200
      4 C          -8.2159  -18.7938   21.7743 C.ar    1  UNL1       -0.0045
      5 C          -8.8158  -17.4706   22.1477 C.ar    1  UNL1       -0.0035
      6 C          -8.0164  -16.4830   22.9448 C.ar    1  UNL1       -0.0036
      7 C         -10.2150  -17.1351   21.7238 C.2     1  UNL1       -0.0011
      8 C         -10.4516  -16.3749   20.4526 C.2     1  UNL1        0.0472
      9 C         -11.8508  -16.0394   20.0287 C.2     1  UNL1        0.2354
     10 N         -13.0133  -16.4641   20.8760 N.2     1  UNL1       -0.0320
     11 C         -12.7767  -17.2244   22.1472 C.2     1  UNL1        0.3872
     12 N         -13.7176  -17.7715   23.1795 N.2     1  UNL1        0.0820
     13 N         -12.8999  -18.4450   24.2414 N.2     1  UNL1       -0.0337
     14 C         -11.4537  -18.3143   23.8654 C.2     1  UNL1        0.1921
     15 C         -11.3776  -17.5599   22.5711 C.3     1  UNL1        0.1845
     16 C         -10.2881  -18.8448   24.6465 C.3     1  UNL1        0.4355
     17 F          -9.1226  -19.3754   25.4276 F       1  UNL1       -0.1645
     18 F         -10.5110  -20.2052   24.0551 F       1  UNL1       -0.1645
     19 F          -9.8397  -17.7724   25.3330 F       1  UNL1       -0.1645
     20 C          -5.8178  -15.8308   24.1659 C.3     1  UNL1        0.0980
     21 C          -5.4435  -14.8780   25.2622 C.3     1  UNL1        0.0196
     22 C          -6.7642  -15.5881   25.3041 C.3     1  UNL1        0.0196
     23 N          -3.3699  -15.6303   22.4432 N.1     1  UNL1       -0.1956
     24 C          -4.5939  -15.7305   23.3046 C.1     1  UNL1        0.0752
     25 C          -6.2169  -20.4525   21.8248 C.3     1  UNL1        0.0581
     26 C          -5.8201  -20.7218   20.4035 C.3     1  UNL1        0.1440
     27 O          -4.4371  -20.3806   19.9334 O.3     1  UNL1       -0.3816
     28 H          -3.9316  -19.9974   20.6672 H       1  UNL1        0.2105
     29 C          -6.8062  -21.3323   19.4523 C.3     1  UNL1        0.1666
     30 O          -7.9813  -20.5319   18.9742 O.3     1  UNL1       -0.3795
     31 H          -8.5708  -20.3451   19.7214 H       1  UNL1        0.2105
@<TRIPOS>BOND
     1    23    24    3
     2    24    20    1
     3    20     1    1
     4     1     2   ar
     5     2     3   ar
     6     3    25    1
     7    25    26    1
     8    26    27    1
     9    26    29    1
    10    29    30    1
    11     3     4   ar
    12     4     5   ar
    13     5     7    1
    14     7     8    2
    15     8     9    1
    16     9    10    2
    17    10    11    1
    18    11    12    2
    19    12    13    1
    20    13    14    2
    21    14    16    1
    22    16    17    1
    23    16    18    1
    24    16    19    1
    25    14    15    1
    26     5     6   ar
    27    20    21    1
    28    21    22    1
    29    22    20    1
    30     6     1   ar
    31    15     7    1
    32    15    11    1
    33    27    28    1
    34    30    31    1
@<TRIPOS>MOLECULE
*****
 31 34 0 0 0
SMALL
GASTEIGER

@<TRIPOS>ATOM
      1 C           4.0100   -2.9056   20.2450 C.ar    1  UNL1       -0.0100
      2 C           4.4321   -3.0037   21.6811 C.ar    1  UNL1       -0.0075
      3 C           4.0163   -1.9450   22.6590 C.ar    1  UNL1       -0.0200
      4 C           3.1786   -0.7882   22.2009 C.ar    1  UNL1       -0.0045
      5 C           2.7565   -0.6900   20.7648 C.ar    1  UNL1       -0.0035
      6 C           3.1722   -1.7487   19.7869 C.ar    1  UNL1       -0.0036
      7 C           1.9187    0.4669   20.3067 C.2     1  UNL1       -0.0011
      8 C           0.4472    0.4886   20.5969 C.2     1  UNL1        0.0472
      9 C          -0.3905    1.6454   20.1389 C.2     1  UNL1        0.2354
     10 N           0.2432    2.7805   19.3906 N.2     1  UNL1       -0.0320
     11 C           1.7147    2.7588   19.1004 C.2     1  UNL1        0.3872
     12 N           2.6117    3.7277   18.3886 N.2     1  UNL1        0.0820
     13 N           4.0039    3.1696   18.4068 N.2     1  UNL1       -0.0337
     14 C           3.9673    1.8558   19.1298 C.2     1  UNL1        0.1921
     15 C           2.5525    1.6019   19.5585 C.3     1  UNL1        0.1845
     16 C           5.1396    0.9543   19.3802 C.3     1  UNL1        0.4355
     17 F           6.3121    0.0526   19.6305 F       1  UNL1       -0.1645
     18 F           5.0443    0.4399   17.9744 F       1  UNL1       -0.1645
     19 F           5.4782    1.2071   20.6623 F       1  UNL1       -0.1645
     20 C           4.4257   -3.9643   19.2671 C.3     1  UNL1        0.0980
     21 C           4.5022   -5.2939   18.5771 C.3     1  UNL1        0.0196
     22 C           3.5933   -5.1122   19.7565 C.3     1  UNL1        0.0196
     23 N           6.3792   -2.4038   17.6091 N.1     1  UNL1       -0.1956
     24 C           5.4024   -3.1841   18.4381 C.1     1  UNL1        0.0752
     25 C           4.4384   -2.0431   24.0951 C.3     1  UNL1        0.0581
     26 C           4.4693   -0.8133   24.9534 C.3     1  UNL1        0.1440
     27 O           5.3074    0.3630   24.5486 O.3     1  UNL1       -0.3816
     28 H           5.7613    0.1649   23.7146 H       1  UNL1        0.2105
     29 C           3.6621   -0.7598   26.2166 C.3     1  UNL1        0.1666
     30 O           3.4077   -2.0148   26.9978 O.3     1  UNL1       -0.3795
     31 H           2.8519   -2.6139   26.4752 H       1  UNL1        0.2105
@<TRIPOS>BOND
     1    23    24    3
     2    24    20    1
     3    20     1    1
     4     1     2   ar
     5     2     3   ar
     6     3    25    1
     7    25    26    1
     8    26    27    1
     9    26    29    1
    10    29    30    1
    11     3     4   ar
    12     4     5   ar
    13     5     7    1
    14     7     8    2
    15     8     9    1
    16     9    10    2
    17    10    11    1
    18    11    12    2
    19    12    13    1
    20    13    14    2
    21    14    16    1
    22    16    17    1
    23    16    18    1
    24    16    19    1
    25    14    15    1
    26     5     6   ar
    27    20    21    1
    28    21    22    1
    29    22    20    1
    30     6     1   ar
    31    15     7    1
    32    15    11    1
    33    27    28    1
    34    30    31    1
@<TRIPOS>MOLECULE
*****
 31 34 0 0 0
SMALL
GASTEIGER

@<TRIPOS>ATOM
      1 C         -17.3289   -6.6821   19.3037 C.ar    1  UNL1       -0.0100
      2 C         -17.7566   -5.2491   19.1876 C.ar    1  UNL1       -0.0075
      3 C         -16.8465   -4.2445   18.5452 C.ar    1  UNL1       -0.0200
      4 C         -15.5089   -4.6729   18.0188 C.ar    1  UNL1       -0.0045
      5 C         -15.0812   -6.1060   18.1349 C.ar    1  UNL1       -0.0035
      6 C         -15.9912   -7.1106   18.7774 C.ar    1  UNL1       -0.0036
      7 C         -13.7435   -6.5344   17.6086 C.2     1  UNL1       -0.0011
      8 C         -13.6608   -7.5517   16.5093 C.2     1  UNL1        0.0472
      9 C         -12.3232   -7.9801   15.9829 C.2     1  UNL1        0.2354
     10 N         -11.0682   -7.3914   16.5558 N.2     1  UNL1       -0.0320
     11 C         -11.1508   -6.3742   17.6551 C.2     1  UNL1        0.3872
     12 N         -10.0936   -5.6247   18.4107 N.2     1  UNL1        0.0820
     13 N         -10.7779   -4.7331   19.4040 N.2     1  UNL1       -0.0337
     14 C         -12.2580   -4.9315   19.2623 C.2     1  UNL1        0.1921
     15 C         -12.4885   -5.9457   18.1815 C.3     1  UNL1        0.1845
     16 C         -13.3210   -4.2375   20.0613 C.3     1  UNL1        0.4355
     17 F         -14.3841   -3.5434   20.8602 F       1  UNL1       -0.1645
     18 F         -13.0626   -2.9691   19.3034 F       1  UNL1       -0.1645
     19 F         -13.7783   -5.1940   20.8971 F       1  UNL1       -0.1645
     20 C         -18.2389   -7.6867   19.9461 C.3     1  UNL1        0.0980
     21 C         -19.4700   -8.2819   20.5626 C.3     1  UNL1        0.0196
     22 C         -19.4796   -6.8568   20.0945 C.3     1  UNL1        0.0196
     23 N         -16.3896  -10.0442   20.0957 N.1     1  UNL1       -0.1956
     24 C         -17.3142   -8.8654   20.0209 C.1     1  UNL1        0.0752
     25 C         -17.2742   -2.8114   18.4291 C.3     1  UNL1        0.0581
     26 C         -17.5917   -2.0211   19.6639 C.3     1  UNL1        0.1440
     27 O         -16.5043   -1.2709   20.3744 O.3     1  UNL1       -0.3816
     28 H         -15.6637   -1.4016   19.9084 H       1  UNL1        0.2105
     29 C         -18.9965   -1.9810   20.1881 C.3     1  UNL1        0.1666
     30 O         -19.3101   -2.5554   21.5378 O.3     1  UNL1       -0.3795
     31 H         -19.1704   -3.5152   21.5211 H       1  UNL1        0.2105
@<TRIPOS>BOND
     1    23    24    3
     2    24    20    1
     3    20     1    1
     4     1     2   ar
     5     2     3   ar
     6     3    25    1
     7    25    26    1
     8    26    27    1
     9    26    29    1
    10    29    30    1
    11     3     4   ar
    12     4     5   ar
    13     5     7    1
    14     7     8    2
    15     8     9    1
    16     9    10    2
    17    10    11    1
    18    11    12    2
    19    12    13    1
    20    13    14    2
    21    14    16    1
    22    16    17    1
    23    16    18    1
    24    16    19    1
    25    14    15    1
    26     5     6   ar
    27    20    21    1
    28    21    22    1
    29    22    20    1
    30     6     1   ar
    31    15     7    1
    32    15    11    1
    33    27    28    1
    34    30    31    1
@<TRIPOS>MOLECULE
*****
 31 34 0 0 0
SMALL
GASTEIGER

@<TRIPOS>ATOM
      1 C           4.2086   -2.0439   19.8216 C.ar    1  UNL1       -0.0100
      2 C           3.8819   -2.1141   21.2839 C.ar    1  UNL1       -0.0075
      3 C           3.4874   -0.8708   22.0247 C.ar    1  UNL1       -0.0200
      4 C           3.4197    0.4425   21.3033 C.ar    1  UNL1       -0.0045
      5 C           3.7465    0.5127   19.8410 C.ar    1  UNL1       -0.0035
      6 C           4.1409   -0.7305   19.1001 C.ar    1  UNL1       -0.0036
      7 C           3.6788    1.8261   19.1195 C.2     1  UNL1       -0.0011
      8 C           4.9425    2.5248   18.7135 C.2     1  UNL1        0.0472
      9 C           4.8748    3.8381   17.9921 C.2     1  UNL1        0.2354
     10 N           3.5434    4.4528   17.6766 N.2     1  UNL1       -0.0320
     11 C           2.2797    3.7541   18.0826 C.2     1  UNL1        0.3872
     12 N           0.8338    4.1139   17.9094 N.2     1  UNL1        0.0820
     13 N           0.0079    3.0228   18.5238 N.2     1  UNL1       -0.0337
     14 C           0.9433    1.9888   19.0767 C.2     1  UNL1        0.1921
     15 C           2.3474    2.4407   18.8041 C.3     1  UNL1        0.1845
     16 C           0.5447    0.7247   19.7790 C.3     1  UNL1        0.4355
     17 F           0.1461   -0.5394   20.4812 F       1  UNL1       -0.1645
     18 F           0.9120   -0.0684   18.5599 F       1  UNL1       -0.1645
     19 F           0.1371    1.1420   20.9964 F       1  UNL1       -0.1645
     20 C           4.6030   -3.2871   19.0808 C.3     1  UNL1        0.0980
     21 C           4.5966   -4.7137   18.6175 C.3     1  UNL1        0.0196
     22 C           3.5857   -4.2471   19.6227 C.3     1  UNL1        0.0196
     23 N           6.9116   -2.2307   17.4823 N.1     1  UNL1       -0.1956
     24 C           5.7573   -2.7590   18.2816 C.1     1  UNL1        0.0752
     25 C           3.1607   -0.9409   23.4870 C.3     1  UNL1        0.0581
     26 C           4.2650   -1.0134   24.4996 C.3     1  UNL1        0.1440
     27 O           5.6889   -0.8144   24.0720 O.3     1  UNL1       -0.3816
     28 H           5.7197   -0.6503   23.1165 H       1  UNL1        0.2105
     29 C           3.9454   -1.2850   25.9398 C.3     1  UNL1        0.1666
     30 O           2.7897   -0.5892   26.5957 O.3     1  UNL1       -0.3795
     31 H           2.9717    0.3622   26.6464 H       1  UNL1        0.2105
@<TRIPOS>BOND
     1    23    24    3
     2    24    20    1
     3    20     1    1
     4     1     2   ar
     5     2     3   ar
     6     3    25    1
     7    25    26    1
     8    26    27    1
     9    26    29    1
    10    29    30    1
    11     3     4   ar
    12     4     5   ar
    13     5     7    1
    14     7     8    2
    15     8     9    1
    16     9    10    2
    17    10    11    1
    18    11    12    2
    19    12    13    1
    20    13    14    2
    21    14    16    1
    22    16    17    1
    23    16    18    1
    24    16    19    1
    25    14    15    1
    26     5     6   ar
    27    20    21    1
    28    21    22    1
    29    22    20    1
    30     6     1   ar
    31    15     7    1
    32    15    11    1
    33    27    28    1
    34    30    31    1
@<TRIPOS>MOLECULE
*****
 31 34 0 0 0
SMALL
GASTEIGER

@<TRIPOS>ATOM
      1 C          -7.4943  -16.3074   24.6541 C.ar    1  UNL1       -0.0100
      2 C          -6.3325  -17.0926   24.1216 C.ar    1  UNL1       -0.0075
      3 C          -6.3965  -17.6870   22.7458 C.ar    1  UNL1       -0.0200
      4 C          -7.6223  -17.4961   21.9026 C.ar    1  UNL1       -0.0045
      5 C          -8.7841  -16.7108   22.4352 C.ar    1  UNL1       -0.0035
      6 C          -8.7201  -16.1165   23.8109 C.ar    1  UNL1       -0.0036
      7 C         -10.0100  -16.5199   21.5920 C.2     1  UNL1       -0.0011
      8 C          -9.9902  -15.5488   20.4490 C.2     1  UNL1        0.0472
      9 C         -11.2160  -15.3578   19.6058 C.2     1  UNL1        0.2354
     10 N         -12.4614  -16.1381   19.9055 N.2     1  UNL1       -0.0320
     11 C         -12.4812  -17.1093   21.0485 C.2     1  UNL1        0.3872
     12 N         -13.5548  -18.0121   21.5801 N.2     1  UNL1        0.0820
     13 N         -12.9925  -18.7609   22.7519 N.2     1  UNL1       -0.0337
     14 C         -11.5714  -18.3209   22.9445 C.2     1  UNL1        0.1921
     15 C         -11.2554  -17.3002   21.8917 C.3     1  UNL1        0.1845
     16 C         -10.6313  -18.8149   24.0038 C.3     1  UNL1        0.4355
     17 F          -9.6913  -19.3090   25.0633 F       1  UNL1       -0.1645
     18 F         -11.3936  -18.0435   25.0400 F       1  UNL1       -0.1645
     19 F          -9.7610  -19.5962   23.3297 F       1  UNL1       -0.1645
     20 C          -7.4303  -15.7131   26.0298 C.3     1  UNL1        0.0980
     21 C          -7.8329  -15.3492   27.4282 C.3     1  UNL1        0.0196
     22 C          -8.7518  -16.1702   26.5728 C.3     1  UNL1        0.0196
     23 N          -4.7430  -14.3858   25.8996 N.1     1  UNL1       -0.1956
     24 C          -6.0867  -15.0495   25.9647 C.1     1  UNL1        0.0752
     25 C          -5.2347  -18.4722   22.2132 C.3     1  UNL1        0.0581
     26 C          -3.8510  -18.2066   22.7279 C.3     1  UNL1        0.1440
     27 O          -3.5860  -18.2122   24.2043 O.3     1  UNL1       -0.3816
     28 H          -4.4098  -18.4022   24.6799 H       1  UNL1        0.2105
     29 C          -2.7322  -17.9356   21.7662 C.3     1  UNL1        0.1666
     30 O          -2.7321  -16.6761   20.9516 O.3     1  UNL1       -0.3795
     31 H          -3.4784  -16.6915   20.3322 H       1  UNL1        0.2105
@<TRIPOS>BOND
     1    23    24    3
     2    24    20    1
     3    20     1    1
     4     1     2   ar
     5     2     3   ar
     6     3    25    1
     7    25    26    1
     8    26    27    1
     9    26    29    1
    10    29    30    1
    11     3     4   ar
    12     4     5   ar
    13     5     7    1
    14     7     8    2
    15     8     9    1
    16     9    10    2
    17    10    11    1
    18    11    12    2
    19    12    13    1
    20    13    14    2
    21    14    16    1
    22    16    17    1
    23    16    18    1
    24    16    19    1
    25    14    15    1
    26     5     6   ar
    27    20    21    1
    28    21    22    1
    29    22    20    1
    30     6     1   ar
    31    15     7    1
    32    15    11    1
    33    27    28    1
    34    30    31    1
@<TRIPOS>MOLECULE
*****
 31 34 0 0 0
SMALL
GASTEIGER

@<TRIPOS>ATOM
      1 C           3.8619   -2.7349   20.0182 C.ar    1  UNL1       -0.0100
      2 C           2.7159   -1.9303   19.4803 C.ar    1  UNL1       -0.0075
      3 C           2.1417   -0.8072   20.2922 C.ar    1  UNL1       -0.0200
      4 C           2.7134   -0.4889   21.6419 C.ar    1  UNL1       -0.0045
      5 C           3.8594   -1.2935   22.1798 C.ar    1  UNL1       -0.0035
      6 C           4.4336   -2.4165   21.3680 C.ar    1  UNL1       -0.0036
      7 C           4.4311   -0.9750   23.5296 C.2     1  UNL1       -0.0011
      8 C           3.7459   -1.4680   24.7696 C.2     1  UNL1        0.0472
      9 C           4.3176   -1.1496   26.1193 C.2     1  UNL1        0.2354
     10 N           5.5744   -0.3383   26.2290 N.2     1  UNL1       -0.0320
     11 C           6.2595    0.1547   24.9890 C.2     1  UNL1        0.3872
     12 N           7.5026    0.9693   24.7856 N.2     1  UNL1        0.0820
     13 N           7.6991    1.1544   23.3101 N.2     1  UNL1       -0.0337
     14 C           6.5776    0.4541   22.6016 C.2     1  UNL1        0.1921
     15 C           5.6879   -0.1637   23.6393 C.3     1  UNL1        0.1845
     16 C           6.3803    0.3840   21.1163 C.3     1  UNL1        0.4355
     17 F           6.1830    0.3139   19.6310 F       1  UNL1       -0.1645
     18 F           5.4005    1.5171   21.1930 F       1  UNL1       -0.1645
     19 F           7.1930   -0.6208   20.7259 F       1  UNL1       -0.1645
     20 C           4.4361   -3.8579   19.2064 C.3     1  UNL1        0.0980
     21 C           4.6500   -5.2409   18.6665 C.3     1  UNL1        0.0196
     22 C           3.5979   -4.9966   19.7074 C.3     1  UNL1        0.0196
     23 N           6.5115   -2.3608   17.6407 N.1     1  UNL1       -0.1956
     24 C           5.4737   -3.1094   18.4236 C.1     1  UNL1        0.0752
     25 C           0.9957   -0.0026   19.7543 C.3     1  UNL1        0.0581
     26 C           1.2570    1.1513   18.8321 C.3     1  UNL1        0.1440
     27 O           0.1495    1.6957   17.9796 O.3     1  UNL1       -0.3816
     28 H          -0.6631    1.1924   18.1449 H       1  UNL1        0.2105
     29 C           2.6259    1.7606   18.7626 C.3     1  UNL1        0.1666
     30 O           3.7022    1.0969   17.9557 O.3     1  UNL1       -0.3795
     31 H           3.9253    0.2418   18.3556 H       1  UNL1        0.2105
@<TRIPOS>BOND
     1    23    24    3
     2    24    20    1
     3    20     1    1
     4     1     2   ar
     5     2     3   ar
     6     3    25    1
     7    25    26    1
     8    26    27    1
     9    26    29    1
    10    29    30    1
    11     3     4   ar
    12     4     5   ar
    13     5     7    1
    14     7     8    2
    15     8     9    1
    16     9    10    2
    17    10    11    1
    18    11    12    2
    19    12    13    1
    20    13    14    2
    21    14    16    1
    22    16    17    1
    23    16    18    1
    24    16    19    1
    25    14    15    1
    26     5     6   ar
    27    20    21    1
    28    21    22    1
    29    22    20    1
    30     6     1   ar
    31    15     7    1
    32    15    11    1
    33    27    28    1
    34    30    31    1
@<TRIPOS>MOLECULE
*****
 31 34 0 0 0
SMALL
GASTEIGER

@<TRIPOS>ATOM
      1 C          -7.5723  -16.3022   24.9331 C.ar    1  UNL1       -0.0100
      2 C          -8.8771  -16.2456   24.1953 C.ar    1  UNL1       -0.0075
      3 C          -8.9634  -16.7480   22.7845 C.ar    1  UNL1       -0.0200
      4 C          -7.7450  -17.3071   22.1116 C.ar    1  UNL1       -0.0045
      5 C          -6.4402  -17.3637   22.8494 C.ar    1  UNL1       -0.0035
      6 C          -6.3538  -16.8613   24.2601 C.ar    1  UNL1       -0.0036
      7 C          -5.2217  -17.9229   22.1765 C.2     1  UNL1       -0.0011
      8 C          -3.9168  -17.1875   22.2564 C.2     1  UNL1        0.0472
      9 C          -2.6984  -17.7465   21.5835 C.2     1  UNL1        0.2354
     10 N          -2.7849  -19.0409   20.8306 N.2     1  UNL1       -0.0320
     11 C          -4.0898  -19.7763   20.7507 C.2     1  UNL1        0.3872
     12 N          -4.4772  -21.0638   20.0853 N.2     1  UNL1        0.0820
     13 N          -5.9351  -21.3003   20.3471 N.2     1  UNL1       -0.0337
     14 C          -6.4487  -20.1591   21.1742 C.2     1  UNL1        0.1921
     15 C          -5.3082  -19.2173   21.4236 C.3     1  UNL1        0.1845
     16 C          -7.8557  -19.9896   21.6656 C.3     1  UNL1        0.4355
     17 F          -9.2628  -19.8200   22.1569 F       1  UNL1       -0.1645
     18 F          -8.2841  -19.5648   20.2923 F       1  UNL1       -0.1645
     19 F          -7.7880  -20.3235   22.9718 F       1  UNL1       -0.1645
     20 C          -7.4859  -15.7998   26.3437 C.3     1  UNL1        0.0980
     21 C          -7.8478  -15.5616   27.7798 C.3     1  UNL1        0.0196
     22 C          -8.7466  -16.3862   26.9067 C.3     1  UNL1        0.0196
     23 N          -4.9047  -14.2779   26.1977 N.1     1  UNL1       -0.1956
     24 C          -6.1954  -15.0389   26.2707 C.1     1  UNL1        0.0752
     25 C         -10.2682  -16.6914   22.0467 C.3     1  UNL1        0.0581
     26 C         -10.4033  -15.8286   20.8271 C.3     1  UNL1        0.1440
     27 O          -9.4866  -14.6576   20.6315 O.3     1  UNL1       -0.3816
     28 H          -8.8711  -14.6004   21.3791 H       1  UNL1        0.2105
     29 C         -11.4553  -16.1368   19.8032 C.3     1  UNL1        0.1666
     30 O         -11.8517  -15.0959   18.7985 O.3     1  UNL1       -0.3795
     31 H         -12.2804  -14.3542   19.2534 H       1  UNL1        0.2105
@<TRIPOS>BOND
     1    23    24    3
     2    24    20    1
     3    20     1    1
     4     1     2   ar
     5     2     3   ar
     6     3    25    1
     7    25    26    1
     8    26    27    1
     9    26    29    1
    10    29    30    1
    11     3     4   ar
    12     4     5   ar
    13     5     7    1
    14     7     8    2
    15     8     9    1
    16     9    10    2
    17    10    11    1
    18    11    12    2
    19    12    13    1
    20    13    14    2
    21    14    16    1
    22    16    17    1
    23    16    18    1
    24    16    19    1
    25    14    15    1
    26     5     6   ar
    27    20    21    1
    28    21    22    1
    29    22    20    1
    30     6     1   ar
    31    15     7    1
    32    15    11    1
    33    27    28    1
    34    30    31    1
@<TRIPOS>MOLECULE
*****
 31 34 0 0 0
SMALL
GASTEIGER

@<TRIPOS>ATOM
      1 C         -13.8990   -4.8130   19.2402 C.ar    1  UNL1       -0.0100
      2 C         -12.6055   -5.3568   18.7098 C.ar    1  UNL1       -0.0075
      3 C         -12.5314   -6.7733   18.2217 C.ar    1  UNL1       -0.0200
      4 C         -13.7506   -7.6460   18.2642 C.ar    1  UNL1       -0.0045
      5 C         -15.0440   -7.1022   18.7946 C.ar    1  UNL1       -0.0035
      6 C         -15.1182   -5.6858   19.2826 C.ar    1  UNL1       -0.0036
      7 C         -16.2633   -7.9750   18.8371 C.2     1  UNL1       -0.0011
      8 C         -16.2836   -9.1931   19.7121 C.2     1  UNL1        0.0472
      9 C         -17.5027  -10.0659   19.7546 C.2     1  UNL1        0.2354
     10 N         -18.7017   -9.7205   18.9220 N.2     1  UNL1       -0.0320
     11 C         -18.6814   -8.5024   18.0469 C.2     1  UNL1        0.3872
     12 N         -19.7054   -7.9135   17.1224 N.2     1  UNL1        0.0820
     13 N         -19.1191   -6.6769   16.5086 N.2     1  UNL1       -0.0337
     14 C         -17.7327   -6.5014   17.0537 C.2     1  UNL1        0.1921
     15 C         -17.4622   -7.6296   18.0045 C.3     1  UNL1        0.1845
     16 C         -16.7835   -5.3924   16.7087 C.3     1  UNL1        0.4355
     17 F         -15.8342   -4.2833   16.3637 F       1  UNL1       -0.1645
     18 F         -17.6486   -4.4199   17.4542 F       1  UNL1       -0.1645
     19 F         -15.8212   -6.0001   15.9825 F       1  UNL1       -0.1645
     20 C         -13.9732   -3.3966   19.7282 C.3     1  UNL1        0.0980
     21 C         -14.5226   -2.1467   20.3494 C.3     1  UNL1        0.0196
     22 C         -15.3675   -3.3844   20.2813 C.3     1  UNL1        0.0196
     23 N         -11.2362   -2.4372   18.9610 N.1     1  UNL1       -0.1956
     24 C         -12.6047   -2.9169   19.3446 C.1     1  UNL1        0.0752
     25 C         -11.2379   -7.3170   17.6913 C.3     1  UNL1        0.0581
     26 C          -9.9688   -7.1241   18.4673 C.3     1  UNL1        0.1440
     27 O          -9.4242   -8.2432   19.3047 O.3     1  UNL1       -0.3816
     28 H         -10.0086   -9.0141   19.2336 H       1  UNL1        0.2105
     29 C          -9.2443   -5.8121   18.4060 C.3     1  UNL1        0.1666
     30 O          -9.2333   -4.9049   19.6005 O.3     1  UNL1       -0.3795
     31 H         -10.1329   -4.5856   19.7723 H       1  UNL1        0.2105
@<TRIPOS>BOND
     1    23    24    3
     2    24    20    1
     3    20     1    1
     4     1     2   ar
     5     2     3   ar
     6     3    25    1
     7    25    26    1
     8    26    27    1
     9    26    29    1
    10    29    30    1
    11     3     4   ar
    12     4     5   ar
    13     5     7    1
    14     7     8    2
    15     8     9    1
    16     9    10    2
    17    10    11    1
    18    11    12    2
    19    12    13    1
    20    13    14    2
    21    14    16    1
    22    16    17    1
    23    16    18    1
    24    16    19    1
    25    14    15    1
    26     5     6   ar
    27    20    21    1
    28    21    22    1
    29    22    20    1
    30     6     1   ar
    31    15     7    1
    32    15    11    1
    33    27    28    1
    34    30    31    1
