@<TRIPOS>MOLECULE
*****
 30 35 0 0 0
SMALL
GASTEIGER

@<TRIPOS>ATOM
      1 C           8.2460   -7.5754   25.8832 C.3     1  UNL1        0.0493
      2 C           9.4004   -8.3400   26.4599 C.3     1  UNL1        0.0238
      3 C           9.1496   -9.5642   27.2898 C.3     1  UNL1        0.0730
      4 N           7.7443  -10.0235   27.5431 N.3     1  UNL1       -0.2623
      5 C           6.5898   -9.2588   26.9664 C.3     1  UNL1        0.0730
      6 C           6.8407   -8.0348   26.1365 C.3     1  UNL1        0.0238
      7 C           8.3446   -4.6807   23.2994 C.ar    1  UNL1        0.1224
      8 C           9.4212   -4.2547   24.2530 C.ar    1  UNL1        0.0587
      9 S           9.5153   -5.2873   25.3370 S.2     1  UNL1       -0.0701
     10 C           8.4968   -6.3514   25.0533 C.ar    1  UNL1        0.0880
     11 N           7.7732   -5.9764   23.7939 N.ar    1  UNL1       -0.2396
     12 C           7.1033   -1.0686   18.1017 C.ar    1  UNL1        0.0002
     13 C           5.9136   -1.9730   17.9737 C.ar    1  UNL1        0.0031
     14 C           5.6910   -3.0660   18.9766 C.ar    1  UNL1        0.0375
     15 C           6.6582   -3.2545   20.1075 C.ar    1  UNL1        0.1454
     16 O           6.6994   -4.2377   21.2396 O.2     1  UNL1       -0.4520
     17 C           7.9147   -3.9408   22.0674 C.ar    1  UNL1        0.1633
     18 C           8.6245   -2.7742   21.4468 C.ar    1  UNL1        0.0421
     19 C           7.8479   -2.3501   20.2355 C.ar    1  UNL1        0.0376
     20 C           8.0705   -1.2571   19.2326 C.ar    1  UNL1        0.0031
     21 C           7.4934  -11.2476   28.3730 C.3     1  UNL1        0.1976
     22 C           6.1664  -11.9432   28.3014 C.2     1  UNL1        0.3676
     23 N           5.7559  -12.9557   27.2737 N.2     1  UNL1       -0.0320
     24 C           4.3526  -13.3866   27.5822 C.2     1  UNL1        0.2508
     25 C           3.4318  -14.3621   26.9110 C.2     1  UNL1        0.1485
     26 N           2.0541  -14.5914   27.4583 N.2     1  UNL1       -0.2425
     27 C           1.5974  -13.8452   28.6766 C.2     1  UNL1        0.0815
     28 C           2.5182  -12.8697   29.3477 C.3     1  UNL1        0.1247
     29 C           3.8958  -12.6404   28.8005 C.2     1  UNL1        0.2207
     30 N           5.0167  -11.7483   29.2451 N.2     1  UNL1       -0.0374
@<TRIPOS>BOND
     1    12    13   ar
     2    13    14   ar
     3    14    15   ar
     4    15    16   ar
     5    16    17   ar
     6    17     7    1
     7     7     8   ar
     8     8     9   ar
     9     9    10   ar
    10    10     1    1
    11     1     2    1
    12     2     3    1
    13     3     4    1
    14     4    21    1
    15    21    22    1
    16    22    23    2
    17    23    24    1
    18    24    25    2
    19    25    26    1
    20    26    27    2
    21    27    28    1
    22    28    29    1
    23    29    30    2
    24     4     5    1
    25     5     6    1
    26    10    11   ar
    27    17    18   ar
    28    18    19   ar
    29    19    20   ar
    30    20    12   ar
    31    19    15   ar
    32    11     7   ar
    33     6     1    1
    34    30    22    1
    35    29    24    1
@<TRIPOS>MOLECULE
*****
 30 35 0 0 0
SMALL
GASTEIGER

@<TRIPOS>ATOM
      1 C           1.5515    0.5295   19.3385 C.3     1  UNL1        0.0493
      2 C           2.5125    0.6210   18.1904 C.3     1  UNL1        0.0238
      3 C           3.5426   -0.4504   17.9874 C.3     1  UNL1        0.0730
      4 N           3.6117   -1.6132   18.9325 N.3     1  UNL1       -0.2623
      5 C           2.6506   -1.7046   20.0807 C.3     1  UNL1        0.0730
      6 C           1.6206   -0.6333   20.2836 C.3     1  UNL1        0.0238
      7 C          -1.3913    2.8337   20.3851 C.ar    1  UNL1        0.1224
      8 C          -0.7360    3.6652   19.3225 C.ar    1  UNL1        0.0587
      9 S           0.4462    2.9031   18.8011 S.2     1  UNL1       -0.0701
     10 C           0.5214    1.6008   19.5415 C.ar    1  UNL1        0.0880
     11 N          -0.6143    1.5579   20.5205 N.ar    1  UNL1       -0.2396
     12 C          -7.0100    4.4149   23.1300 C.ar    1  UNL1        0.0002
     13 C          -6.1812    4.4812   24.3785 C.ar    1  UNL1        0.0031
     14 C          -4.7115    4.1870   24.3195 C.ar    1  UNL1        0.0375
     15 C          -4.0706    3.8265   23.0122 C.ar    1  UNL1        0.1454
     16 O          -2.6557    3.4875   22.6477 O.2     1  UNL1       -0.4520
     17 C          -2.6099    3.2117   21.1740 C.ar    1  UNL1        0.1633
     18 C          -3.9967    3.3802   20.6276 C.ar    1  UNL1        0.0421
     19 C          -4.8995    3.7602   21.7637 C.ar    1  UNL1        0.0376
     20 C          -6.3691    4.0543   21.8227 C.ar    1  UNL1        0.0031
     21 C           4.6418   -2.6845   18.7296 C.3     1  UNL1        0.1976
     22 C           5.6818   -2.9338   19.7813 C.2     1  UNL1        0.3676
     23 N           7.0241   -2.2699   19.8688 N.2     1  UNL1       -0.0320
     24 C           7.7340   -2.8166   21.0718 C.2     1  UNL1        0.2508
     25 C           9.0864   -2.5317   21.6546 C.2     1  UNL1        0.1485
     26 N           9.5354   -3.2484   22.8935 N.2     1  UNL1       -0.2425
     27 C           8.6319   -4.2501   23.5494 C.2     1  UNL1        0.0815
     28 C           7.2795   -4.5350   22.9665 C.3     1  UNL1        0.1247
     29 C           6.8306   -3.8183   21.7278 C.2     1  UNL1        0.2207
     30 N           5.5622   -3.8907   20.9302 N.2     1  UNL1       -0.0374
@<TRIPOS>BOND
     1    12    13   ar
     2    13    14   ar
     3    14    15   ar
     4    15    16   ar
     5    16    17   ar
     6    17     7    1
     7     7     8   ar
     8     8     9   ar
     9     9    10   ar
    10    10     1    1
    11     1     2    1
    12     2     3    1
    13     3     4    1
    14     4    21    1
    15    21    22    1
    16    22    23    2
    17    23    24    1
    18    24    25    2
    19    25    26    1
    20    26    27    2
    21    27    28    1
    22    28    29    1
    23    29    30    2
    24     4     5    1
    25     5     6    1
    26    10    11   ar
    27    17    18   ar
    28    18    19   ar
    29    19    20   ar
    30    20    12   ar
    31    19    15   ar
    32    11     7   ar
    33     6     1    1
    34    30    22    1
    35    29    24    1
@<TRIPOS>MOLECULE
*****
 30 35 0 0 0
SMALL
GASTEIGER

@<TRIPOS>ATOM
      1 C           6.9991   -2.3770   32.4666 C.3     1  UNL1        0.0493
      2 C           8.2576   -1.6550   32.8471 C.3     1  UNL1        0.0238
      3 C           8.1980   -0.4893   33.7893 C.3     1  UNL1        0.0730
      4 N           6.8798   -0.0456   34.3510 N.3     1  UNL1       -0.2623
      5 C           5.6212   -0.7677   33.9705 C.3     1  UNL1        0.0730
      6 C           5.6809   -1.9333   33.0283 C.3     1  UNL1        0.0238
      7 C           7.3316   -4.8732   29.5131 C.ar    1  UNL1        0.1224
      8 C           6.9696   -5.7995   30.6361 C.ar    1  UNL1        0.0587
      9 S           6.8010   -4.9770   31.8792 S.2     1  UNL1       -0.0701
     10 C           7.0588   -3.5426   31.5245 C.ar    1  UNL1        0.0880
     11 N           7.3867   -3.4784   30.0621 N.ar    1  UNL1       -0.2396
     12 C           8.6013   -7.2742   23.6627 C.ar    1  UNL1        0.0002
     13 C           8.2917   -5.8767   23.2143 C.ar    1  UNL1        0.0031
     14 C           7.9108   -4.8328   24.2219 C.ar    1  UNL1        0.0375
     15 C           7.8396   -5.1863   25.6778 C.ar    1  UNL1        0.1454
     16 O           7.4956   -4.3755   26.8920 O.2     1  UNL1       -0.4520
     17 C           7.5926   -5.2718   28.0908 C.ar    1  UNL1        0.1633
     18 C           7.9965   -6.6367   27.6176 C.ar    1  UNL1        0.0421
     19 C           8.1491   -6.5838   26.1262 C.ar    1  UNL1        0.0376
     20 C           8.5300   -7.6277   25.1187 C.ar    1  UNL1        0.0031
     21 C           6.8201    1.1200   35.2932 C.3     1  UNL1        0.1976
     22 C           5.5514    1.4208   36.0348 C.2     1  UNL1        0.3676
     23 N           4.6015    2.5431   35.7380 N.2     1  UNL1       -0.0320
     24 C           3.4729    2.4679   36.7232 C.2     1  UNL1        0.2508
     25 C           2.2480    3.3127   36.9126 C.2     1  UNL1        0.1485
     26 N           1.2755    2.9887   38.0077 N.2     1  UNL1       -0.2425
     27 C           1.5279    1.8199   38.9133 C.2     1  UNL1        0.0815
     28 C           2.7528    0.9751   38.7238 C.3     1  UNL1        0.1247
     29 C           3.7253    1.2991   37.6288 C.2     1  UNL1        0.2207
     30 N           5.0098    0.6519   37.2034 N.2     1  UNL1       -0.0374
@<TRIPOS>BOND
     1    12    13   ar
     2    13    14   ar
     3    14    15   ar
     4    15    16   ar
     5    16    17   ar
     6    17     7    1
     7     7     8   ar
     8     8     9   ar
     9     9    10   ar
    10    10     1    1
    11     1     2    1
    12     2     3    1
    13     3     4    1
    14     4    21    1
    15    21    22    1
    16    22    23    2
    17    23    24    1
    18    24    25    2
    19    25    26    1
    20    26    27    2
    21    27    28    1
    22    28    29    1
    23    29    30    2
    24     4     5    1
    25     5     6    1
    26    10    11   ar
    27    17    18   ar
    28    18    19   ar
    29    19    20   ar
    30    20    12   ar
    31    19    15   ar
    32    11     7   ar
    33     6     1    1
    34    30    22    1
    35    29    24    1
@<TRIPOS>MOLECULE
*****
 30 35 0 0 0
SMALL
GASTEIGER

@<TRIPOS>ATOM
      1 C           7.6619   -4.6778   26.8632 C.3     1  UNL1        0.0493
      2 C           8.1781   -3.4499   26.1734 C.3     1  UNL1        0.0238
      3 C           8.5106   -3.4947   24.7114 C.3     1  UNL1        0.0730
      4 N           8.3268   -4.7675   23.9391 N.3     1  UNL1       -0.2623
      5 C           7.8105   -5.9954   24.6290 C.3     1  UNL1        0.0730
      6 C           7.4781   -5.9505   26.0910 C.3     1  UNL1        0.0238
      7 C           6.7923   -3.8148   30.5461 C.ar    1  UNL1        0.1224
      8 C           6.8435   -5.3129   30.6038 C.ar    1  UNL1        0.0587
      9 S           7.1755   -5.8184   29.2311 S.2     1  UNL1       -0.0701
     10 C           7.3295   -4.6329   28.3252 C.ar    1  UNL1        0.0880
     11 N           7.0926   -3.3945   29.1380 N.ar    1  UNL1       -0.2396
     12 C           6.2205    0.3544   35.4343 C.ar    1  UNL1        0.0002
     13 C           4.8093   -0.1527   35.4716 C.ar    1  UNL1        0.0031
     14 C           4.3627   -1.2002   34.4953 C.ar    1  UNL1        0.0375
     15 C           5.3273   -1.7407   33.4817 C.ar    1  UNL1        0.1454
     16 O           5.1757   -2.7693   32.4006 O.2     1  UNL1       -0.4520
     17 C           6.4932   -2.8980   31.6951 C.ar    1  UNL1        0.1633
     18 C           7.4591   -1.9488   32.3402 C.ar    1  UNL1        0.0421
     19 C           6.7385   -1.2335   33.4444 C.ar    1  UNL1        0.0376
     20 C           7.1850   -0.1860   34.4207 C.ar    1  UNL1        0.0031
     21 C           8.6592   -4.8124   22.4771 C.3     1  UNL1        0.1976
     22 C           7.7257   -4.1982   21.4765 C.2     1  UNL1        0.3676
     23 N           8.1266   -3.4594   20.2341 N.2     1  UNL1       -0.0320
     24 C           6.8759   -3.0196   19.5325 C.2     1  UNL1        0.2508
     25 C           6.6543   -2.2543   18.2616 C.2     1  UNL1        0.1485
     26 N           5.2588   -1.9558   17.7994 N.2     1  UNL1       -0.2425
     27 C           4.0850   -2.4227   18.6081 C.2     1  UNL1        0.0815
     28 C           4.3066   -3.1880   19.8790 C.3     1  UNL1        0.1247
     29 C           5.7020   -3.4865   20.3412 C.2     1  UNL1        0.2207
     30 N           6.2272   -4.2149   21.5427 N.2     1  UNL1       -0.0374
@<TRIPOS>BOND
     1    12    13   ar
     2    13    14   ar
     3    14    15   ar
     4    15    16   ar
     5    16    17   ar
     6    17     7    1
     7     7     8   ar
     8     8     9   ar
     9     9    10   ar
    10    10     1    1
    11     1     2    1
    12     2     3    1
    13     3     4    1
    14     4    21    1
    15    21    22    1
    16    22    23    2
    17    23    24    1
    18    24    25    2
    19    25    26    1
    20    26    27    2
    21    27    28    1
    22    28    29    1
    23    29    30    2
    24     4     5    1
    25     5     6    1
    26    10    11   ar
    27    17    18   ar
    28    18    19   ar
    29    19    20   ar
    30    20    12   ar
    31    19    15   ar
    32    11     7   ar
    33     6     1    1
    34    30    22    1
    35    29    24    1
@<TRIPOS>MOLECULE
*****
 30 35 0 0 0
SMALL
GASTEIGER

@<TRIPOS>ATOM
      1 C           7.8564   -5.8055   24.0621 C.3     1  UNL1        0.0493
      2 C           8.7393   -6.9865   23.7872 C.3     1  UNL1        0.0238
      3 C           9.0366   -7.9710   24.8793 C.3     1  UNL1        0.0730
      4 N           8.4509   -7.7744   26.2462 N.3     1  UNL1       -0.2623
      5 C           7.5679   -6.5933   26.5210 C.3     1  UNL1        0.0730
      6 C           7.2707   -5.6089   25.4289 C.3     1  UNL1        0.0238
      7 C           6.3898   -3.2642   21.5213 C.ar    1  UNL1        0.1224
      8 C           7.8139   -3.3482   21.0578 C.ar    1  UNL1        0.0587
      9 S           8.5367   -4.3105   21.9533 S.2     1  UNL1       -0.0701
     10 C           7.5592   -4.8211   22.9700 C.ar    1  UNL1        0.0880
     11 N           6.2323   -4.1744   22.7030 N.ar    1  UNL1       -0.2396
     12 C           1.2841    0.0418   19.3748 C.ar    1  UNL1        0.0002
     13 C           2.2913    0.6550   18.4477 C.ar    1  UNL1        0.0031
     14 C           3.7280    0.2290   18.5134 C.ar    1  UNL1        0.0375
     15 C           4.1576   -0.8101   19.5062 C.ar    1  UNL1        0.1454
     16 O           5.4937   -1.4250   19.8009 O.2     1  UNL1       -0.4520
     17 C           5.3122   -2.4183   20.9102 C.ar    1  UNL1        0.1633
     18 C           3.8640   -2.4172   21.3011 C.ar    1  UNL1        0.0421
     19 C           3.1505   -1.4232   20.4333 C.ar    1  UNL1        0.0376
     20 C           1.7137   -0.9973   20.3676 C.ar    1  UNL1        0.0031
     21 C           8.7481   -8.7588   27.3382 C.3     1  UNL1        0.1976
     22 C           7.7904   -9.8785   27.6196 C.2     1  UNL1        0.3676
     23 N           8.1331  -11.1927   28.2563 N.2     1  UNL1       -0.0320
     24 C           6.8763  -12.0070   28.3439 C.2     1  UNL1        0.2508
     25 C           6.6066  -13.3821   28.8789 C.2     1  UNL1        0.1485
     26 N           5.2175  -13.9463   28.8314 N.2     1  UNL1       -0.2425
     27 C           4.0983  -13.1352   28.2489 C.2     1  UNL1        0.0815
     28 C           4.3680  -11.7601   27.7139 C.3     1  UNL1        0.1247
     29 C           5.7570  -11.1960   27.7614 C.2     1  UNL1        0.2207
     30 N           6.3219   -9.8805   27.3138 N.2     1  UNL1       -0.0374
@<TRIPOS>BOND
     1    12    13   ar
     2    13    14   ar
     3    14    15   ar
     4    15    16   ar
     5    16    17   ar
     6    17     7    1
     7     7     8   ar
     8     8     9   ar
     9     9    10   ar
    10    10     1    1
    11     1     2    1
    12     2     3    1
    13     3     4    1
    14     4    21    1
    15    21    22    1
    16    22    23    2
    17    23    24    1
    18    24    25    2
    19    25    26    1
    20    26    27    2
    21    27    28    1
    22    28    29    1
    23    29    30    2
    24     4     5    1
    25     5     6    1
    26    10    11   ar
    27    17    18   ar
    28    18    19   ar
    29    19    20   ar
    30    20    12   ar
    31    19    15   ar
    32    11     7   ar
    33     6     1    1
    34    30    22    1
    35    29    24    1
@<TRIPOS>MOLECULE
*****
 30 35 0 0 0
SMALL
GASTEIGER

@<TRIPOS>ATOM
      1 C           6.8971   -4.5233   27.0275 C.3     1  UNL1        0.0493
      2 C           6.5539   -3.2769   27.7881 C.3     1  UNL1        0.0238
      3 C           6.5404   -3.2933   29.2880 C.3     1  UNL1        0.0730
      4 N           6.8702   -4.5562   30.0272 N.3     1  UNL1       -0.2623
      5 C           7.2134   -5.8027   29.2665 C.3     1  UNL1        0.0730
      6 C           7.2269   -5.7862   27.7666 C.3     1  UNL1        0.0238
      7 C           6.4046   -3.9476   23.2208 C.ar    1  UNL1        0.1224
      8 C           7.4582   -5.0152   23.2184 C.ar    1  UNL1        0.0587
      9 S           7.7709   -5.3608   24.6442 S.2     1  UNL1       -0.0701
     10 C           6.9106   -4.5068   25.5276 C.ar    1  UNL1        0.0880
     11 N           6.0661   -3.6333   24.6478 N.ar    1  UNL1       -0.2396
     12 C           3.2715   -0.9063   18.4733 C.ar    1  UNL1        0.0002
     13 C           4.3407   -1.5145   17.6150 C.ar    1  UNL1        0.0031
     14 C           5.4023   -2.3737   18.2355 C.ar    1  UNL1        0.0375
     15 C           5.3945   -2.6246   19.7143 C.ar    1  UNL1        0.1454
     16 O           6.3036   -3.4221   20.6018 O.2     1  UNL1       -0.4520
     17 C           5.7961   -3.3067   22.0087 C.ar    1  UNL1        0.1633
     18 C           4.5735   -2.4379   21.9906 C.ar    1  UNL1        0.0421
     19 C           4.3253   -2.0163   20.5726 C.ar    1  UNL1        0.0376
     20 C           3.2638   -1.1572   19.9521 C.ar    1  UNL1        0.0031
     21 C           6.8567   -4.5727   31.5270 C.3     1  UNL1        0.1976
     22 C           6.5598   -3.3148   32.2882 C.2     1  UNL1        0.3676
     23 N           7.5405   -2.2258   32.6086 N.2     1  UNL1       -0.0320
     24 C           6.8169   -1.1630   33.3811 C.2     1  UNL1        0.2508
     25 C           7.2736    0.1424   33.9617 C.2     1  UNL1        0.1485
     26 N           6.3026    1.0158   34.6995 N.2     1  UNL1       -0.2425
     27 C           4.8749    0.5838   34.8566 C.2     1  UNL1        0.0815
     28 C           4.4181   -0.7217   34.2760 C.3     1  UNL1        0.1247
     29 C           5.3890   -1.5950   33.5382 C.2     1  UNL1        0.2207
     30 N           5.2302   -2.9249   32.8628 N.2     1  UNL1       -0.0374
@<TRIPOS>BOND
     1    12    13   ar
     2    13    14   ar
     3    14    15   ar
     4    15    16   ar
     5    16    17   ar
     6    17     7    1
     7     7     8   ar
     8     8     9   ar
     9     9    10   ar
    10    10     1    1
    11     1     2    1
    12     2     3    1
    13     3     4    1
    14     4    21    1
    15    21    22    1
    16    22    23    2
    17    23    24    1
    18    24    25    2
    19    25    26    1
    20    26    27    2
    21    27    28    1
    22    28    29    1
    23    29    30    2
    24     4     5    1
    25     5     6    1
    26    10    11   ar
    27    17    18   ar
    28    18    19   ar
    29    19    20   ar
    30    20    12   ar
    31    19    15   ar
    32    11     7   ar
    33     6     1    1
    34    30    22    1
    35    29    24    1
@<TRIPOS>MOLECULE
*****
 30 35 0 0 0
SMALL
GASTEIGER

@<TRIPOS>ATOM
      1 C           4.1681   -0.1374   29.8311 C.3     1  UNL1        0.0493
      2 C           3.2652   -0.8601   30.7863 C.3     1  UNL1        0.0238
      3 C           3.6697   -1.0255   32.2213 C.3     1  UNL1        0.0730
      4 N           4.9771   -0.4683   32.7010 N.3     1  UNL1       -0.2623
      5 C           5.8801    0.2544   31.7457 C.3     1  UNL1        0.0730
      6 C           5.4756    0.4198   30.3108 C.3     1  UNL1        0.0238
      7 C           3.5043   -0.3499   26.0128 C.ar    1  UNL1        0.1224
      8 C           2.7780    0.9149   26.3633 C.ar    1  UNL1        0.0587
      9 S           2.9383    1.1484   27.8364 S.2     1  UNL1       -0.0701
     10 C           3.7636    0.0280   28.3962 C.ar    1  UNL1        0.0880
     11 N           4.1135   -0.8981   27.2691 N.ar    1  UNL1       -0.2396
     12 C           3.4973   -2.4066   19.8994 C.ar    1  UNL1        0.0002
     13 C           4.3630   -3.5006   20.4504 C.ar    1  UNL1        0.0031
     14 C           4.7095   -3.5196   21.9098 C.ar    1  UNL1        0.0375
     15 C           4.1903   -2.4447   22.8180 C.ar    1  UNL1        0.1454
     16 O           4.3630   -2.2030   24.2883 O.2     1  UNL1       -0.4520
     17 C           3.6040   -0.9595   24.6459 C.ar    1  UNL1        0.1633
     18 C           2.9623   -0.4328   23.3966 C.ar    1  UNL1        0.0421
     19 C           3.3246   -1.3507   22.2669 C.ar    1  UNL1        0.0376
     20 C           2.9781   -1.3317   20.8076 C.ar    1  UNL1        0.0031
     21 C           5.3816   -0.6337   34.1359 C.3     1  UNL1        0.1976
     22 C           4.7128    0.1819   35.2024 C.2     1  UNL1        0.3676
     23 N           4.7908   -0.0647   36.6800 N.2     1  UNL1       -0.0320
     24 C           3.9747    0.9883   37.3693 C.2     1  UNL1        0.2508
     25 C           3.6866    1.2459   38.8187 C.2     1  UNL1        0.1485
     26 N           2.8162    2.4009   39.2166 N.2     1  UNL1       -0.2425
     27 C           2.2339    3.2982   38.1651 C.2     1  UNL1        0.0815
     28 C           2.5219    3.0406   36.7158 C.3     1  UNL1        0.1247
     29 C           3.3923    1.8857   36.3179 C.2     1  UNL1        0.2207
     30 N           3.8485    1.3873   34.9787 N.2     1  UNL1       -0.0374
@<TRIPOS>BOND
     1    12    13   ar
     2    13    14   ar
     3    14    15   ar
     4    15    16   ar
     5    16    17   ar
     6    17     7    1
     7     7     8   ar
     8     8     9   ar
     9     9    10   ar
    10    10     1    1
    11     1     2    1
    12     2     3    1
    13     3     4    1
    14     4    21    1
    15    21    22    1
    16    22    23    2
    17    23    24    1
    18    24    25    2
    19    25    26    1
    20    26    27    2
    21    27    28    1
    22    28    29    1
    23    29    30    2
    24     4     5    1
    25     5     6    1
    26    10    11   ar
    27    17    18   ar
    28    18    19   ar
    29    19    20   ar
    30    20    12   ar
    31    19    15   ar
    32    11     7   ar
    33     6     1    1
    34    30    22    1
    35    29    24    1
@<TRIPOS>MOLECULE
*****
 30 35 0 0 0
SMALL
GASTEIGER

@<TRIPOS>ATOM
      1 C           1.2815    1.1847   25.5942 C.3     1  UNL1        0.0493
      2 C           2.5674    0.7204   24.9773 C.3     1  UNL1        0.0238
      3 C           2.7362    0.7449   23.4869 C.3     1  UNL1        0.0730
      4 N           1.6189    1.2338   22.6136 N.3     1  UNL1       -0.2623
      5 C           0.3329    1.6981   23.2306 C.3     1  UNL1        0.0730
      6 C           0.1642    1.6736   24.7208 C.3     1  UNL1        0.0238
      7 C           1.5690    0.9125   29.4553 C.ar    1  UNL1        0.1224
      8 C           0.1373    1.3325   29.3002 C.ar    1  UNL1        0.0587
      9 S          -0.1446    1.4856   27.8349 S.2     1  UNL1       -0.0701
     10 C           1.1127    1.1602   27.0845 C.ar    1  UNL1        0.0880
     11 N           2.1718    0.8060   28.0860 N.ar    1  UNL1       -0.2396
     12 C           4.4027    0.4621   35.2321 C.ar    1  UNL1        0.0002
     13 C           4.7574   -0.9154   34.7559 C.ar    1  UNL1        0.0031
     14 C           4.3242   -1.3731   33.3948 C.ar    1  UNL1        0.0375
     15 C           3.5363   -0.4534   32.5097 C.ar    1  UNL1        0.1454
     16 O           2.9754   -0.6254   31.1293 O.2     1  UNL1       -0.4520
     17 C           2.2740    0.6458   30.7522 C.ar    1  UNL1        0.1633
     18 C           2.4015    1.6035   31.8996 C.ar    1  UNL1        0.0421
     19 C           3.1816    0.9240   32.9859 C.ar    1  UNL1        0.0376
     20 C           3.6149    1.3818   34.3471 C.ar    1  UNL1        0.0031
     21 C           1.7876    1.2583   21.1233 C.3     1  UNL1        0.1976
     22 C           2.5872    0.1879   20.4414 C.2     1  UNL1        0.3676
     23 N           3.7084    0.4089   19.4697 N.2     1  UNL1       -0.0320
     24 C           4.2200   -0.9338   19.0392 C.2     1  UNL1        0.2508
     25 C           5.3149   -1.3354   18.0958 C.2     1  UNL1        0.1485
     26 N           5.6048   -2.7878   17.8581 N.2     1  UNL1       -0.2425
     27 C           4.7999   -3.8385   18.5636 C.2     1  UNL1        0.0815
     28 C           3.7050   -3.4369   19.5070 C.3     1  UNL1        0.1247
     29 C           3.4151   -1.9847   19.7448 C.2     1  UNL1        0.2207
     30 N           2.4059   -1.2914   20.6114 N.2     1  UNL1       -0.0374
@<TRIPOS>BOND
     1    12    13   ar
     2    13    14   ar
     3    14    15   ar
     4    15    16   ar
     5    16    17   ar
     6    17     7    1
     7     7     8   ar
     8     8     9   ar
     9     9    10   ar
    10    10     1    1
    11     1     2    1
    12     2     3    1
    13     3     4    1
    14     4    21    1
    15    21    22    1
    16    22    23    2
    17    23    24    1
    18    24    25    2
    19    25    26    1
    20    26    27    2
    21    27    28    1
    22    28    29    1
    23    29    30    2
    24     4     5    1
    25     5     6    1
    26    10    11   ar
    27    17    18   ar
    28    18    19   ar
    29    19    20   ar
    30    20    12   ar
    31    19    15   ar
    32    11     7   ar
    33     6     1    1
    34    30    22    1
    35    29    24    1
@<TRIPOS>MOLECULE
*****
 30 35 0 0 0
SMALL
GASTEIGER

@<TRIPOS>ATOM
      1 C           0.8240    1.8861   26.5129 C.3     1  UNL1        0.0493
      2 C          -0.0820    1.0088   27.3250 C.3     1  UNL1        0.0238
      3 C          -0.0635    1.0935   28.8225 C.3     1  UNL1        0.0730
      4 N           0.8610    2.0555   29.5079 N.3     1  UNL1       -0.2623
      5 C           1.7671    2.9328   28.6958 C.3     1  UNL1        0.0730
      6 C           1.7486    2.8481   27.1983 C.3     1  UNL1        0.0238
      7 C           1.3314    1.1663   22.7328 C.ar    1  UNL1        0.1224
      8 C           0.2227    2.1757   22.6893 C.ar    1  UNL1        0.0587
      9 S          -0.1023    2.5681   24.1002 S.2     1  UNL1       -0.0701
     10 C           0.8055    1.8014   25.0154 C.ar    1  UNL1        0.0880
     11 N           1.6917    0.9349   24.1703 N.ar    1  UNL1       -0.2396
     12 C           4.2435   -2.2443   18.0968 C.ar    1  UNL1        0.0002
     13 C           3.8582   -1.0763   17.2382 C.ar    1  UNL1        0.0031
     14 C           3.1142    0.0809   17.8360 C.ar    1  UNL1        0.0375
     15 C           2.7554    0.0700   19.2924 C.ar    1  UNL1        0.1454
     16 O           2.0308    1.0604   20.1550 O.2     1  UNL1       -0.4520
     17 C           1.9682    0.5044   21.5468 C.ar    1  UNL1        0.1633
     18 C           2.6541   -0.8295   21.5443 C.ar    1  UNL1        0.0421
     19 C           3.1407   -1.0980   20.1510 C.ar    1  UNL1        0.0376
     20 C           3.8847   -2.2552   19.5532 C.ar    1  UNL1        0.0031
     21 C           0.8795    2.1402   31.0054 C.3     1  UNL1        0.1976
     22 C           1.9062    1.3756   31.7872 C.2     1  UNL1        0.3676
     23 N           2.5419    0.0803   31.3772 N.2     1  UNL1       -0.0320
     24 C           3.5061   -0.3238   32.4529 C.2     1  UNL1        0.2508
     25 C           4.4151   -1.5087   32.5926 C.2     1  UNL1        0.1485
     26 N           5.2843   -1.6481   33.8071 N.2     1  UNL1       -0.2425
     27 C           5.2445   -0.6026   34.8818 C.2     1  UNL1        0.0815
     28 C           4.3355    0.5823   34.7422 C.3     1  UNL1        0.1247
     29 C           3.4663    0.7217   33.5278 C.2     1  UNL1        0.2207
     30 N           2.4775    1.7720   33.1163 N.2     1  UNL1       -0.0374
@<TRIPOS>BOND
     1    12    13   ar
     2    13    14   ar
     3    14    15   ar
     4    15    16   ar
     5    16    17   ar
     6    17     7    1
     7     7     8   ar
     8     8     9   ar
     9     9    10   ar
    10    10     1    1
    11     1     2    1
    12     2     3    1
    13     3     4    1
    14     4    21    1
    15    21    22    1
    16    22    23    2
    17    23    24    1
    18    24    25    2
    19    25    26    1
    20    26    27    2
    21    27    28    1
    22    28    29    1
    23    29    30    2
    24     4     5    1
    25     5     6    1
    26    10    11   ar
    27    17    18   ar
    28    18    19   ar
    29    19    20   ar
    30    20    12   ar
    31    19    15   ar
    32    11     7   ar
    33     6     1    1
    34    30    22    1
    35    29    24    1
