@<TRIPOS>MOLECULE
*****
 40 44 0 0 0
SMALL
GASTEIGER

@<TRIPOS>ATOM
      1 C           6.6919   -3.3746   30.0620 C.ar    1  UNL1        0.0611
      2 C           6.7973   -4.3255   31.2172 C.ar    1  UNL1        0.1037
      3 N           6.9498   -5.7115   30.6643 N.ar    1  UNL1       -0.2269
      4 C           6.9387   -5.6171   29.1673 C.ar    1  UNL1        0.1407
      5 N           7.0532   -6.6598   28.0950 N.ar    1  UNL1       -0.3374
      6 C           7.0083   -6.2581   26.6505 C.ar    1  UNL1        0.0735
      7 C           6.8490   -4.8138   26.2783 C.ar    1  UNL1        0.0201
      8 C           6.7345   -3.7711   27.3505 C.ar    1  UNL1        0.0047
      9 C           6.7794   -4.1728   28.7950 C.ar    1  UNL1        0.0386
     10 H           7.1578   -7.6077   28.3393 H       1  UNL1        0.1674
     11 C           6.8041   -4.4121   24.8337 C.ar    1  UNL1        0.0399
     12 C           7.5385   -5.2221   23.8069 C.ar    1  UNL1        0.1034
     13 N           7.4936   -4.8205   22.3623 N.ar    1  UNL1       -0.2121
     14 C           6.7142   -3.6088   21.9446 C.ar    1  UNL1        0.2203
     15 N           5.9798   -2.7987   22.9716 N.ar    1  UNL1       -0.2121
     16 C           6.0247   -3.2004   24.4161 C.ar    1  UNL1        0.1034
     17 N           6.6693   -3.2071   20.5002 N.pl3   1  UNL1       -0.2730
     18 C           7.8257   -2.4722   19.8898 C.3     1  UNL1        0.1257
     19 C           7.7808   -2.0704   18.4452 C.3     1  UNL1        0.1637
     20 O           6.5795   -2.4037   17.6111 O.3     1  UNL1       -0.3501
     21 C           5.4231   -3.1387   18.2215 C.3     1  UNL1        0.1637
     22 C           5.4680   -3.5404   19.6660 C.3     1  UNL1        0.1257
     23 C           6.5280   -1.8866   30.1570 C.2     1  UNL1        0.2015
     24 O           7.7241   -0.9906   30.0302 O.2     1  UNL1       -0.2864
     25 C           2.8477   -0.5779   29.4543 C.ar    1  UNL1        0.0920
     26 C           2.4470   -0.1106   30.8222 C.ar    1  UNL1        0.0204
     27 C           3.4066   -0.2353   31.9683 C.ar    1  UNL1        0.0312
     28 C           4.7669   -0.8273   31.7466 C.ar    1  UNL1        0.1454
     29 F           5.7265   -0.9520   32.8928 F       1  UNL1       -0.2040
     30 C           5.1676   -1.2946   30.3787 C.ar    1  UNL1        0.0951
     31 C           4.2080   -1.1698   29.2326 C.ar    1  UNL1        0.1598
     32 F           4.6088   -1.6371   27.8647 F       1  UNL1       -0.2026
     33 N           1.8881   -0.4532   28.3082 N.pl3   1  UNL1       -0.2166
     34 H           1.8472   -1.1575   27.6215 H       1  UNL1        0.1734
     35 S           0.9909    0.7447   28.2082 S.O2    1  UNL1        0.0540
     36 O          -0.1878   -0.1077   28.5744 O.2     1  UNL1       -0.1545
     37 O           2.1696    1.5971   27.8421 O.2     1  UNL1       -0.1545
     38 C           0.0937    1.9426   28.1083 C.3     1  UNL1        0.1724
     39 C          -0.5856    1.9165   25.6006 C.3     1  UNL1        0.0019
     40 C          -0.9669    1.9990   27.0490 C.3     1  UNL1        0.0273
@<TRIPOS>BOND
     1    39    40    1
     2    40    38    1
     3    38    35    1
     4    35    36    2
     5    35    37    2
     6    35    33    1
     7    33    25    1
     8    25    26   ar
     9    26    27   ar
    10    27    28   ar
    11    28    29    1
    12    28    30   ar
    13    30    23    1
    14    23    24    2
    15    23     1    1
    16     1     2   ar
    17     2     3   ar
    18     3     4   ar
    19     4     5   ar
    20     5     6   ar
    21     6     7   ar
    22     7    11    1
    23    11    12   ar
    24    12    13   ar
    25    13    14   ar
    26    14    17    1
    27    17    18    1
    28    18    19    1
    29    19    20    1
    30    20    21    1
    31    21    22    1
    32    14    15   ar
    33    15    16   ar
    34     7     8   ar
    35     8     9   ar
    36    30    31   ar
    37    31    32    1
    38    31    25   ar
    39     9     1   ar
    40     9     4    1
    41    16    11   ar
    42    22    17    1
    43    33    34    1
    44     5    10    1
@<TRIPOS>MOLECULE
*****
 40 44 0 0 0
SMALL
GASTEIGER

@<TRIPOS>ATOM
      1 C           3.9385   -1.9709   18.9877 C.ar    1  UNL1        0.0611
      2 C           3.8210   -1.4510   17.5856 C.ar    1  UNL1        0.1037
      3 N           3.1861   -0.0933   17.6465 N.ar    1  UNL1       -0.2269
      4 C           2.9112    0.2258   19.0861 C.ar    1  UNL1        0.1407
      5 N           2.2976    1.4231   19.7493 N.ar    1  UNL1       -0.3374
      6 C           2.1490    1.4600   21.2414 C.ar    1  UNL1        0.0735
      7 C           2.6140    0.2996   22.0704 C.ar    1  UNL1        0.0201
      8 C           3.2277   -0.8977   21.4072 C.ar    1  UNL1        0.0047
      9 C           3.3763   -0.9346   19.9151 C.ar    1  UNL1        0.0386
     10 H           1.9923    2.1847   19.2052 H       1  UNL1        0.1674
     11 C           2.4654    0.3365   23.5626 C.ar    1  UNL1        0.0399
     12 C           1.3545    1.1282   24.1863 C.ar    1  UNL1        0.1034
     13 N           1.2059    1.1651   25.6785 N.ar    1  UNL1       -0.2121
     14 C           2.1682    0.4104   26.5470 C.ar    1  UNL1        0.2203
     15 N           3.2792   -0.3813   25.9232 N.ar    1  UNL1       -0.2121
     16 C           3.4278   -0.4182   24.4311 C.ar    1  UNL1        0.1034
     17 N           2.0197    0.4473   28.0391 N.pl3   1  UNL1       -0.2730
     18 C           2.6733   -0.6056   28.8841 C.3     1  UNL1        0.1257
     19 C           2.5248   -0.5687   30.3763 C.3     1  UNL1        0.1637
     20 O           1.7226    0.5211   31.0235 O.3     1  UNL1       -0.3501
     21 C           1.0689    1.5740   30.1784 C.3     1  UNL1        0.1637
     22 C           1.2175    1.5371   28.6862 C.3     1  UNL1        0.1257
     23 C           4.5168   -3.2947   19.3916 C.2     1  UNL1        0.2015
     24 O           3.8393   -4.5670   18.9770 O.2     1  UNL1       -0.2864
     25 C           6.9783   -3.8720   22.4508 C.ar    1  UNL1        0.0920
     26 C           8.2847   -3.4490   21.8471 C.ar    1  UNL1        0.0204
     27 C           8.3352   -2.9746   20.4250 C.ar    1  UNL1        0.0312
     28 C           7.0793   -2.9232   19.6065 C.ar    1  UNL1        0.1454
     29 F           7.1298   -2.4488   18.1844 F       1  UNL1       -0.2040
     30 C           5.7729   -3.3461   20.2101 C.ar    1  UNL1        0.0951
     31 C           5.7224   -3.8205   21.6322 C.ar    1  UNL1        0.1598
     32 F           4.4159   -4.2435   22.2358 F       1  UNL1       -0.2026
     33 N           6.9278   -4.3464   23.8729 N.pl3   1  UNL1       -0.2166
     34 H           6.1949   -4.0565   24.4628 H       1  UNL1        0.1734
     35 S           7.9940   -5.2625   24.3961 S.O2    1  UNL1        0.0540
     36 O           8.2959   -4.2847   25.4929 O.2     1  UNL1       -0.1545
     37 O           7.6922   -6.2403   23.2994 O.2     1  UNL1       -0.1545
     38 C           9.0602   -6.1787   24.9194 C.3     1  UNL1        0.1724
     39 C           7.7447   -7.9762   26.2568 C.3     1  UNL1        0.0019
     40 C           8.7426   -7.6185   25.1956 C.3     1  UNL1        0.0273
@<TRIPOS>BOND
     1    39    40    1
     2    40    38    1
     3    38    35    1
     4    35    36    2
     5    35    37    2
     6    35    33    1
     7    33    25    1
     8    25    26   ar
     9    26    27   ar
    10    27    28   ar
    11    28    29    1
    12    28    30   ar
    13    30    23    1
    14    23    24    2
    15    23     1    1
    16     1     2   ar
    17     2     3   ar
    18     3     4   ar
    19     4     5   ar
    20     5     6   ar
    21     6     7   ar
    22     7    11    1
    23    11    12   ar
    24    12    13   ar
    25    13    14   ar
    26    14    17    1
    27    17    18    1
    28    18    19    1
    29    19    20    1
    30    20    21    1
    31    21    22    1
    32    14    15   ar
    33    15    16   ar
    34     7     8   ar
    35     8     9   ar
    36    30    31   ar
    37    31    32    1
    38    31    25   ar
    39     9     1   ar
    40     9     4    1
    41    16    11   ar
    42    22    17    1
    43    33    34    1
    44     5    10    1
@<TRIPOS>MOLECULE
*****
 40 44 0 0 0
SMALL
GASTEIGER

@<TRIPOS>ATOM
      1 C           4.8238   -3.0773   22.6632 C.ar    1  UNL1        0.0611
      2 C           5.7816   -3.6044   23.6902 C.ar    1  UNL1        0.1037
      3 N           5.6402   -2.7688   24.9278 N.ar    1  UNL1       -0.2269
      4 C           4.5950   -1.7253   24.6657 C.ar    1  UNL1        0.1407
      5 N           4.0375   -0.6261   25.5207 N.ar    1  UNL1       -0.3374
      6 C           2.9755    0.2824   24.9760 C.ar    1  UNL1        0.0735
      7 C           2.4709    0.0917   23.5763 C.ar    1  UNL1        0.0201
      8 C           3.0284   -1.0075   22.7214 C.ar    1  UNL1        0.0047
      9 C           4.0904   -1.9159   23.2661 C.ar    1  UNL1        0.0386
     10 H           4.3687   -0.5010   26.4394 H       1  UNL1        0.1674
     11 C           1.4089    1.0002   23.0317 C.ar    1  UNL1        0.0399
     12 C           0.9719    2.1998   23.8191 C.ar    1  UNL1        0.1034
     13 N          -0.0902    3.1083   23.2744 N.ar    1  UNL1       -0.2121
     14 C          -0.7152    2.8173   21.9423 C.ar    1  UNL1        0.2203
     15 N          -0.2782    1.6176   21.1549 N.ar    1  UNL1       -0.2121
     16 C           0.7838    0.7092   21.6995 C.ar    1  UNL1        0.1034
     17 N          -1.7773    3.7257   21.3976 N.pl3   1  UNL1       -0.2730
     18 C          -2.7636    3.2085   20.3929 C.3     1  UNL1        0.1257
     19 C          -3.8257    4.1170   19.8481 C.3     1  UNL1        0.1637
     20 O          -3.9014    5.5427   20.3082 O.3     1  UNL1       -0.3501
     21 C          -2.9150    6.0599   21.3130 C.3     1  UNL1        0.1637
     22 C          -1.8530    5.1514   21.8577 C.3     1  UNL1        0.1257
     23 C           4.6329   -3.6168   21.2766 C.2     1  UNL1        0.2015
     24 O           4.0250   -4.9734   21.0768 O.2     1  UNL1       -0.2864
     25 C           4.4658   -1.1124   18.2025 C.ar    1  UNL1        0.0920
     26 C           5.8838   -1.1654   17.7163 C.ar    1  UNL1        0.0204
     27 C           6.8849   -2.0355   18.4169 C.ar    1  UNL1        0.0312
     28 C           6.4679   -2.8526   19.6037 C.ar    1  UNL1        0.1454
     29 F           7.4690   -3.7227   20.3043 F       1  UNL1       -0.2040
     30 C           5.0499   -2.7996   20.0898 C.ar    1  UNL1        0.0951
     31 C           4.0489   -1.9295   19.3892 C.ar    1  UNL1        0.1598
     32 F           2.6308   -1.8766   19.8755 F       1  UNL1       -0.2026
     33 N           3.4648   -0.2423   17.5019 N.pl3   1  UNL1       -0.2166
     34 H           3.1336   -0.4933   16.6094 H       1  UNL1        0.1734
     35 S           2.9682    1.0102   18.1612 S.O2    1  UNL1        0.0540
     36 O           4.3561    1.5783   18.1271 O.2     1  UNL1       -0.1545
     37 O           1.5804    0.4421   18.1952 O.2     1  UNL1       -0.1545
     38 C           2.4716    2.2627   18.8204 C.3     1  UNL1        0.1724
     39 C           2.6262    3.9561   20.7848 C.3     1  UNL1        0.0019
     40 C           3.2432    2.8699   19.9544 C.3     1  UNL1        0.0273
@<TRIPOS>BOND
     1    39    40    1
     2    40    38    1
     3    38    35    1
     4    35    36    2
     5    35    37    2
     6    35    33    1
     7    33    25    1
     8    25    26   ar
     9    26    27   ar
    10    27    28   ar
    11    28    29    1
    12    28    30   ar
    13    30    23    1
    14    23    24    2
    15    23     1    1
    16     1     2   ar
    17     2     3   ar
    18     3     4   ar
    19     4     5   ar
    20     5     6   ar
    21     6     7   ar
    22     7    11    1
    23    11    12   ar
    24    12    13   ar
    25    13    14   ar
    26    14    17    1
    27    17    18    1
    28    18    19    1
    29    19    20    1
    30    20    21    1
    31    21    22    1
    32    14    15   ar
    33    15    16   ar
    34     7     8   ar
    35     8     9   ar
    36    30    31   ar
    37    31    32    1
    38    31    25   ar
    39     9     1   ar
    40     9     4    1
    41    16    11   ar
    42    22    17    1
    43    33    34    1
    44     5    10    1
@<TRIPOS>MOLECULE
*****
 40 44 0 0 0
SMALL
GASTEIGER

@<TRIPOS>ATOM
      1 C           2.9088   -1.3310   20.2171 C.ar    1  UNL1        0.0611
      2 C           1.9726   -0.4141   19.4871 C.ar    1  UNL1        0.1037
      3 N           1.3915    0.5444   20.4839 N.ar    1  UNL1       -0.2269
      4 C           1.9686    0.2199   21.8299 C.ar    1  UNL1        0.1407
      5 N           1.7613    0.8301   23.1844 N.ar    1  UNL1       -0.3374
      6 C           2.4917    0.2812   24.3740 C.ar    1  UNL1        0.0735
      7 C           3.4295   -0.8779   24.2091 C.ar    1  UNL1        0.0201
      8 C           3.6367   -1.4881   22.8546 C.ar    1  UNL1        0.0047
      9 C           2.9063   -0.9392   21.6650 C.ar    1  UNL1        0.0386
     10 H           1.1458    1.5908   23.2926 H       1  UNL1        0.1674
     11 C           4.1599   -1.4267   25.3987 C.ar    1  UNL1        0.0399
     12 C           5.4464   -2.1745   25.2095 C.ar    1  UNL1        0.1034
     13 N           6.1769   -2.7233   26.3992 N.ar    1  UNL1       -0.2121
     14 C           5.6208   -2.5245   27.7780 C.ar    1  UNL1        0.2203
     15 N           4.3342   -1.7767   27.9672 N.ar    1  UNL1       -0.2121
     16 C           3.6038   -1.2279   26.7776 C.ar    1  UNL1        0.1034
     17 N           6.3512   -3.0733   28.9676 N.pl3   1  UNL1       -0.2730
     18 C           6.6218   -4.5452   29.0680 C.3     1  UNL1        0.1257
     19 C           7.3522   -5.0942   30.2577 C.3     1  UNL1        0.1637
     20 O           7.8120   -4.1710   31.3469 O.3     1  UNL1       -0.3501
     21 C           7.5414   -2.6990   31.2465 C.3     1  UNL1        0.1637
     22 C           6.8110   -2.1502   30.0569 C.3     1  UNL1        0.1257
     23 C           3.7073   -2.4443   19.6064 C.2     1  UNL1        0.2015
     24 O           3.0280   -3.7173   19.1966 O.2     1  UNL1       -0.2864
     25 C           7.6206   -3.0136   19.9416 C.ar    1  UNL1        0.0920
     26 C           8.1409   -1.9651   19.0036 C.ar    1  UNL1        0.0204
     27 C           7.1834   -1.0764   18.2665 C.ar    1  UNL1        0.0312
     28 C           5.7056   -1.2361   18.4674 C.ar    1  UNL1        0.1454
     29 F           4.7481   -0.3473   17.7303 F       1  UNL1       -0.2040
     30 C           5.1852   -2.2845   19.4054 C.ar    1  UNL1        0.0951
     31 C           6.1427   -3.1733   20.1425 C.ar    1  UNL1        0.1598
     32 F           5.6223   -4.2217   21.0806 F       1  UNL1       -0.2026
     33 N           8.5781   -3.9023   20.6787 N.pl3   1  UNL1       -0.2166
     34 H           9.2857   -4.3786   20.1870 H       1  UNL1        0.1734
     35 S           8.4576   -4.0653   22.1649 S.O2    1  UNL1        0.0540
     36 O           8.7074   -2.5975   22.3462 O.2     1  UNL1       -0.1545
     37 O           8.2078   -5.5332   21.9837 O.2     1  UNL1       -0.1545
     38 C           8.3370   -4.2285   23.6511 C.3     1  UNL1        0.1724
     39 C           7.7845   -5.8662   25.5910 C.3     1  UNL1        0.0019
     40 C           7.4964   -5.3336   24.2186 C.3     1  UNL1        0.0273
@<TRIPOS>BOND
     1    39    40    1
     2    40    38    1
     3    38    35    1
     4    35    36    2
     5    35    37    2
     6    35    33    1
     7    33    25    1
     8    25    26   ar
     9    26    27   ar
    10    27    28   ar
    11    28    29    1
    12    28    30   ar
    13    30    23    1
    14    23    24    2
    15    23     1    1
    16     1     2   ar
    17     2     3   ar
    18     3     4   ar
    19     4     5   ar
    20     5     6   ar
    21     6     7   ar
    22     7    11    1
    23    11    12   ar
    24    12    13   ar
    25    13    14   ar
    26    14    17    1
    27    17    18    1
    28    18    19    1
    29    19    20    1
    30    20    21    1
    31    21    22    1
    32    14    15   ar
    33    15    16   ar
    34     7     8   ar
    35     8     9   ar
    36    30    31   ar
    37    31    32    1
    38    31    25   ar
    39     9     1   ar
    40     9     4    1
    41    16    11   ar
    42    22    17    1
    43    33    34    1
    44     5    10    1
@<TRIPOS>MOLECULE
*****
 40 44 0 0 0
SMALL
GASTEIGER

@<TRIPOS>ATOM
      1 C           1.2380    1.2021   22.3886 C.ar    1  UNL1        0.0611
      2 C           0.5184    2.3743   22.9870 C.ar    1  UNL1        0.1037
      3 N           0.9705    2.5185   24.4099 N.ar    1  UNL1       -0.2269
      4 C           1.9695    1.4355   24.6910 C.ar    1  UNL1        0.1407
      5 N           2.7500    1.0850   25.9230 N.ar    1  UNL1       -0.3374
      6 C           3.6958   -0.0791   25.9058 C.ar    1  UNL1        0.0735
      7 C           3.8610   -0.8927   24.6565 C.ar    1  UNL1        0.0201
      8 C           3.0806   -0.5423   23.4245 C.ar    1  UNL1        0.0047
      9 C           2.1348    0.6218   23.4417 C.ar    1  UNL1        0.0386
     10 H           2.6415    1.6190   26.7429 H       1  UNL1        0.1674
     11 C           4.8069   -2.0569   24.6393 C.ar    1  UNL1        0.0399
     12 C           4.8867   -2.9406   23.4299 C.ar    1  UNL1        0.1034
     13 N           5.8325   -4.1047   23.4127 N.ar    1  UNL1       -0.2121
     14 C           6.6985   -4.3851   24.6050 C.ar    1  UNL1        0.2203
     15 N           6.6186   -3.5014   25.8144 N.ar    1  UNL1       -0.2121
     16 C           5.6728   -2.3373   25.8316 C.ar    1  UNL1        0.1034
     17 N           7.6443   -5.5492   24.5878 N.pl3   1  UNL1       -0.2730
     18 C           8.0067   -6.2400   25.8690 C.3     1  UNL1        0.1257
     19 C           8.9526   -7.4041   25.8519 C.3     1  UNL1        0.1637
     20 O           9.5359   -7.8775   24.5536 O.3     1  UNL1       -0.3501
     21 C           9.1734   -7.1866   23.2723 C.3     1  UNL1        0.1637
     22 C           8.2276   -6.0226   23.2895 C.3     1  UNL1        0.1257
     23 C           1.0872    0.6985   20.9837 C.2     1  UNL1        0.2015
     24 O          -0.2340    0.1640   20.5163 O.2     1  UNL1       -0.2864
     25 C           4.0889   -0.5202   18.6913 C.ar    1  UNL1        0.0920
     26 C           4.5988    0.7911   18.1713 C.ar    1  UNL1        0.0204
     27 C           3.9383    2.0715   18.5887 C.ar    1  UNL1        0.0312
     28 C           2.7677    2.0407   19.5261 C.ar    1  UNL1        0.1454
     29 F           2.1071    3.3211   19.9435 F       1  UNL1       -0.2040
     30 C           2.2578    0.7294   20.0462 C.ar    1  UNL1        0.0951
     31 C           2.9184   -0.5510   19.6288 C.ar    1  UNL1        0.1598
     32 F           2.4084   -1.8623   20.1489 F       1  UNL1       -0.2026
     33 N           4.7495   -1.8006   18.2739 N.pl3   1  UNL1       -0.2166
     34 H           4.2642   -2.4428   17.7071 H       1  UNL1        0.1734
     35 S           6.1494   -2.1024   18.7202 S.O2    1  UNL1        0.0540
     36 O           6.6234   -2.0028   17.3005 O.2     1  UNL1       -0.1545
     37 O           5.6754   -2.2019   20.1398 O.2     1  UNL1       -0.1545
     38 C           7.5493   -2.4042   19.1665 C.3     1  UNL1        0.1724
     39 C           8.8475   -2.8820   21.3657 C.3     1  UNL1        0.0019
     40 C           7.7827   -3.2572   20.3781 C.3     1  UNL1        0.0273
@<TRIPOS>BOND
     1    39    40    1
     2    40    38    1
     3    38    35    1
     4    35    36    2
     5    35    37    2
     6    35    33    1
     7    33    25    1
     8    25    26   ar
     9    26    27   ar
    10    27    28   ar
    11    28    29    1
    12    28    30   ar
    13    30    23    1
    14    23    24    2
    15    23     1    1
    16     1     2   ar
    17     2     3   ar
    18     3     4   ar
    19     4     5   ar
    20     5     6   ar
    21     6     7   ar
    22     7    11    1
    23    11    12   ar
    24    12    13   ar
    25    13    14   ar
    26    14    17    1
    27    17    18    1
    28    18    19    1
    29    19    20    1
    30    20    21    1
    31    21    22    1
    32    14    15   ar
    33    15    16   ar
    34     7     8   ar
    35     8     9   ar
    36    30    31   ar
    37    31    32    1
    38    31    25   ar
    39     9     1   ar
    40     9     4    1
    41    16    11   ar
    42    22    17    1
    43    33    34    1
    44     5    10    1
@<TRIPOS>MOLECULE
*****
 40 44 0 0 0
SMALL
GASTEIGER

@<TRIPOS>ATOM
      1 C           5.5504   -2.3232   18.9517 C.ar    1  UNL1        0.0611
      2 C           6.7623   -2.3243   18.0677 C.ar    1  UNL1        0.1037
      3 N           6.8193   -1.0042   17.3578 N.ar    1  UNL1       -0.2269
      4 C           5.6427   -0.1872   17.8030 C.ar    1  UNL1        0.1407
      5 N           5.1842    1.1937   17.4386 N.ar    1  UNL1       -0.3374
      6 C           3.9413    1.7594   18.0593 C.ar    1  UNL1        0.0735
      7 C           3.1571    0.9442   19.0444 C.ar    1  UNL1        0.0201
      8 C           3.6156   -0.4367   19.4088 C.ar    1  UNL1        0.0047
      9 C           4.8585   -1.0024   18.7881 C.ar    1  UNL1        0.0386
     10 H           5.6989    1.7287   16.7921 H       1  UNL1        0.1674
     11 C           1.9142    1.5099   19.6651 C.ar    1  UNL1        0.0399
     12 C           0.7688    0.6046   20.0092 C.ar    1  UNL1        0.1034
     13 N          -0.4741    1.1704   20.6299 N.ar    1  UNL1       -0.2121
     14 C          -0.5715    2.6414   20.9065 C.ar    1  UNL1        0.2203
     15 N           0.5740    3.5467   20.5625 N.ar    1  UNL1       -0.2121
     16 C           1.8168    2.9810   19.9418 C.ar    1  UNL1        0.1034
     17 N          -1.8143    3.2072   21.5272 N.pl3   1  UNL1       -0.2730
     18 C          -1.7895    3.6935   22.9460 C.3     1  UNL1        0.1257
     19 C          -3.0324    4.2593   23.5667 C.3     1  UNL1        0.1637
     20 O          -4.3000    4.3388   22.7687 O.3     1  UNL1       -0.3501
     21 C          -4.3247    3.8524   21.3499 C.3     1  UNL1        0.1637
     22 C          -3.0819    3.2867   20.7292 C.3     1  UNL1        0.1257
     23 C           5.1081   -3.4458   19.8428 C.2     1  UNL1        0.2015
     24 O           4.2260   -4.5310   19.3005 O.2     1  UNL1       -0.2864
     25 C           7.3029   -4.1429   23.0751 C.ar    1  UNL1        0.0920
     26 C           6.4275   -3.5581   24.1436 C.ar    1  UNL1        0.0204
     27 C           5.1123   -2.9359   23.7786 C.ar    1  UNL1        0.0312
     28 C           4.6725   -2.8984   22.3450 C.ar    1  UNL1        0.1454
     29 F           3.3574   -2.2763   21.9800 F       1  UNL1       -0.2040
     30 C           5.5479   -3.4832   21.2765 C.ar    1  UNL1        0.0951
     31 C           6.8630   -4.1054   21.6415 C.ar    1  UNL1        0.1598
     32 F           7.7383   -4.6902   20.5729 F       1  UNL1       -0.2026
     33 N           8.6180   -4.7651   23.4401 N.pl3   1  UNL1       -0.2166
     34 H           9.4348   -4.5113   22.9526 H       1  UNL1        0.1734
     35 S           8.6886   -5.7739   24.5479 S.O2    1  UNL1        0.0540
     36 O           7.9305   -6.7545   23.7032 O.2     1  UNL1       -0.1545
     37 O           9.4468   -4.7932   25.3926 O.2     1  UNL1       -0.1545
     38 C           8.7593   -6.7826   25.6558 C.3     1  UNL1        0.1724
     39 C           6.5851   -6.1208   26.9149 C.3     1  UNL1        0.0019
     40 C           8.0258   -6.5377   26.9411 C.3     1  UNL1        0.0273
@<TRIPOS>BOND
     1    39    40    1
     2    40    38    1
     3    38    35    1
     4    35    36    2
     5    35    37    2
     6    35    33    1
     7    33    25    1
     8    25    26   ar
     9    26    27   ar
    10    27    28   ar
    11    28    29    1
    12    28    30   ar
    13    30    23    1
    14    23    24    2
    15    23     1    1
    16     1     2   ar
    17     2     3   ar
    18     3     4   ar
    19     4     5   ar
    20     5     6   ar
    21     6     7   ar
    22     7    11    1
    23    11    12   ar
    24    12    13   ar
    25    13    14   ar
    26    14    17    1
    27    17    18    1
    28    18    19    1
    29    19    20    1
    30    20    21    1
    31    21    22    1
    32    14    15   ar
    33    15    16   ar
    34     7     8   ar
    35     8     9   ar
    36    30    31   ar
    37    31    32    1
    38    31    25   ar
    39     9     1   ar
    40     9     4    1
    41    16    11   ar
    42    22    17    1
    43    33    34    1
    44     5    10    1
@<TRIPOS>MOLECULE
*****
 40 44 0 0 0
SMALL
GASTEIGER

@<TRIPOS>ATOM
      1 C           7.5615   -3.8027   27.8543 C.ar    1  UNL1        0.0611
      2 C           7.9946   -5.1535   27.3666 C.ar    1  UNL1        0.1037
      3 N           7.8621   -6.1216   28.5047 N.ar    1  UNL1       -0.2269
      4 C           7.3471   -5.3691   29.6958 C.ar    1  UNL1        0.1407
      5 N           7.0234   -5.8037   31.0944 N.ar    1  UNL1       -0.3374
      6 C           6.5140   -4.8052   32.0911 C.ar    1  UNL1        0.0735
      7 C           6.3282   -3.3720   31.6891 C.ar    1  UNL1        0.0201
      8 C           6.6520   -2.9374   30.2904 C.ar    1  UNL1        0.0047
      9 C           7.1614   -3.9359   29.2938 C.ar    1  UNL1        0.0386
     10 H           7.1453   -6.7443   31.3583 H       1  UNL1        0.1674
     11 C           5.8187   -2.3735   32.6858 C.ar    1  UNL1        0.0399
     12 C           6.6563   -1.1840   33.0510 C.ar    1  UNL1        0.1034
     13 N           6.1469   -0.1854   34.0477 N.ar    1  UNL1       -0.2121
     14 C           4.7998   -0.3765   34.6793 C.ar    1  UNL1        0.2203
     15 N           3.9621   -1.5661   34.3140 N.ar    1  UNL1       -0.2121
     16 C           4.4716   -2.5646   33.3173 C.ar    1  UNL1        0.1034
     17 N           4.2902    0.6220   35.6759 N.pl3   1  UNL1       -0.2730
     18 C           3.5713    1.8515   35.2054 C.3     1  UNL1        0.1257
     19 C           3.0618    2.8500   36.2021 C.3     1  UNL1        0.1637
     20 O           3.2712    2.6190   37.6693 O.3     1  UNL1       -0.3501
     21 C           3.9902    1.3894   38.1399 C.3     1  UNL1        0.1637
     22 C           4.4997    0.3909   37.1432 C.3     1  UNL1        0.1257
     23 C           7.5336   -2.5403   27.0446 C.2     1  UNL1        0.2015
     24 O           8.5327   -1.4545   27.3136 O.2     1  UNL1       -0.2864
     25 C           5.7362   -2.7263   23.5111 C.ar    1  UNL1        0.0920
     26 C           4.4519   -2.0108   23.8084 C.ar    1  UNL1        0.0204
     27 C           4.1947   -1.4718   25.1844 C.ar    1  UNL1        0.0312
     28 C           5.2219   -1.6482   26.2631 C.ar    1  UNL1        0.1454
     29 F           4.9647   -1.1092   27.6391 F       1  UNL1       -0.2040
     30 C           6.5063   -2.3638   25.9659 C.ar    1  UNL1        0.0951
     31 C           6.7634   -2.9028   24.5899 C.ar    1  UNL1        0.1598
     32 F           8.0478   -3.6184   24.2927 F       1  UNL1       -0.2026
     33 N           5.9934   -3.2654   22.1352 N.pl3   1  UNL1       -0.2166
     34 H           6.8872   -3.6031   21.8979 H       1  UNL1        0.1734
     35 S           4.8887   -3.2898   21.1207 S.O2    1  UNL1        0.0540
     36 O           5.4760   -2.0823   20.4521 O.2     1  UNL1       -0.1545
     37 O           4.3014   -4.4972   21.7893 O.2     1  UNL1       -0.1545
     38 C           3.7840   -3.3142   20.1063 C.3     1  UNL1        0.1724
     39 C           4.6851   -5.2141   18.5802 C.3     1  UNL1        0.0019
     40 C           3.5429   -4.5492   19.2897 C.3     1  UNL1        0.0273
@<TRIPOS>BOND
     1    39    40    1
     2    40    38    1
     3    38    35    1
     4    35    36    2
     5    35    37    2
     6    35    33    1
     7    33    25    1
     8    25    26   ar
     9    26    27   ar
    10    27    28   ar
    11    28    29    1
    12    28    30   ar
    13    30    23    1
    14    23    24    2
    15    23     1    1
    16     1     2   ar
    17     2     3   ar
    18     3     4   ar
    19     4     5   ar
    20     5     6   ar
    21     6     7   ar
    22     7    11    1
    23    11    12   ar
    24    12    13   ar
    25    13    14   ar
    26    14    17    1
    27    17    18    1
    28    18    19    1
    29    19    20    1
    30    20    21    1
    31    21    22    1
    32    14    15   ar
    33    15    16   ar
    34     7     8   ar
    35     8     9   ar
    36    30    31   ar
    37    31    32    1
    38    31    25   ar
    39     9     1   ar
    40     9     4    1
    41    16    11   ar
    42    22    17    1
    43    33    34    1
    44     5    10    1
@<TRIPOS>MOLECULE
*****
 40 44 0 0 0
SMALL
GASTEIGER

@<TRIPOS>ATOM
      1 C           0.0265    2.9115   23.3612 C.ar    1  UNL1        0.0611
      2 C          -1.2740    3.5476   22.9687 C.ar    1  UNL1        0.1037
      3 N          -2.1894    3.5014   24.1561 N.ar    1  UNL1       -0.2269
      4 C          -1.4547    2.8367   25.2823 C.ar    1  UNL1        0.1407
      5 N          -1.8559    2.5163   26.6917 N.ar    1  UNL1       -0.3374
      6 C          -0.8874    1.8314   27.6098 C.ar    1  UNL1        0.0735
      7 C           0.4821    1.4668   27.1185 C.ar    1  UNL1        0.0201
      8 C           0.8833    1.7872   25.7091 C.ar    1  UNL1        0.0047
      9 C          -0.0852    2.4721   24.7910 C.ar    1  UNL1        0.0386
     10 H          -2.7548    2.7556   27.0141 H       1  UNL1        0.1674
     11 C           1.4506    0.7818   28.0367 C.ar    1  UNL1        0.0399
     12 C           0.9514    0.0795   29.2645 C.ar    1  UNL1        0.1034
     13 N           1.9199   -0.6055   30.1827 N.ar    1  UNL1       -0.2121
     14 C           3.3875   -0.5881   29.8730 C.ar    1  UNL1        0.2203
     15 N           3.8866    0.1143   28.6451 N.ar    1  UNL1       -0.2121
     16 C           2.9182    0.7992   27.7270 C.ar    1  UNL1        0.1034
     17 N           4.3559   -1.2730   30.7911 N.pl3   1  UNL1       -0.2730
     18 C           5.6945   -1.7126   30.2764 C.3     1  UNL1        0.1257
     19 C           6.6630   -2.3976   31.1945 C.3     1  UNL1        0.1637
     20 O           6.2928   -2.6429   32.6273 O.3     1  UNL1       -0.3501
     21 C           4.9542   -2.2032   33.1420 C.3     1  UNL1        0.1637
     22 C           3.9858   -1.5183   32.2239 C.3     1  UNL1        0.1257
     23 C           1.2279    2.7441   22.4787 C.2     1  UNL1        0.2015
     24 O           2.1200    3.9162   22.1959 O.2     1  UNL1       -0.2864
     25 C           2.9812   -0.7546   21.8187 C.ar    1  UNL1        0.0920
     26 C           2.1556   -1.2750   20.6796 C.ar    1  UNL1        0.0204
     27 C           1.0208   -0.4557   20.1402 C.ar    1  UNL1        0.0312
     28 C           0.7116    0.8839   20.7398 C.ar    1  UNL1        0.1454
     29 F          -0.4232    1.7032   20.2004 F       1  UNL1       -0.2040
     30 C           1.5371    1.4043   21.8789 C.ar    1  UNL1        0.0951
     31 C           2.6719    0.5850   22.4184 C.ar    1  UNL1        0.1598
     32 F           3.4975    1.1055   23.5576 F       1  UNL1       -0.2026
     33 N           4.1160   -1.5739   22.3582 N.pl3   1  UNL1       -0.2166
     34 H           4.3810   -1.4864   23.3023 H       1  UNL1        0.1734
     35 S           4.8470   -2.5264   21.4591 S.O2    1  UNL1        0.0540
     36 O           4.3072   -3.6836   22.2462 O.2     1  UNL1       -0.1545
     37 O           5.3868   -1.3692   20.6720 O.2     1  UNL1       -0.1545
     38 C           5.5781   -3.4789   20.5601 C.3     1  UNL1        0.1724
     39 C           4.0094   -4.7945   18.9604 C.3     1  UNL1        0.0019
     40 C           5.0635   -3.7496   19.1773 C.3     1  UNL1        0.0273
@<TRIPOS>BOND
     1    39    40    1
     2    40    38    1
     3    38    35    1
     4    35    36    2
     5    35    37    2
     6    35    33    1
     7    33    25    1
     8    25    26   ar
     9    26    27   ar
    10    27    28   ar
    11    28    29    1
    12    28    30   ar
    13    30    23    1
    14    23    24    2
    15    23     1    1
    16     1     2   ar
    17     2     3   ar
    18     3     4   ar
    19     4     5   ar
    20     5     6   ar
    21     6     7   ar
    22     7    11    1
    23    11    12   ar
    24    12    13   ar
    25    13    14   ar
    26    14    17    1
    27    17    18    1
    28    18    19    1
    29    19    20    1
    30    20    21    1
    31    21    22    1
    32    14    15   ar
    33    15    16   ar
    34     7     8   ar
    35     8     9   ar
    36    30    31   ar
    37    31    32    1
    38    31    25   ar
    39     9     1   ar
    40     9     4    1
    41    16    11   ar
    42    22    17    1
    43    33    34    1
    44     5    10    1
@<TRIPOS>MOLECULE
*****
 40 44 0 0 0
SMALL
GASTEIGER

@<TRIPOS>ATOM
      1 C           5.5832   -2.4037   19.0798 C.ar    1  UNL1        0.0611
      2 C           6.8199   -2.4295   18.2312 C.ar    1  UNL1        0.1037
      3 N           6.8820   -1.1425   17.4633 N.ar    1  UNL1       -0.2269
      4 C           5.6837   -0.3213   17.8372 C.ar    1  UNL1        0.1407
      5 N           5.2198    1.0355   17.3971 N.ar    1  UNL1       -0.3374
      6 C           3.9532    1.6128   17.9560 C.ar    1  UNL1        0.0735
      7 C           3.1505    0.8333   18.9550 C.ar    1  UNL1        0.0201
      8 C           3.6144   -0.5235   19.3951 C.ar    1  UNL1        0.0047
      9 C           4.8810   -1.1008   18.8363 C.ar    1  UNL1        0.0386
     10 H           5.7466    1.5472   16.7414 H       1  UNL1        0.1674
     11 C           1.8838    1.4107   19.5139 C.ar    1  UNL1        0.0399
     12 C           1.0491    0.6064   20.4659 C.ar    1  UNL1        0.1034
     13 N          -0.2176    1.1838   21.0247 N.ar    1  UNL1       -0.2121
     14 C          -0.6494    2.5655   20.6316 C.ar    1  UNL1        0.2203
     15 N           0.1854    3.3698   19.6796 N.ar    1  UNL1       -0.2121
     16 C           1.4520    2.7924   19.1208 C.ar    1  UNL1        0.1034
     17 N          -1.9160    3.1429   21.1904 N.pl3   1  UNL1       -0.2730
     18 C          -1.9637    3.6067   22.6161 C.3     1  UNL1        0.1257
     19 C          -3.2303    4.1842   23.1750 C.3     1  UNL1        0.1637
     20 O          -4.4492    4.2977   22.3082 O.3     1  UNL1       -0.3501
     21 C          -4.4015    3.8338   20.8825 C.3     1  UNL1        0.1637
     22 C          -3.1349    3.2564   20.3236 C.3     1  UNL1        0.1257
     23 C           5.1285   -3.4902   20.0087 C.2     1  UNL1        0.2015
     24 O           4.2252   -4.5771   19.5065 O.2     1  UNL1       -0.2864
     25 C           5.2051   -2.7903   23.9145 C.ar    1  UNL1        0.0920
     26 C           6.4747   -3.4884   24.3027 C.ar    1  UNL1        0.0204
     27 C           7.2955   -4.1871   23.2596 C.ar    1  UNL1        0.0312
     28 C           6.8469   -4.1877   21.8283 C.ar    1  UNL1        0.1454
     29 F           7.6678   -4.8864   20.7853 F       1  UNL1       -0.2040
     30 C           5.5773   -3.4896   21.4401 C.ar    1  UNL1        0.0951
     31 C           4.7564   -2.7909   22.4832 C.ar    1  UNL1        0.1598
     32 F           3.4868   -2.0928   22.0948 F       1  UNL1       -0.2026
     33 N           4.3842   -2.0916   24.9575 N.pl3   1  UNL1       -0.2166
     34 H           3.8871   -2.6165   25.6258 H       1  UNL1        0.1734
     35 S           4.3207   -0.5932   24.9823 S.O2    1  UNL1        0.0540
     36 O           2.8620   -0.6493   24.6373 O.2     1  UNL1       -0.1545
     37 O           5.7794   -0.5370   25.3273 O.2     1  UNL1       -0.1545
     38 C           4.2572    0.9053   25.0071 C.3     1  UNL1        0.1724
     39 C           4.7379    1.1458   22.4652 C.3     1  UNL1        0.0019
     40 C           4.8057    1.6983   23.8580 C.3     1  UNL1        0.0273
@<TRIPOS>BOND
     1    39    40    1
     2    40    38    1
     3    38    35    1
     4    35    36    2
     5    35    37    2
     6    35    33    1
     7    33    25    1
     8    25    26   ar
     9    26    27   ar
    10    27    28   ar
    11    28    29    1
    12    28    30   ar
    13    30    23    1
    14    23    24    2
    15    23     1    1
    16     1     2   ar
    17     2     3   ar
    18     3     4   ar
    19     4     5   ar
    20     5     6   ar
    21     6     7   ar
    22     7    11    1
    23    11    12   ar
    24    12    13   ar
    25    13    14   ar
    26    14    17    1
    27    17    18    1
    28    18    19    1
    29    19    20    1
    30    20    21    1
    31    21    22    1
    32    14    15   ar
    33    15    16   ar
    34     7     8   ar
    35     8     9   ar
    36    30    31   ar
    37    31    32    1
    38    31    25   ar
    39     9     1   ar
    40     9     4    1
    41    16    11   ar
    42    22    17    1
    43    33    34    1
    44     5    10    1
