@<TRIPOS>MOLECULE
*****
 28 31 0 0 0
SMALL
GASTEIGER

@<TRIPOS>ATOM
      1 N          -5.6336  -15.9386   24.6712 N.pl3   1  UNL1       -0.3077
      2 C          -5.3089  -15.6855   26.1136 C.3     1  UNL1        0.0911
      3 C          -6.4135  -15.4519   27.1011 C.3     1  UNL1        0.0261
      4 C          -7.8427  -15.4712   26.6462 C.3     1  UNL1        0.0295
      5 C          -8.1674  -15.7242   25.2038 C.ar    1  UNL1       -0.0054
      6 C          -9.5966  -15.7435   24.7490 C.ar    1  UNL1        0.0371
      7 C          -9.9213  -15.9965   23.3066 C.ar    1  UNL1        0.1354
      8 C          -8.8167  -16.2302   22.3190 C.ar    1  UNL1        0.0414
      9 C          -7.3874  -16.2109   22.7738 C.ar    1  UNL1        0.0177
     10 C          -7.0628  -15.9579   24.2163 C.ar    1  UNL1        0.0440
     11 N         -11.3505  -16.0159   22.8517 N.pl3   1  UNL1       -0.1990
     12 H         -11.8557  -15.1739   22.7802 H       1  UNL1        0.2985
     13 C         -12.0100  -17.3179   22.5059 C.2     1  UNL1        0.3224
     14 N         -13.2857  -17.7166   23.1867 N.2     1  UNL1       -0.0985
     15 H         -13.6901  -17.1236   23.8606 H       1  UNL1        0.3633
     16 C         -11.3937  -18.2214   21.4792 C.ar    1  UNL1        0.1114
     17 C         -11.2260  -17.9135   20.0208 C.ar    1  UNL1        0.0144
     18 C         -10.5656  -19.0931   19.3709 C.ar    1  UNL1        0.0077
     19 C         -10.3252  -20.1301   20.4277 C.ar    1  UNL1        0.0357
     20 S         -10.8370  -19.5913   21.7307 S.2     1  UNL1       -0.0792
     21 C          -4.5289  -16.1723   23.6836 C.3     1  UNL1        0.0921
     22 C          -3.9279  -17.5391   23.5402 C.3     1  UNL1        0.0374
     23 C          -2.1821  -17.3058   20.7930 C.3     1  UNL1        0.0896
     24 N          -3.3482  -18.2212   21.0216 N.3     1  UNL1       -0.2727
     25 C          -3.9166  -19.1900   20.0275 C.3     1  UNL1        0.0721
     26 C          -5.0704  -19.8961   20.6759 C.3     1  UNL1        0.0187
     27 C          -5.2150  -19.3636   22.0707 C.3     1  UNL1        0.0174
     28 C          -4.1506  -18.3284   22.2843 C.3     1  UNL1        0.0593
@<TRIPOS>BOND
     1    23    24    1
     2    24    25    1
     3    25    26    1
     4    26    27    1
     5    27    28    1
     6    28    22    1
     7    22    21    1
     8    21     1    1
     9     1     2    1
    10     2     3    1
    11     3     4    1
    12     4     5    1
    13     5     6   ar
    14     6     7   ar
    15     7    11    1
    16    11    13    1
    17    13    14    2
    18    13    16    1
    19    16    17   ar
    20    17    18   ar
    21    18    19   ar
    22    19    20   ar
    23     7     8   ar
    24     8     9   ar
    25     9    10   ar
    26    28    24    1
    27    10     1    1
    28    10     5   ar
    29    20    16   ar
    30    11    12    1
    31    14    15    1
@<TRIPOS>MOLECULE
*****
 28 31 0 0 0
SMALL
GASTEIGER

@<TRIPOS>ATOM
      1 N          -9.6699  -17.5676   24.1758 N.pl3   1  UNL1       -0.3077
      2 C          -9.6116  -16.1720   24.7225 C.3     1  UNL1        0.0911
      3 C          -8.3980  -15.3233   24.4843 C.3     1  UNL1        0.0261
      4 C          -7.2426  -15.8702   23.6994 C.3     1  UNL1        0.0295
      5 C          -7.3009  -17.2657   23.1527 C.ar    1  UNL1       -0.0054
      6 C          -6.1455  -17.8126   22.3678 C.ar    1  UNL1        0.0371
      7 C          -6.2038  -19.2082   21.8211 C.ar    1  UNL1        0.1354
      8 C          -7.4175  -20.0570   22.0592 C.ar    1  UNL1        0.0414
      9 C          -8.5728  -19.5101   22.8441 C.ar    1  UNL1        0.0177
     10 C          -8.5145  -18.1144   23.3909 C.ar    1  UNL1        0.0440
     11 N          -5.0484  -19.7551   21.0362 N.pl3   1  UNL1       -0.1990
     12 H          -5.2130  -20.3234   20.2493 H       1  UNL1        0.2985
     13 C          -3.6425  -19.4361   21.4502 C.2     1  UNL1        0.3224
     14 N          -3.1654  -19.7974   22.8256 N.2     1  UNL1       -0.0985
     15 H          -3.7751  -20.2439   23.4566 H       1  UNL1        0.3633
     16 C          -2.7136  -18.7558   20.4887 C.ar    1  UNL1        0.1114
     17 C          -2.9986  -18.4618   19.0457 C.ar    1  UNL1        0.0144
     18 C          -1.7977  -17.7743   18.4667 C.ar    1  UNL1        0.0077
     19 C          -0.7705  -17.6433   19.5519 C.ar    1  UNL1        0.0357
     20 S          -1.3365  -18.2499   20.8015 S.2     1  UNL1       -0.0792
     21 C         -10.8835  -18.4163   24.4140 C.3     1  UNL1        0.0921
     22 C         -12.0826  -18.2771   23.5234 C.3     1  UNL1        0.0374
     23 C         -11.0798  -19.8574   20.8502 C.3     1  UNL1        0.0896
     24 N         -11.4734  -18.4119   20.9243 N.3     1  UNL1       -0.2727
     25 C         -11.4753  -17.4390   19.7826 C.3     1  UNL1        0.0721
     26 C         -11.9374  -16.1112   20.3058 C.3     1  UNL1        0.0187
     27 C         -12.2211  -16.2637   21.7708 C.3     1  UNL1        0.0174
     28 C         -11.9344  -17.6855   22.1531 C.3     1  UNL1        0.0593
@<TRIPOS>BOND
     1    23    24    1
     2    24    25    1
     3    25    26    1
     4    26    27    1
     5    27    28    1
     6    28    22    1
     7    22    21    1
     8    21     1    1
     9     1     2    1
    10     2     3    1
    11     3     4    1
    12     4     5    1
    13     5     6   ar
    14     6     7   ar
    15     7    11    1
    16    11    13    1
    17    13    14    2
    18    13    16    1
    19    16    17   ar
    20    17    18   ar
    21    18    19   ar
    22    19    20   ar
    23     7     8   ar
    24     8     9   ar
    25     9    10   ar
    26    28    24    1
    27    10     1    1
    28    10     5   ar
    29    20    16   ar
    30    11    12    1
    31    14    15    1
@<TRIPOS>MOLECULE
*****
 28 31 0 0 0
SMALL
GASTEIGER

@<TRIPOS>ATOM
      1 N          -5.7177  -15.7674   24.7183 N.pl3   1  UNL1       -0.3077
      2 C          -5.5219  -15.0521   26.0221 C.3     1  UNL1        0.0911
      3 C          -6.6160  -15.0503   27.0481 C.3     1  UNL1        0.0261
      4 C          -7.9059  -15.7638   26.7704 C.3     1  UNL1        0.0295
      5 C          -8.1016  -16.4791   25.4666 C.ar    1  UNL1       -0.0054
      6 C          -9.3915  -17.1927   25.1888 C.ar    1  UNL1        0.0371
      7 C          -9.5872  -17.9080   23.8850 C.ar    1  UNL1        0.1354
      8 C          -8.4931  -17.9098   22.8589 C.ar    1  UNL1        0.0414
      9 C          -7.2032  -17.1963   23.1366 C.ar    1  UNL1        0.0177
     10 C          -7.0075  -16.4809   24.4405 C.ar    1  UNL1        0.0440
     11 N         -10.8771  -18.6215   23.6073 N.pl3   1  UNL1       -0.1990
     12 H         -11.4725  -18.8696   24.3511 H       1  UNL1        0.2985
     13 C         -11.2598  -18.9571   22.1963 C.2     1  UNL1        0.3224
     14 N         -11.3388  -20.3904   21.7614 N.2     1  UNL1       -0.0985
     15 H         -11.1394  -21.1109   22.4020 H       1  UNL1        0.3633
     16 C         -11.5636  -17.8593   21.2203 C.ar    1  UNL1        0.1114
     17 C         -10.9105  -17.6615   19.8845 C.ar    1  UNL1        0.0144
     18 C         -11.5171  -16.4465   19.2473 C.ar    1  UNL1        0.0077
     19 C         -12.5450  -15.8934   20.1893 C.ar    1  UNL1        0.0357
     20 S         -12.5738  -16.7666   21.4087 S.2     1  UNL1       -0.0792
     21 C          -4.6235  -15.7692   23.6921 C.3     1  UNL1        0.0921
     22 C          -3.7314  -16.9666   23.5491 C.3     1  UNL1        0.0374
     23 C          -4.0646  -19.5202   21.5447 C.3     1  UNL1        0.0896
     24 N          -3.1284  -18.3642   21.3518 N.3     1  UNL1       -0.2727
     25 C          -2.1811  -18.1789   20.2037 C.3     1  UNL1        0.0721
     26 C          -1.4424  -16.8907   20.4154 C.3     1  UNL1        0.0187
     27 C          -1.9333  -16.2797   21.6944 C.3     1  UNL1        0.0174
     28 C          -2.9753  -17.1904   22.2731 C.3     1  UNL1        0.0593
@<TRIPOS>BOND
     1    23    24    1
     2    24    25    1
     3    25    26    1
     4    26    27    1
     5    27    28    1
     6    28    22    1
     7    22    21    1
     8    21     1    1
     9     1     2    1
    10     2     3    1
    11     3     4    1
    12     4     5    1
    13     5     6   ar
    14     6     7   ar
    15     7    11    1
    16    11    13    1
    17    13    14    2
    18    13    16    1
    19    16    17   ar
    20    17    18   ar
    21    18    19   ar
    22    19    20   ar
    23     7     8   ar
    24     8     9   ar
    25     9    10   ar
    26    28    24    1
    27    10     1    1
    28    10     5   ar
    29    20    16   ar
    30    11    12    1
    31    14    15    1
@<TRIPOS>MOLECULE
*****
 28 31 0 0 0
SMALL
GASTEIGER

@<TRIPOS>ATOM
      1 N         -10.9554   -4.1206   18.1582 N.pl3   1  UNL1       -0.3077
      2 C          -9.6744   -4.4640   18.8589 C.3     1  UNL1        0.0911
      3 C          -9.3657   -5.8916   19.2003 C.3     1  UNL1        0.0261
      4 C         -10.3381   -6.9758   18.8410 C.3     1  UNL1        0.0295
      5 C         -11.6191   -6.6324   18.1403 C.ar    1  UNL1       -0.0054
      6 C         -12.5914   -7.7165   17.7810 C.ar    1  UNL1        0.0371
      7 C         -13.8724   -7.3731   17.0804 C.ar    1  UNL1        0.1354
      8 C         -14.1812   -5.9454   16.7389 C.ar    1  UNL1        0.0414
      9 C         -13.2088   -4.8613   17.0982 C.ar    1  UNL1        0.0177
     10 C         -11.9277   -5.2048   17.7989 C.ar    1  UNL1        0.0440
     11 N         -14.8448   -8.4573   16.7211 N.pl3   1  UNL1       -0.1990
     12 H         -15.0344   -8.6550   15.7754 H       1  UNL1        0.2985
     13 C         -15.5283   -9.2403   17.8026 C.2     1  UNL1        0.3224
     14 N         -15.0714  -10.6324   18.1236 N.2     1  UNL1       -0.0985
     15 H         -14.3229  -11.0322   17.6245 H       1  UNL1        0.3633
     16 C         -16.6688   -8.6311   18.5630 C.ar    1  UNL1        0.1114
     17 C         -17.0168   -8.9014   19.9968 C.ar    1  UNL1        0.0144
     18 C         -18.2246   -8.0821   20.3431 C.ar    1  UNL1        0.0077
     19 C         -18.6231   -7.3054   19.1233 C.ar    1  UNL1        0.0357
     20 S         -17.6616   -7.6447   18.0231 S.2     1  UNL1       -0.0792
     21 C         -11.2641   -2.6929   17.8167 C.3     1  UNL1        0.0921
     22 C         -11.8119   -1.7723   18.8667 C.3     1  UNL1        0.0374
     23 C         -13.8154   -3.6224   20.6590 C.3     1  UNL1        0.0896
     24 N         -14.2152   -2.4395   19.8279 N.3     1  UNL1       -0.2727
     25 C         -15.6061   -1.8993   19.6747 C.3     1  UNL1        0.0721
     26 C         -15.5449   -0.7150   18.7561 C.3     1  UNL1        0.0187
     27 C         -14.1161   -0.5233   18.3416 C.3     1  UNL1        0.0174
     28 C         -13.2943   -1.5891   19.0040 C.3     1  UNL1        0.0593
@<TRIPOS>BOND
     1    23    24    1
     2    24    25    1
     3    25    26    1
     4    26    27    1
     5    27    28    1
     6    28    22    1
     7    22    21    1
     8    21     1    1
     9     1     2    1
    10     2     3    1
    11     3     4    1
    12     4     5    1
    13     5     6   ar
    14     6     7   ar
    15     7    11    1
    16    11    13    1
    17    13    14    2
    18    13    16    1
    19    16    17   ar
    20    17    18   ar
    21    18    19   ar
    22    19    20   ar
    23     7     8   ar
    24     8     9   ar
    25     9    10   ar
    26    28    24    1
    27    10     1    1
    28    10     5   ar
    29    20    16   ar
    30    11    12    1
    31    14    15    1
@<TRIPOS>MOLECULE
*****
 28 31 0 0 0
SMALL
GASTEIGER

@<TRIPOS>ATOM
      1 N          -8.5927  -15.9033   24.8826 N.pl3   1  UNL1       -0.3077
      2 C          -8.9263  -15.3209   26.2241 C.3     1  UNL1        0.0911
      3 C          -7.8395  -15.0855   27.2307 C.3     1  UNL1        0.0261
      4 C          -6.4191  -15.4325   26.8959 C.3     1  UNL1        0.0295
      5 C          -6.0855  -16.0148   25.5544 C.ar    1  UNL1       -0.0054
      6 C          -4.6651  -16.3617   25.2195 C.ar    1  UNL1        0.0371
      7 C          -4.3316  -16.9441   23.8781 C.ar    1  UNL1        0.1354
      8 C          -5.4184  -17.1795   22.8714 C.ar    1  UNL1        0.0414
      9 C          -6.8388  -16.8325   23.2062 C.ar    1  UNL1        0.0177
     10 C          -7.1723  -16.2502   24.5478 C.ar    1  UNL1        0.0440
     11 N          -2.9112  -17.2910   23.5432 N.pl3   1  UNL1       -0.1990
     12 H          -2.2833  -17.5399   24.2595 H       1  UNL1        0.2985
     13 C          -2.4475  -17.2587   22.1171 C.2     1  UNL1        0.3224
     14 N          -1.5811  -16.1329   21.6355 N.2     1  UNL1       -0.0985
     15 H          -1.3168  -15.4152   22.2555 H       1  UNL1        0.3633
     16 C          -2.8501  -18.3521   21.1725 C.ar    1  UNL1        0.1114
     17 C          -3.2758  -19.7379   21.5580 C.ar    1  UNL1        0.0144
     18 C          -3.5866  -20.4940   20.3004 C.ar    1  UNL1        0.0077
     19 C          -3.3530  -19.5756   19.1376 C.ar    1  UNL1        0.0357
     20 S          -2.8978  -18.2519   19.6767 S.2     1  UNL1       -0.0792
     21 C          -9.6796  -16.1387   23.8759 C.3     1  UNL1        0.0921
     22 C         -10.2361  -17.5180   23.6818 C.3     1  UNL1        0.0374
     23 C         -12.4596  -16.9797   21.3547 C.3     1  UNL1        0.0896
     24 N         -11.2713  -17.8886   21.2454 N.3     1  UNL1       -0.2727
     25 C         -10.8964  -18.7095   20.0473 C.3     1  UNL1        0.0721
     26 C          -9.6426  -19.4644   20.3765 C.3     1  UNL1        0.0187
     27 C          -9.2427  -19.1099   21.7781 C.3     1  UNL1        0.0174
     28 C         -10.2493  -18.1360   22.3151 C.3     1  UNL1        0.0593
@<TRIPOS>BOND
     1    23    24    1
     2    24    25    1
     3    25    26    1
     4    26    27    1
     5    27    28    1
     6    28    22    1
     7    22    21    1
     8    21     1    1
     9     1     2    1
    10     2     3    1
    11     3     4    1
    12     4     5    1
    13     5     6   ar
    14     6     7   ar
    15     7    11    1
    16    11    13    1
    17    13    14    2
    18    13    16    1
    19    16    17   ar
    20    17    18   ar
    21    18    19   ar
    22    19    20   ar
    23     7     8   ar
    24     8     9   ar
    25     9    10   ar
    26    28    24    1
    27    10     1    1
    28    10     5   ar
    29    20    16   ar
    30    11    12    1
    31    14    15    1
@<TRIPOS>MOLECULE
*****
 28 31 0 0 0
SMALL
GASTEIGER

@<TRIPOS>ATOM
      1 N          -7.7104  -15.9957   24.3067 N.pl3   1  UNL1       -0.3077
      2 C          -7.0612  -15.0798   25.3014 C.3     1  UNL1        0.0911
      3 C          -5.5775  -15.1353   25.5151 C.3     1  UNL1        0.0261
      4 C          -4.7431  -16.1067   24.7340 C.3     1  UNL1        0.0295
      5 C          -5.3923  -17.0226   23.7392 C.ar    1  UNL1       -0.0054
      6 C          -4.5579  -17.9940   22.9581 C.ar    1  UNL1        0.0371
      7 C          -5.2071  -18.9099   21.9634 C.ar    1  UNL1        0.1354
      8 C          -6.6909  -18.8545   21.7497 C.ar    1  UNL1        0.0414
      9 C          -7.5253  -17.8830   22.5308 C.ar    1  UNL1        0.0177
     10 C          -6.8760  -16.9671   23.5256 C.ar    1  UNL1        0.0440
     11 N          -4.3727  -19.8814   21.1823 N.pl3   1  UNL1       -0.1990
     12 H          -4.7906  -20.6767   20.7798 H       1  UNL1        0.2985
     13 C          -2.9017  -19.6410   21.0145 C.2     1  UNL1        0.3224
     14 N          -1.9226  -20.3128   21.9309 N.2     1  UNL1       -0.0985
     15 H          -2.2455  -20.9115   22.6426 H       1  UNL1        0.3633
     16 C          -2.4097  -18.7287   19.9301 C.ar    1  UNL1        0.1114
     17 C          -3.2589  -18.0474   18.8983 C.ar    1  UNL1        0.0144
     18 C          -2.3562  -17.2352   18.0177 C.ar    1  UNL1        0.0077
     19 C          -0.9491  -17.4145   18.5053 C.ar    1  UNL1        0.0357
     20 S          -0.9821  -18.3376   19.6872 S.2     1  UNL1       -0.0792
     21 C          -9.1941  -15.9402   24.0929 C.3     1  UNL1        0.0921
     22 C         -10.0112  -17.1954   24.1755 C.3     1  UNL1        0.0374
     23 C         -10.3519  -15.9671   21.1714 C.3     1  UNL1        0.0896
     24 N         -11.3559  -16.8127   21.8973 N.3     1  UNL1       -0.2727
     25 C         -12.6928  -17.2422   21.3698 C.3     1  UNL1        0.0721
     26 C         -13.3624  -18.0723   22.4247 C.3     1  UNL1        0.0187
     27 C         -12.4394  -18.1558   23.6041 C.3     1  UNL1        0.0174
     28 C         -11.1993  -17.3773   23.2782 C.3     1  UNL1        0.0593
@<TRIPOS>BOND
     1    23    24    1
     2    24    25    1
     3    25    26    1
     4    26    27    1
     5    27    28    1
     6    28    22    1
     7    22    21    1
     8    21     1    1
     9     1     2    1
    10     2     3    1
    11     3     4    1
    12     4     5    1
    13     5     6   ar
    14     6     7   ar
    15     7    11    1
    16    11    13    1
    17    13    14    2
    18    13    16    1
    19    16    17   ar
    20    17    18   ar
    21    18    19   ar
    22    19    20   ar
    23     7     8   ar
    24     8     9   ar
    25     9    10   ar
    26    28    24    1
    27    10     1    1
    28    10     5   ar
    29    20    16   ar
    30    11    12    1
    31    14    15    1
@<TRIPOS>MOLECULE
*****
 28 31 0 0 0
SMALL
GASTEIGER

@<TRIPOS>ATOM
      1 N         -11.6775   -3.8203   18.9592 N.pl3   1  UNL1       -0.3077
      2 C         -10.2590   -3.6871   18.4902 C.3     1  UNL1        0.0911
      3 C          -9.5385   -4.8786   17.9323 C.3     1  UNL1        0.0261
      4 C         -10.2366   -6.2032   17.8434 C.3     1  UNL1        0.0295
      5 C         -11.6551   -6.3364   18.3124 C.ar    1  UNL1       -0.0054
      6 C         -12.3532   -7.6611   18.2235 C.ar    1  UNL1        0.0371
      7 C         -13.7717   -7.7943   18.6925 C.ar    1  UNL1        0.1354
      8 C         -14.4922   -6.6028   19.2504 C.ar    1  UNL1        0.0414
      9 C         -13.7942   -5.2781   19.3393 C.ar    1  UNL1        0.0177
     10 C         -12.3756   -5.1450   18.8703 C.ar    1  UNL1        0.0440
     11 N         -14.4698   -9.1190   18.6036 N.pl3   1  UNL1       -0.1990
     12 H         -14.0083   -9.8930   18.2070 H       1  UNL1        0.2985
     13 C         -15.8709   -9.2645   19.1190 C.2     1  UNL1        0.3224
     14 N         -16.1168   -9.4132   20.5912 N.2     1  UNL1       -0.0985
     15 H         -15.3586   -9.4154   21.2192 H       1  UNL1        0.3633
     16 C         -17.0261   -9.2613   18.1622 C.ar    1  UNL1        0.1114
     17 C         -18.0699  -10.3311   18.0366 C.ar    1  UNL1        0.0144
     18 C         -19.0293   -9.9187   16.9598 C.ar    1  UNL1        0.0077
     19 C         -18.5784   -8.5939   16.4198 C.ar    1  UNL1        0.0357
     20 S         -17.3403   -8.1876   17.1630 S.2     1  UNL1       -0.0792
     21 C         -12.3980   -2.6287   19.5170 C.3     1  UNL1        0.0921
     22 C         -12.2756   -1.2946   18.8424 C.3     1  UNL1        0.0374
     23 C         -12.1908    1.4301   17.0486 C.3     1  UNL1        0.0896
     24 N         -13.2845    0.4035   17.0415 N.3     1  UNL1       -0.2727
     25 C         -14.5312    0.4492   16.2087 C.3     1  UNL1        0.0721
     26 C         -15.3407   -0.7751   16.5185 C.3     1  UNL1        0.0187
     27 C         -14.5942   -1.5773   17.5428 C.3     1  UNL1        0.0174
     28 C         -13.3234   -0.8489   17.8661 C.3     1  UNL1        0.0593
@<TRIPOS>BOND
     1    23    24    1
     2    24    25    1
     3    25    26    1
     4    26    27    1
     5    27    28    1
     6    28    22    1
     7    22    21    1
     8    21     1    1
     9     1     2    1
    10     2     3    1
    11     3     4    1
    12     4     5    1
    13     5     6   ar
    14     6     7   ar
    15     7    11    1
    16    11    13    1
    17    13    14    2
    18    13    16    1
    19    16    17   ar
    20    17    18   ar
    21    18    19   ar
    22    19    20   ar
    23     7     8   ar
    24     8     9   ar
    25     9    10   ar
    26    28    24    1
    27    10     1    1
    28    10     5   ar
    29    20    16   ar
    30    11    12    1
    31    14    15    1
@<TRIPOS>MOLECULE
*****
 28 31 0 0 0
SMALL
GASTEIGER

@<TRIPOS>ATOM
      1 N           5.5259    0.1465   35.9592 N.pl3   1  UNL1       -0.3077
      2 C           6.7028    0.8770   36.5346 C.3     1  UNL1        0.0911
      3 C           8.0449    0.7762   35.8724 C.3     1  UNL1        0.0261
      4 C           8.2101   -0.0551   34.6348 C.3     1  UNL1        0.0295
      5 C           7.0332   -0.7856   34.0594 C.ar    1  UNL1       -0.0054
      6 C           7.1984   -1.6169   32.8218 C.ar    1  UNL1        0.0371
      7 C           6.0214   -2.3474   32.2464 C.ar    1  UNL1        0.1354
      8 C           4.6792   -2.2467   32.9086 C.ar    1  UNL1        0.0414
      9 C           4.5141   -1.4154   34.1462 C.ar    1  UNL1        0.0177
     10 C           5.6911   -0.6848   34.7216 C.ar    1  UNL1        0.0440
     11 N           6.1866   -3.1788   31.0088 N.pl3   1  UNL1       -0.1990
     12 H           5.9977   -2.7886   30.1249 H       1  UNL1        0.2985
     13 C           6.6397   -4.6045   31.1179 C.2     1  UNL1        0.3224
     14 N           6.5884   -5.3085   32.4414 N.2     1  UNL1       -0.0985
     15 H           6.2573   -4.8348   33.2385 H       1  UNL1        0.3633
     16 C           7.1440   -5.3262   29.9036 C.ar    1  UNL1        0.1114
     17 C           8.3546   -6.2099   29.8424 C.ar    1  UNL1        0.0144
     18 C           8.4851   -6.7208   28.4382 C.ar    1  UNL1        0.0077
     19 C           7.3551   -6.1530   27.6314 C.ar    1  UNL1        0.0357
     20 S           6.5263   -5.2911   28.5371 S.2     1  UNL1       -0.0792
     21 C           4.1837    0.2472   36.6214 C.3     1  UNL1        0.0921
     22 C           3.7543    1.5380   37.2535 C.3     1  UNL1        0.0374
     23 C           1.5609    3.9543   37.2619 C.3     1  UNL1        0.0896
     24 N           1.4941    2.7000   38.0818 N.3     1  UNL1       -0.2727
     25 C           0.4073    2.3361   39.0495 C.3     1  UNL1        0.0721
     26 C           0.7438    1.0005   39.6437 C.3     1  UNL1        0.0187
     27 C           2.0385    0.5390   39.0432 C.3     1  UNL1        0.0174
     28 C           2.5022    1.5893   38.0779 C.3     1  UNL1        0.0593
@<TRIPOS>BOND
     1    23    24    1
     2    24    25    1
     3    25    26    1
     4    26    27    1
     5    27    28    1
     6    28    22    1
     7    22    21    1
     8    21     1    1
     9     1     2    1
    10     2     3    1
    11     3     4    1
    12     4     5    1
    13     5     6   ar
    14     6     7   ar
    15     7    11    1
    16    11    13    1
    17    13    14    2
    18    13    16    1
    19    16    17   ar
    20    17    18   ar
    21    18    19   ar
    22    19    20   ar
    23     7     8   ar
    24     8     9   ar
    25     9    10   ar
    26    28    24    1
    27    10     1    1
    28    10     5   ar
    29    20    16   ar
    30    11    12    1
    31    14    15    1
@<TRIPOS>MOLECULE
*****
 28 31 0 0 0
SMALL
GASTEIGER

@<TRIPOS>ATOM
      1 N         -14.9225   -7.2291   18.9505 N.pl3   1  UNL1       -0.3077
      2 C         -14.4613   -8.2941   18.0002 C.3     1  UNL1        0.0911
      3 C         -13.2050   -8.0965   17.2048 C.3     1  UNL1        0.0261
      4 C         -12.4099   -6.8340   17.3598 C.3     1  UNL1        0.0295
      5 C         -12.8711   -5.7691   18.3101 C.ar    1  UNL1       -0.0054
      6 C         -12.0760   -4.5066   18.4650 C.ar    1  UNL1        0.0371
      7 C         -12.5372   -3.4417   19.4154 C.ar    1  UNL1        0.1354
      8 C         -13.7936   -3.6392   20.2108 C.ar    1  UNL1        0.0414
      9 C         -14.5887   -4.9017   20.0559 C.ar    1  UNL1        0.0177
     10 C         -14.1274   -5.9667   19.1055 C.ar    1  UNL1        0.0440
     11 N         -11.7422   -2.1792   19.5703 N.pl3   1  UNL1       -0.1990
     12 H         -11.3701   -1.9365   20.4489 H       1  UNL1        0.2985
     13 C         -11.5140   -1.2866   18.3867 C.2     1  UNL1        0.3224
     14 N         -10.3009   -1.4785   17.5255 N.2     1  UNL1       -0.0985
     15 H          -9.6546   -2.1903   17.7371 H       1  UNL1        0.3633
     16 C         -12.4988   -0.2021   18.0642 C.ar    1  UNL1        0.1114
     17 C         -12.1970    1.0758   17.3389 C.ar    1  UNL1        0.0144
     18 C         -13.4700    1.8626   17.2369 C.ar    1  UNL1        0.0077
     19 C         -14.5585    1.0711   17.8992 C.ar    1  UNL1        0.0357
     20 S         -13.9582   -0.2049   18.4105 S.2     1  UNL1       -0.0792
     21 C         -16.1788   -7.4267   19.7460 C.3     1  UNL1        0.0921
     22 C         -16.6828   -8.8126   20.0202 C.3     1  UNL1        0.0374
     23 C         -19.7816   -8.1621   20.8095 C.3     1  UNL1        0.0896
     24 N         -19.3243   -9.0238   19.6701 N.3     1  UNL1       -0.2727
     25 C         -20.2110   -9.7378   18.6935 C.3     1  UNL1        0.0721
     26 C         -19.3346  -10.4782   17.7270 C.3     1  UNL1        0.0187
     27 C         -17.9063  -10.2217   18.1064 C.3     1  UNL1        0.0174
     28 C         -17.8999   -9.3228   19.3073 C.3     1  UNL1        0.0593
@<TRIPOS>BOND
     1    23    24    1
     2    24    25    1
     3    25    26    1
     4    26    27    1
     5    27    28    1
     6    28    22    1
     7    22    21    1
     8    21     1    1
     9     1     2    1
    10     2     3    1
    11     3     4    1
    12     4     5    1
    13     5     6   ar
    14     6     7   ar
    15     7    11    1
    16    11    13    1
    17    13    14    2
    18    13    16    1
    19    16    17   ar
    20    17    18   ar
    21    18    19   ar
    22    19    20   ar
    23     7     8   ar
    24     8     9   ar
    25     9    10   ar
    26    28    24    1
    27    10     1    1
    28    10     5   ar
    29    20    16   ar
    30    11    12    1
    31    14    15    1
