@<TRIPOS>MOLECULE
*****
 35 38 0 0 0
SMALL
GASTEIGER

@<TRIPOS>ATOM
      1 C           2.6477    1.2505   18.9615 C.ar    1  UNL1        0.0293
      2 C           1.1954    1.5171   19.2257 C.ar    1  UNL1        0.0145
      3 C           0.6737    2.9231   19.1971 C.ar    1  UNL1        0.0505
      4 C           1.6042    4.0626   18.9044 C.ar    1  UNL1        0.0170
      5 C           3.0565    3.7960   18.6402 C.ar    1  UNL1        0.0306
      6 C           3.5782    2.3900   18.6688 C.ar    1  UNL1        0.1380
      7 F           5.0306    2.1234   18.4046 F       1  UNL1       -0.2044
      8 C           3.2130    0.1085   17.5141 C.3     1  UNL1        0.0321
      9 C           3.1695   -0.1556   18.9901 C.3     1  UNL1        0.1432
     10 N           2.9448    0.0687   20.4560 N.2     1  UNL1       -0.2214
     11 C           3.2570   -1.0214   21.4380 C.2     1  UNL1        0.2769
     12 N           3.0323   -0.7971   22.9041 N.pl3   1  UNL1       -0.3133
     13 O           3.7939   -2.3357   20.9539 O.2     1  UNL1       -0.4482
     14 C           4.0186   -2.5600   19.4879 C.3     1  UNL1        0.2327
     15 C           3.7064   -1.4699   18.5060 C.3     1  UNL1        0.2275
     16 F           3.9311   -1.6941   17.0399 F       1  UNL1       -0.2309
     17 H           2.6799    0.0655   23.2218 H       1  UNL1        0.1466
     18 H           3.2372   -1.5126   23.5486 H       1  UNL1        0.1466
     19 C           4.5555   -3.8743   19.0039 C.3     1  UNL1        0.1732
     20 F           5.8648   -3.4242   18.4268 F       1  UNL1       -0.2362
     21 C           4.6377   -5.3449   18.7202 C.3     1  UNL1        0.0392
     22 C           3.4326   -4.7809   19.4128 C.3     1  UNL1        0.0392
     23 N          -0.7786    3.1897   19.4613 N.am    1  UNL1       -0.2791
     24 C          -1.3025    3.1629   20.8666 C.2     1  UNL1        0.2688
     25 O          -0.3741    2.8695   22.0077 O.2     1  UNL1       -0.2681
     26 H          -1.3880    3.3822   18.7124 H       1  UNL1        0.1552
     27 C          -2.7548    3.4295   21.1308 C.ar    1  UNL1        0.1541
     28 C          -3.7257    3.4922   19.9891 C.ar    1  UNL1        0.1258
     29 N          -5.1780    3.7588   20.2534 N.ar    1  UNL1       -0.2070
     30 C          -5.6594    3.9627   21.6593 C.ar    1  UNL1        0.2469
     31 C          -4.6885    3.9000   22.8010 C.ar    1  UNL1        0.1566
     32 N          -3.2362    3.6334   22.5368 N.ar    1  UNL1       -0.2328
     33 O          -7.1116    4.2292   21.9235 O.3     1  UNL1       -0.4265
     34 C          -7.5758    4.5409   23.3154 C.3     1  UNL1        0.4044
     35 F          -8.8068    3.8797   23.8612 F       1  UNL1       -0.1809
@<TRIPOS>BOND
     1     9     8    1
     2     9     1    1
     3     1     2   ar
     4     2     3   ar
     5     3    23    1
     6    23    24   am
     7    24    25    2
     8    24    27    1
     9    27    28   ar
    10    28    29   ar
    11    29    30   ar
    12    30    33    1
    13    33    34    1
    14    34    35    1
    15    30    31   ar
    16    31    32   ar
    17     3     4   ar
    18     4     5   ar
    19     5     6   ar
    20     6     7    1
    21     9    10    1
    22    10    11    2
    23    11    12    1
    24    11    13    1
    25    13    14    1
    26    14    19    1
    27    19    20    1
    28    19    21    1
    29    21    22    1
    30    14    15    1
    31    15    16    1
    32    15     9    1
    33     6     1   ar
    34    22    19    1
    35    32    27   ar
    36    23    26    1
    37    12    17    1
    38    12    18    1
@<TRIPOS>MOLECULE
*****
 35 38 0 0 0
SMALL
GASTEIGER

@<TRIPOS>ATOM
      1 C           2.9904   -0.6988   20.1358 C.ar    1  UNL1        0.0293
      2 C           1.7071   -0.2098   20.7390 C.ar    1  UNL1        0.0145
      3 C           0.8043    0.6928   19.9515 C.ar    1  UNL1        0.0505
      4 C           1.1849    1.1065   18.5608 C.ar    1  UNL1        0.0170
      5 C           2.4683    0.6176   17.9576 C.ar    1  UNL1        0.0306
      6 C           3.3710   -0.2851   18.7451 C.ar    1  UNL1        0.1380
      7 F           4.6544   -0.7741   18.1419 F       1  UNL1       -0.2044
      8 C           4.0335   -0.3362   21.7167 C.3     1  UNL1        0.0321
      9 C           3.8933   -1.6015   20.9233 C.3     1  UNL1        0.1432
     10 N           3.4395   -2.5532   19.8564 N.2     1  UNL1       -0.2214
     11 C           3.9373   -3.9682   19.8525 C.2     1  UNL1        0.2769
     12 N           3.4835   -4.9199   18.7856 N.pl3   1  UNL1       -0.3133
     13 O           4.8888   -4.4314   20.9156 O.2     1  UNL1       -0.4482
     14 C           5.3426   -3.4797   21.9824 C.3     1  UNL1        0.2327
     15 C           4.8448   -2.0647   21.9863 C.3     1  UNL1        0.2275
     16 F           5.2985   -1.1129   23.0532 F       1  UNL1       -0.2309
     17 H           2.8590   -4.6159   18.0879 H       1  UNL1        0.1466
     18 H           3.8102   -5.8487   18.7830 H       1  UNL1        0.1466
     19 C           6.2941   -3.9430   23.0455 C.3     1  UNL1        0.1732
     20 F           5.4402   -3.7464   24.2629 F       1  UNL1       -0.2362
     21 C           7.5421   -4.4745   23.6857 C.3     1  UNL1        0.0392
     22 C           7.4784   -4.3004   22.1972 C.3     1  UNL1        0.0392
     23 N          -0.4791    1.1818   20.5547 N.am    1  UNL1       -0.2791
     24 C          -0.6137    2.6169   20.9700 C.2     1  UNL1        0.2688
     25 O           0.5352    3.5630   20.7822 O.2     1  UNL1       -0.2681
     26 H          -1.2331    0.5609   20.6780 H       1  UNL1        0.1552
     27 C          -1.8970    3.1059   21.5732 C.ar    1  UNL1        0.1541
     28 C          -1.8763    3.8661   22.8661 C.ar    1  UNL1        0.1258
     29 N          -3.1597    4.3552   23.4693 N.ar    1  UNL1       -0.2070
     30 C          -4.4638    4.0840   22.7795 C.ar    1  UNL1        0.2469
     31 C          -4.4845    3.3238   21.4866 C.ar    1  UNL1        0.1566
     32 N          -3.2012    2.8348   20.8834 N.ar    1  UNL1       -0.2328
     33 O          -5.7471    4.5730   23.3827 O.3     1  UNL1       -0.4265
     34 C          -7.0481    4.3306   22.6764 C.3     1  UNL1        0.4044
     35 F          -8.2703    3.9589   23.4626 F       1  UNL1       -0.1809
@<TRIPOS>BOND
     1     9     8    1
     2     9     1    1
     3     1     2   ar
     4     2     3   ar
     5     3    23    1
     6    23    24   am
     7    24    25    2
     8    24    27    1
     9    27    28   ar
    10    28    29   ar
    11    29    30   ar
    12    30    33    1
    13    33    34    1
    14    34    35    1
    15    30    31   ar
    16    31    32   ar
    17     3     4   ar
    18     4     5   ar
    19     5     6   ar
    20     6     7    1
    21     9    10    1
    22    10    11    2
    23    11    12    1
    24    11    13    1
    25    13    14    1
    26    14    19    1
    27    19    20    1
    28    19    21    1
    29    21    22    1
    30    14    15    1
    31    15    16    1
    32    15     9    1
    33     6     1   ar
    34    22    19    1
    35    32    27   ar
    36    23    26    1
    37    12    17    1
    38    12    18    1
@<TRIPOS>MOLECULE
*****
 35 38 0 0 0
SMALL
GASTEIGER

@<TRIPOS>ATOM
      1 C          -9.7467  -19.2812   20.7793 C.ar    1  UNL1        0.0293
      2 C          -8.3553  -18.7261   20.8552 C.ar    1  UNL1        0.0145
      3 C          -7.3834  -18.9835   19.7420 C.ar    1  UNL1        0.0505
      4 C          -7.8030  -19.7960   18.5530 C.ar    1  UNL1        0.0170
      5 C          -9.1944  -20.3510   18.4771 C.ar    1  UNL1        0.0306
      6 C         -10.1663  -20.0936   19.5903 C.ar    1  UNL1        0.1380
      7 F         -11.5578  -20.6487   19.5144 F       1  UNL1       -0.2044
      8 C          -9.9210  -20.1415   22.4964 C.3     1  UNL1        0.0321
      9 C         -10.7187  -19.0238   21.8925 C.3     1  UNL1        0.1432
     10 N         -11.1788  -17.9956   20.9021 N.2     1  UNL1       -0.2214
     11 C         -12.3338  -17.0981   21.2346 C.2     1  UNL1        0.2769
     12 N         -12.7939  -16.0698   20.2441 N.pl3   1  UNL1       -0.3133
     13 O         -13.0286  -17.2289   22.5575 O.2     1  UNL1       -0.4482
     14 C         -12.5685  -18.2571   23.5479 C.3     1  UNL1        0.2327
     15 C         -11.4135  -19.1546   23.2155 C.3     1  UNL1        0.2275
     16 F         -10.9533  -20.1829   24.2058 F       1  UNL1       -0.2309
     17 H         -12.3378  -15.9840   19.3758 H       1  UNL1        0.1466
     18 H         -13.5519  -15.4808   20.4622 H       1  UNL1        0.1466
     19 C         -13.2634  -18.3879   24.8708 C.3     1  UNL1        0.1732
     20 F         -12.0755  -18.5205   25.7770 F       1  UNL1       -0.2362
     21 C         -14.3708  -18.4727   25.8790 C.3     1  UNL1        0.0392
     22 C         -14.6926  -18.3007   24.4241 C.3     1  UNL1        0.0392
     23 N          -5.9919  -18.4284   19.8179 N.am    1  UNL1       -0.2791
     24 C          -4.8263  -19.3511   20.0180 C.2     1  UNL1        0.2688
     25 O          -5.0522  -20.8288   20.1422 O.2     1  UNL1       -0.2681
     26 H          -5.8437  -17.4586   19.7363 H       1  UNL1        0.1552
     27 C          -3.4349  -18.7961   20.0938 C.ar    1  UNL1        0.1541
     28 C          -2.4174  -19.4421   20.9868 C.ar    1  UNL1        0.1258
     29 N          -1.0258  -18.8871   21.0626 N.ar    1  UNL1       -0.2070
     30 C          -0.6519  -17.6860   20.2455 C.ar    1  UNL1        0.2469
     31 C          -1.6694  -17.0400   19.3526 C.ar    1  UNL1        0.1566
     32 N          -3.0609  -17.5950   19.2767 N.ar    1  UNL1       -0.2328
     33 O           0.7395  -17.1310   20.3214 O.3     1  UNL1       -0.4265
     34 C           1.8495  -17.9644   20.8901 C.3     1  UNL1        0.4044
     35 F           3.1563  -17.3248   21.2552 F       1  UNL1       -0.1809
@<TRIPOS>BOND
     1     9     8    1
     2     9     1    1
     3     1     2   ar
     4     2     3   ar
     5     3    23    1
     6    23    24   am
     7    24    25    2
     8    24    27    1
     9    27    28   ar
    10    28    29   ar
    11    29    30   ar
    12    30    33    1
    13    33    34    1
    14    34    35    1
    15    30    31   ar
    16    31    32   ar
    17     3     4   ar
    18     4     5   ar
    19     5     6   ar
    20     6     7    1
    21     9    10    1
    22    10    11    2
    23    11    12    1
    24    11    13    1
    25    13    14    1
    26    14    19    1
    27    19    20    1
    28    19    21    1
    29    21    22    1
    30    14    15    1
    31    15    16    1
    32    15     9    1
    33     6     1   ar
    34    22    19    1
    35    32    27   ar
    36    23    26    1
    37    12    17    1
    38    12    18    1
@<TRIPOS>MOLECULE
*****
 35 38 0 0 0
SMALL
GASTEIGER

@<TRIPOS>ATOM
      1 C           3.3519   -0.9850   20.1412 C.ar    1  UNL1        0.0293
      2 C           2.0815   -0.4340   20.7179 C.ar    1  UNL1        0.0145
      3 C           1.1527    0.3685   19.8557 C.ar    1  UNL1        0.0505
      4 C           1.4942    0.6198   18.4169 C.ar    1  UNL1        0.0170
      5 C           2.7645    0.0687   17.8402 C.ar    1  UNL1        0.0306
      6 C           3.6933   -0.7337   18.7024 C.ar    1  UNL1        0.1380
      7 F           4.9637   -1.2848   18.1257 F       1  UNL1       -0.2044
      8 C           3.4782   -2.8938   20.3851 C.3     1  UNL1        0.0321
      9 C           4.2808   -1.7875   21.0034 C.3     1  UNL1        0.1432
     10 N           4.7607   -0.4026   21.3222 N.2     1  UNL1       -0.2214
     11 C           5.8907   -0.2043   22.2884 C.2     1  UNL1        0.2769
     12 N           6.3706    1.1807   22.6072 N.pl3   1  UNL1       -0.3133
     13 O           6.5409   -1.3910   22.9358 O.2     1  UNL1       -0.4482
     14 C           6.0610   -2.7759   22.6170 C.3     1  UNL1        0.2327
     15 C           4.9309   -2.9742   21.6508 C.3     1  UNL1        0.2275
     16 F           4.4509   -4.3591   21.3319 F       1  UNL1       -0.2309
     17 H           5.9439    1.9595   22.1823 H       1  UNL1        0.1466
     18 H           7.1123    1.3108   23.2414 H       1  UNL1        0.1466
     19 C           6.7111   -3.9626   23.2644 C.3     1  UNL1        0.1732
     20 F           5.8864   -4.0622   24.5134 F       1  UNL1       -0.2362
     21 C           7.6477   -5.1146   23.4781 C.3     1  UNL1        0.0392
     22 C           7.7616   -4.2750   22.2403 C.3     1  UNL1        0.0392
     23 N          -0.1177    0.9196   20.4324 N.am    1  UNL1       -0.2791
     24 C          -0.1997    2.3664   20.8199 C.2     1  UNL1        0.2688
     25 O           0.9887    3.2620   20.6308 O.2     1  UNL1       -0.2681
     26 H          -0.8976    0.3318   20.5565 H       1  UNL1        0.1552
     27 C          -1.4699    2.9175   21.3965 C.ar    1  UNL1        0.1541
     28 C          -1.4623    3.5564   22.7537 C.ar    1  UNL1        0.1258
     29 N          -2.7327    4.1075   23.3303 N.ar    1  UNL1       -0.2070
     30 C          -4.0106    4.0198   22.5498 C.ar    1  UNL1        0.2469
     31 C          -4.0182    3.3809   21.1927 C.ar    1  UNL1        0.1566
     32 N          -2.7479    2.8298   20.6160 N.ar    1  UNL1       -0.2328
     33 O          -5.2809    4.5709   23.1264 O.3     1  UNL1       -0.4265
     34 C          -5.3213    5.0233   24.5560 C.3     1  UNL1        0.4044
     35 F          -5.5879    4.0314   25.6493 F       1  UNL1       -0.1809
@<TRIPOS>BOND
     1     9     8    1
     2     9     1    1
     3     1     2   ar
     4     2     3   ar
     5     3    23    1
     6    23    24   am
     7    24    25    2
     8    24    27    1
     9    27    28   ar
    10    28    29   ar
    11    29    30   ar
    12    30    33    1
    13    33    34    1
    14    34    35    1
    15    30    31   ar
    16    31    32   ar
    17     3     4   ar
    18     4     5   ar
    19     5     6   ar
    20     6     7    1
    21     9    10    1
    22    10    11    2
    23    11    12    1
    24    11    13    1
    25    13    14    1
    26    14    19    1
    27    19    20    1
    28    19    21    1
    29    21    22    1
    30    14    15    1
    31    15    16    1
    32    15     9    1
    33     6     1   ar
    34    22    19    1
    35    32    27   ar
    36    23    26    1
    37    12    17    1
    38    12    18    1
@<TRIPOS>MOLECULE
*****
 35 38 0 0 0
SMALL
GASTEIGER

@<TRIPOS>ATOM
      1 C           3.1072    0.5898   22.1638 C.ar    1  UNL1        0.0293
      2 C           1.6464    0.9284   22.2001 C.ar    1  UNL1        0.0145
      3 C           1.1710    2.1158   22.9838 C.ar    1  UNL1        0.0505
      4 C           2.1564    2.9645   23.7311 C.ar    1  UNL1        0.0170
      5 C           3.6172    2.6259   23.6948 C.ar    1  UNL1        0.0306
      6 C           4.0926    1.4386   22.9112 C.ar    1  UNL1        0.1380
      7 F           5.5535    1.0999   22.8748 F       1  UNL1       -0.2044
      8 C           3.3299   -1.2466   22.7088 C.3     1  UNL1        0.0321
      9 C           3.5826   -0.5976   21.3802 C.3     1  UNL1        0.1432
     10 N           3.6702    0.4636   20.3238 N.2     1  UNL1       -0.2214
     11 C           4.1455    0.1122   18.9452 C.2     1  UNL1        0.2769
     12 N           4.2331    1.1735   17.8888 N.pl3   1  UNL1       -0.3133
     13 O           4.5331   -1.3007   18.6230 O.2     1  UNL1       -0.4482
     14 C           4.4455   -2.3619   19.6794 C.3     1  UNL1        0.2327
     15 C           3.9702   -2.0105   21.0580 C.3     1  UNL1        0.2275
     16 F           3.8826   -3.0717   22.1144 F       1  UNL1       -0.2309
     17 H           3.9787    2.1007   18.1003 H       1  UNL1        0.1466
     18 H           4.5450    0.9428   16.9839 H       1  UNL1        0.1466
     19 C           4.8332   -3.7747   19.3572 C.3     1  UNL1        0.1732
     20 F           6.3085   -3.7061   19.6188 F       1  UNL1       -0.2362
     21 C           4.7084   -5.2113   18.9441 C.3     1  UNL1        0.0392
     22 C           3.4924   -4.3339   18.9837 C.3     1  UNL1        0.0392
     23 N          -0.2899    2.4544   23.0201 N.am    1  UNL1       -0.2791
     24 C          -0.9338    3.1249   21.8429 C.2     1  UNL1        0.2688
     25 O          -0.1169    3.4567   20.6294 O.2     1  UNL1       -0.2681
     26 H          -0.8260    2.2366   23.8166 H       1  UNL1        0.1552
     27 C          -2.3946    3.4636   21.8792 C.ar    1  UNL1        0.1541
     28 C          -2.9395    4.3166   22.9862 C.ar    1  UNL1        0.1258
     29 N          -4.4004    4.6552   23.0224 N.ar    1  UNL1       -0.2070
     30 C          -5.3163    4.1409   21.9517 C.ar    1  UNL1        0.2469
     31 C          -4.7714    3.2879   20.8447 C.ar    1  UNL1        0.1566
     32 N          -3.3106    2.9492   20.8084 N.ar    1  UNL1       -0.2328
     33 O          -6.7770    4.4795   21.9880 O.3     1  UNL1       -0.4265
     34 C          -7.5494    4.3331   23.2655 C.3     1  UNL1        0.4044
     35 F          -7.2848    5.2627   24.4126 F       1  UNL1       -0.1809
@<TRIPOS>BOND
     1     9     8    1
     2     9     1    1
     3     1     2   ar
     4     2     3   ar
     5     3    23    1
     6    23    24   am
     7    24    25    2
     8    24    27    1
     9    27    28   ar
    10    28    29   ar
    11    29    30   ar
    12    30    33    1
    13    33    34    1
    14    34    35    1
    15    30    31   ar
    16    31    32   ar
    17     3     4   ar
    18     4     5   ar
    19     5     6   ar
    20     6     7    1
    21     9    10    1
    22    10    11    2
    23    11    12    1
    24    11    13    1
    25    13    14    1
    26    14    19    1
    27    19    20    1
    28    19    21    1
    29    21    22    1
    30    14    15    1
    31    15    16    1
    32    15     9    1
    33     6     1   ar
    34    22    19    1
    35    32    27   ar
    36    23    26    1
    37    12    17    1
    38    12    18    1
@<TRIPOS>MOLECULE
*****
 35 38 0 0 0
SMALL
GASTEIGER

@<TRIPOS>ATOM
      1 C           1.9038    4.4968   35.9363 C.ar    1  UNL1        0.0293
      2 C           2.0591    3.4445   34.8787 C.ar    1  UNL1        0.0145
      3 C           1.3157    3.5692   33.5818 C.ar    1  UNL1        0.0505
      4 C           0.4171    4.7462   33.3426 C.ar    1  UNL1        0.0170
      5 C           0.2619    5.7985   34.4002 C.ar    1  UNL1        0.0306
      6 C           1.0052    5.6738   35.6971 C.ar    1  UNL1        0.1380
      7 F           0.8500    6.7261   36.7548 F       1  UNL1       -0.2044
      8 C           3.5362    5.3443   36.5158 C.3     1  UNL1        0.0321
      9 C           2.6472    4.3721   37.2332 C.3     1  UNL1        0.1432
     10 N           1.5001    3.4432   37.5002 N.2     1  UNL1       -0.2214
     11 C           1.4051    2.7273   38.8148 C.2     1  UNL1        0.2769
     12 N           0.2579    1.7984   39.0818 N.pl3   1  UNL1       -0.3133
     13 O           2.4572    2.9403   39.8626 O.2     1  UNL1       -0.4482
     14 C           3.6043    3.8692   39.5956 C.3     1  UNL1        0.2327
     15 C           3.6994    4.5851   38.2809 C.3     1  UNL1        0.2275
     16 F           4.8464    5.5140   38.0139 F       1  UNL1       -0.2309
     17 H          -0.4326    1.6586   38.3941 H       1  UNL1        0.1466
     18 H           0.1955    1.3285   39.9447 H       1  UNL1        0.1466
     19 C           4.6565    4.0821   40.6434 C.3     1  UNL1        0.1732
     20 F           5.6432    3.0270   40.2398 F       1  UNL1       -0.2362
     21 C           5.3658    4.6615   41.8312 C.3     1  UNL1        0.0392
     22 C           4.0350    5.2112   41.4108 C.3     1  UNL1        0.0392
     23 N           1.4709    2.5169   32.5241 N.am    1  UNL1       -0.2791
     24 C           2.6770    2.5221   31.6323 C.2     1  UNL1        0.2688
     25 O           3.7279    3.5796   31.7982 O.2     1  UNL1       -0.2681
     26 H           0.7812    1.8229   32.4153 H       1  UNL1        0.1552
     27 C           2.8322    1.4699   30.5747 C.ar    1  UNL1        0.1541
     28 C           4.0619    1.4453   29.7159 C.ar    1  UNL1        0.1258
     29 N           4.2171    0.3930   28.6582 N.ar    1  UNL1       -0.2070
     30 C           3.1427   -0.6346   28.4593 C.ar    1  UNL1        0.2469
     31 C           1.9131   -0.6100   29.3181 C.ar    1  UNL1        0.1566
     32 N           1.7578    0.4422   30.3757 N.ar    1  UNL1       -0.2328
     33 O           3.2979   -1.6868   27.4017 O.3     1  UNL1       -0.4265
     34 C           3.9208   -1.3380   26.0824 C.3     1  UNL1        0.4044
     35 F           3.0713   -0.7926   24.9728 F       1  UNL1       -0.1809
@<TRIPOS>BOND
     1     9     8    1
     2     9     1    1
     3     1     2   ar
     4     2     3   ar
     5     3    23    1
     6    23    24   am
     7    24    25    2
     8    24    27    1
     9    27    28   ar
    10    28    29   ar
    11    29    30   ar
    12    30    33    1
    13    33    34    1
    14    34    35    1
    15    30    31   ar
    16    31    32   ar
    17     3     4   ar
    18     4     5   ar
    19     5     6   ar
    20     6     7    1
    21     9    10    1
    22    10    11    2
    23    11    12    1
    24    11    13    1
    25    13    14    1
    26    14    19    1
    27    19    20    1
    28    19    21    1
    29    21    22    1
    30    14    15    1
    31    15    16    1
    32    15     9    1
    33     6     1   ar
    34    22    19    1
    35    32    27   ar
    36    23    26    1
    37    12    17    1
    38    12    18    1
@<TRIPOS>MOLECULE
*****
 35 38 0 0 0
SMALL
GASTEIGER

@<TRIPOS>ATOM
      1 C           4.9176   -0.1979   19.8441 C.ar    1  UNL1        0.0293
      2 C           3.7892    0.4424   20.5969 C.ar    1  UNL1        0.0145
      3 C           3.0717    1.6225   20.0119 C.ar    1  UNL1        0.0505
      4 C           3.4825    2.1624   18.6740 C.ar    1  UNL1        0.0170
      5 C           4.6109    1.5221   17.9212 C.ar    1  UNL1        0.0306
      6 C           5.3285    0.3420   18.5063 C.ar    1  UNL1        0.1380
      7 F           6.4569   -0.2984   17.7535 F       1  UNL1       -0.2044
      8 C           6.4274   -0.2615   21.0422 C.3     1  UNL1        0.0321
      9 C           5.6352   -1.3781   20.4291 C.3     1  UNL1        0.1432
     10 N           4.5940   -2.0848   19.6129 N.2     1  UNL1       -0.2214
     11 C           4.5453   -3.5839   19.5946 C.2     1  UNL1        0.2769
     12 N           3.5039   -4.2906   18.7784 N.pl3   1  UNL1       -0.3133
     13 O           5.5381   -4.3763   20.3926 O.2     1  UNL1       -0.4482
     14 C           6.5794   -3.6696   21.2087 C.3     1  UNL1        0.2327
     15 C           6.6280   -2.1705   21.2270 C.3     1  UNL1        0.2275
     16 F           7.6693   -1.4637   22.0432 F       1  UNL1       -0.2309
     17 H           2.8524   -3.7705   18.2547 H       1  UNL1        0.1466
     18 H           3.4720   -5.2745   18.7664 H       1  UNL1        0.1466
     19 C           7.5721   -4.4620   22.0067 C.3     1  UNL1        0.1732
     20 F           8.5574   -4.8056   20.9292 F       1  UNL1       -0.2362
     21 C           8.2226   -5.1350   23.1788 C.3     1  UNL1        0.0392
     22 C           6.9315   -4.3935   23.3613 C.3     1  UNL1        0.0392
     23 N           1.9432    2.2629   20.7647 N.am    1  UNL1       -0.2791
     24 C           0.5297    1.8329   20.5059 C.2     1  UNL1        0.2688
     25 O           0.2446    0.7626   19.4943 O.2     1  UNL1       -0.2681
     26 H           2.1304    2.9653   21.4286 H       1  UNL1        0.1552
     27 C          -0.5987    2.4732   21.2586 C.ar    1  UNL1        0.1541
     28 C          -0.4230    2.8438   22.7014 C.ar    1  UNL1        0.1258
     29 N          -1.5515    3.4841   23.4542 N.ar    1  UNL1       -0.2070
     30 C          -2.8557    3.7538   22.7641 C.ar    1  UNL1        0.2469
     31 C          -3.0315    3.3832   21.3212 C.ar    1  UNL1        0.1566
     32 N          -1.9030    2.7429   20.5685 N.ar    1  UNL1       -0.2328
     33 O          -3.9841    4.3941   23.5168 O.3     1  UNL1       -0.4265
     34 C          -4.2681    3.9866   24.9322 C.3     1  UNL1        0.4044
     35 F          -5.6818    3.7530   25.3761 F       1  UNL1       -0.1809
@<TRIPOS>BOND
     1     9     8    1
     2     9     1    1
     3     1     2   ar
     4     2     3   ar
     5     3    23    1
     6    23    24   am
     7    24    25    2
     8    24    27    1
     9    27    28   ar
    10    28    29   ar
    11    29    30   ar
    12    30    33    1
    13    33    34    1
    14    34    35    1
    15    30    31   ar
    16    31    32   ar
    17     3     4   ar
    18     4     5   ar
    19     5     6   ar
    20     6     7    1
    21     9    10    1
    22    10    11    2
    23    11    12    1
    24    11    13    1
    25    13    14    1
    26    14    19    1
    27    19    20    1
    28    19    21    1
    29    21    22    1
    30    14    15    1
    31    15    16    1
    32    15     9    1
    33     6     1   ar
    34    22    19    1
    35    32    27   ar
    36    23    26    1
    37    12    17    1
    38    12    18    1
@<TRIPOS>MOLECULE
*****
 35 38 0 0 0
SMALL
GASTEIGER

@<TRIPOS>ATOM
      1 C          -0.7754    4.6384   21.8287 C.ar    1  UNL1        0.0293
      2 C           0.0647    3.4166   21.6021 C.ar    1  UNL1        0.0145
      3 C           1.1205    3.4195   20.5366 C.ar    1  UNL1        0.0505
      4 C           1.3360    4.6441   19.6977 C.ar    1  UNL1        0.0170
      5 C           0.4958    5.8658   19.9242 C.ar    1  UNL1        0.0306
      6 C          -0.5599    5.8630   20.9897 C.ar    1  UNL1        0.1380
      7 F          -1.4001    7.0848   21.2164 F       1  UNL1       -0.2044
      8 C          -0.7456    5.3878   23.6053 C.3     1  UNL1        0.0321
      9 C          -1.8312    4.6356   22.8943 C.3     1  UNL1        0.1432
     10 N          -2.5502    3.8843   21.8133 N.2     1  UNL1       -0.2214
     11 C          -3.9479    3.3915   22.0447 C.2     1  UNL1        0.2769
     12 N          -4.6669    2.6402   20.9636 N.pl3   1  UNL1       -0.3133
     13 O          -4.6266    3.6500   23.3572 O.2     1  UNL1       -0.4482
     14 C          -3.9076    4.4012   24.4382 C.3     1  UNL1        0.2327
     15 C          -2.5099    4.8940   24.2068 C.3     1  UNL1        0.2275
     16 F          -1.7909    5.6453   25.2878 F       1  UNL1       -0.2309
     17 H          -4.2214    2.4706   20.1022 H       1  UNL1        0.1466
     18 H          -5.5843    2.3168   21.1155 H       1  UNL1        0.1466
     19 C          -4.5863    4.6597   25.7507 C.3     1  UNL1        0.1732
     20 F          -4.0406    3.5175   26.5554 F       1  UNL1       -0.2362
     21 C          -5.4545    5.3148   26.7837 C.3     1  UNL1        0.0392
     22 C          -5.3677    5.8916   25.4017 C.3     1  UNL1        0.0392
     23 N           1.9607    2.1977   20.3100 N.am    1  UNL1       -0.2791
     24 C           1.5900    1.2217   19.2330 C.2     1  UNL1        0.2688
     25 O           0.3790    1.4675   18.3825 O.2     1  UNL1       -0.2681
     26 H           2.7555    2.0364   20.8682 H       1  UNL1        0.1552
     27 C           2.4301   -0.0000   19.0063 C.ar    1  UNL1        0.1541
     28 C           2.3803   -1.1365   19.9841 C.ar    1  UNL1        0.1258
     29 N           3.2206   -2.3583   19.7574 N.ar    1  UNL1       -0.2070
     30 C           4.1105   -2.4436   18.5530 C.ar    1  UNL1        0.2469
     31 C           4.1603   -1.3071   17.5752 C.ar    1  UNL1        0.1566
     32 N           3.3202   -0.0854   17.8019 N.ar    1  UNL1       -0.2328
     33 O           4.9507   -3.6653   18.3264 O.3     1  UNL1       -0.4265
     34 C           4.5462   -4.9767   18.9320 C.3     1  UNL1        0.4044
     35 F           5.1340   -6.2555   18.4131 F       1  UNL1       -0.1809
@<TRIPOS>BOND
     1     9     8    1
     2     9     1    1
     3     1     2   ar
     4     2     3   ar
     5     3    23    1
     6    23    24   am
     7    24    25    2
     8    24    27    1
     9    27    28   ar
    10    28    29   ar
    11    29    30   ar
    12    30    33    1
    13    33    34    1
    14    34    35    1
    15    30    31   ar
    16    31    32   ar
    17     3     4   ar
    18     4     5   ar
    19     5     6   ar
    20     6     7    1
    21     9    10    1
    22    10    11    2
    23    11    12    1
    24    11    13    1
    25    13    14    1
    26    14    19    1
    27    19    20    1
    28    19    21    1
    29    21    22    1
    30    14    15    1
    31    15    16    1
    32    15     9    1
    33     6     1   ar
    34    22    19    1
    35    32    27   ar
    36    23    26    1
    37    12    17    1
    38    12    18    1
@<TRIPOS>MOLECULE
*****
 35 38 0 0 0
SMALL
GASTEIGER

@<TRIPOS>ATOM
      1 C           0.1209    2.5207   26.4157 C.ar    1  UNL1        0.0293
      2 C           0.7775    1.5426   25.4871 C.ar    1  UNL1        0.0145
      3 C           0.5235    1.6234   24.0110 C.ar    1  UNL1        0.0505
      4 C          -0.3871    2.6822   23.4635 C.ar    1  UNL1        0.0170
      5 C          -1.0436    3.6602   24.3920 C.ar    1  UNL1        0.0306
      6 C          -0.7896    3.5795   25.8681 C.ar    1  UNL1        0.1380
      7 F          -1.4462    4.5576   26.7967 F       1  UNL1       -0.2044
      8 C           1.1868    3.6552   27.5539 C.3     1  UNL1        0.0321
      9 C           0.3749    2.4400   27.8919 C.3     1  UNL1        0.1432
     10 N          -0.5252    1.2529   27.7172 N.2     1  UNL1       -0.2214
     11 C          -0.8893    0.4071   28.9012 C.2     1  UNL1        0.2769
     12 N          -1.7894   -0.7801   28.7265 N.pl3   1  UNL1       -0.3133
     13 O          -0.3534    0.7485   30.2600 O.2     1  UNL1       -0.4482
     14 C           0.5467    1.9356   30.4347 C.3     1  UNL1        0.2327
     15 C           0.9109    2.7814   29.2507 C.3     1  UNL1        0.2275
     16 F           1.8109    3.9686   29.4253 F       1  UNL1       -0.2309
     17 H          -2.1412   -1.0041   27.8347 H       1  UNL1        0.1466
     18 H          -2.0285   -1.3352   29.5036 H       1  UNL1        0.1466
     19 C           1.0827    2.2770   31.7935 C.3     1  UNL1        0.1732
     20 F           0.1285    3.3666   32.1836 F       1  UNL1       -0.2362
     21 C           1.9500    2.2399   33.0167 C.3     1  UNL1        0.0392
     22 C           2.2229    1.3059   31.8752 C.3     1  UNL1        0.0392
     23 N           1.1801    0.6453   23.0824 N.am    1  UNL1       -0.2791
     24 C           2.5797    0.8908   22.6019 C.2     1  UNL1        0.2688
     25 O           3.3227    2.1145   23.0500 O.2     1  UNL1       -0.2681
     26 H           0.6925   -0.1578   22.7883 H       1  UNL1        0.1552
     27 C           3.2363   -0.0872   21.6733 C.ar    1  UNL1        0.1541
     28 C           3.5184   -1.4863   22.1348 C.ar    1  UNL1        0.1258
     29 N           4.1750   -2.4643   21.2061 N.ar    1  UNL1       -0.2070
     30 C           4.5495   -2.0432   19.8160 C.ar    1  UNL1        0.2469
     31 C           4.2674   -0.6442   19.3545 C.ar    1  UNL1        0.1566
     32 N           3.6108    0.3339   20.2831 N.ar    1  UNL1       -0.2328
     33 O           5.2061   -3.0213   18.8875 O.3     1  UNL1       -0.4265
     34 C           4.6666   -4.4153   18.7627 C.3     1  UNL1        0.4044
     35 F           3.1896   -4.6593   18.8589 F       1  UNL1       -0.1809
@<TRIPOS>BOND
     1     9     8    1
     2     9     1    1
     3     1     2   ar
     4     2     3   ar
     5     3    23    1
     6    23    24   am
     7    24    25    2
     8    24    27    1
     9    27    28   ar
    10    28    29   ar
    11    29    30   ar
    12    30    33    1
    13    33    34    1
    14    34    35    1
    15    30    31   ar
    16    31    32   ar
    17     3     4   ar
    18     4     5   ar
    19     5     6   ar
    20     6     7    1
    21     9    10    1
    22    10    11    2
    23    11    12    1
    24    11    13    1
    25    13    14    1
    26    14    19    1
    27    19    20    1
    28    19    21    1
    29    21    22    1
    30    14    15    1
    31    15    16    1
    32    15     9    1
    33     6     1   ar
    34    22    19    1
    35    32    27   ar
    36    23    26    1
    37    12    17    1
    38    12    18    1
