@<TRIPOS>MOLECULE
*****
 26 28 0 0 0
SMALL
GASTEIGER

@<TRIPOS>ATOM
      1 C          -6.5888  -16.5927   23.2982 C.ar    1  UNL1        0.0286
      2 C          -7.7596  -17.3341   22.7242 C.ar    1  UNL1        0.0147
      3 C          -7.5560  -18.6718   22.0768 C.ar    1  UNL1        0.0482
      4 C          -6.1816  -19.2682   22.0035 C.ar    1  UNL1        0.0177
      5 C          -5.0108  -18.5268   22.5776 C.ar    1  UNL1        0.0376
      6 C          -5.2144  -17.1890   23.2249 C.ar    1  UNL1        0.1310
      7 O          -4.0436  -16.4477   23.7990 O.3     1  UNL1       -0.5058
      8 H          -3.1851  -16.8202   23.7532 H       1  UNL1        0.2922
      9 N          -8.7268  -19.4132   21.5027 N.pl3   1  UNL1       -0.3125
     10 H          -8.6463  -20.3709   21.2891 H       1  UNL1        0.1522
     11 C         -10.0203  -18.6954   21.2541 C.ar    1  UNL1        0.0513
     12 C         -10.2768  -18.0508   19.9243 C.ar    1  UNL1        0.0353
     13 C         -11.5702  -17.3330   19.6757 C.ar    1  UNL1        0.1001
     14 N         -12.6072  -17.2600   20.7571 N.ar    1  UNL1       -0.2437
     15 C         -12.3508  -17.9046   22.0869 C.ar    1  UNL1        0.0833
     16 C         -13.3878  -17.8315   23.1683 C.ar    1  UNL1        0.0305
     17 C         -13.1314  -18.4762   24.4981 C.ar    1  UNL1        0.0592
     18 CL        -14.1684  -18.4031   25.5795 Cl      1  UNL1       -0.0822
     19 C         -11.8379  -19.1940   24.7467 C.ar    1  UNL1        0.0115
     20 C         -10.8009  -19.2671   23.6654 C.ar    1  UNL1        0.0036
     21 C         -11.0573  -18.6223   22.3355 C.ar    1  UNL1        0.0312
     22 C          -6.7925  -15.2550   23.9456 C.3     1  UNL1        0.0987
     23 N          -5.9577  -14.8587   25.1272 N.3     1  UNL1       -0.2937
     24 H          -4.9890  -15.0694   24.8872 H       1  UNL1        0.1236
     25 C          -7.6243  -15.6670   26.9491 C.3     1  UNL1        0.0185
     26 C          -6.2158  -15.4774   26.4690 C.3     1  UNL1        0.0689
@<TRIPOS>BOND
     1    25    26    1
     2    26    23    1
     3    23    22    1
     4    22     1    1
     5     1     2   ar
     6     2     3   ar
     7     3     9    1
     8     9    11    1
     9    11    12   ar
    10    12    13   ar
    11    13    14   ar
    12    14    15   ar
    13    15    16   ar
    14    16    17   ar
    15    17    18    1
    16    17    19   ar
    17    19    20   ar
    18    20    21   ar
    19     3     4   ar
    20     4     5   ar
    21     5     6   ar
    22     6     7    1
    23     6     1   ar
    24    21    11   ar
    25    21    15   ar
    26    23    24    1
    27     9    10    1
    28     7     8    1
@<TRIPOS>MOLECULE
*****
 26 28 0 0 0
SMALL
GASTEIGER

@<TRIPOS>ATOM
      1 C          -1.9563  -17.4903   21.4706 C.ar    1  UNL1        0.0286
      2 C          -2.7047  -16.3014   21.9963 C.ar    1  UNL1        0.0147
      3 C          -3.8956  -16.4985   22.8867 C.ar    1  UNL1        0.0482
      4 C          -4.3382  -17.8846   23.2513 C.ar    1  UNL1        0.0177
      5 C          -3.5899  -19.0735   22.7255 C.ar    1  UNL1        0.0376
      6 C          -2.3989  -18.8764   21.8351 C.ar    1  UNL1        0.1310
      7 O          -1.6506  -20.0653   21.3093 O.3     1  UNL1       -0.5058
      8 H          -1.9271  -20.9311   21.5371 H       1  UNL1        0.2922
      9 N          -4.6439  -15.3096   23.4125 N.pl3   1  UNL1       -0.3125
     10 H          -4.4385  -14.4088   23.0724 H       1  UNL1        0.1522
     11 C          -5.7053  -15.4931   24.4565 C.ar    1  UNL1        0.0513
     12 C          -5.3600  -15.3539   25.9095 C.ar    1  UNL1        0.0353
     13 C          -6.4214  -15.5374   26.9535 C.ar    1  UNL1        0.1001
     14 N          -7.8279  -15.8601   26.5444 N.ar    1  UNL1       -0.2437
     15 C          -8.1732  -15.9993   25.0913 C.ar    1  UNL1        0.0833
     16 C          -9.5798  -16.3221   24.6822 C.ar    1  UNL1        0.0305
     17 C          -9.9250  -16.4613   23.2292 C.ar    1  UNL1        0.0592
     18 CL        -11.3316  -16.7840   22.8201 Cl      1  UNL1       -0.0822
     19 C          -8.8637  -16.2778   22.1852 C.ar    1  UNL1        0.0115
     20 C          -7.4571  -15.9550   22.5943 C.ar    1  UNL1        0.0036
     21 C          -7.1119  -15.8158   24.0474 C.ar    1  UNL1        0.0312
     22 C          -0.7653  -17.2931   20.5802 C.3     1  UNL1        0.0987
     23 N          -0.7031  -17.9795   19.2479 N.3     1  UNL1       -0.2937
     24 H           0.0087  -17.4958   18.7004 H       1  UNL1        0.1236
     25 C          -2.8056  -16.8555   18.2154 C.3     1  UNL1        0.0185
     26 C          -1.9295  -18.0608   18.3881 C.3     1  UNL1        0.0689
@<TRIPOS>BOND
     1    25    26    1
     2    26    23    1
     3    23    22    1
     4    22     1    1
     5     1     2   ar
     6     2     3   ar
     7     3     9    1
     8     9    11    1
     9    11    12   ar
    10    12    13   ar
    11    13    14   ar
    12    14    15   ar
    13    15    16   ar
    14    16    17   ar
    15    17    18    1
    16    17    19   ar
    17    19    20   ar
    18    20    21   ar
    19     3     4   ar
    20     4     5   ar
    21     5     6   ar
    22     6     7    1
    23     6     1   ar
    24    21    11   ar
    25    21    15   ar
    26    23    24    1
    27     9    10    1
    28     7     8    1
@<TRIPOS>MOLECULE
*****
 26 28 0 0 0
SMALL
GASTEIGER

@<TRIPOS>ATOM
      1 C          -8.0895  -15.7007   24.8195 C.ar    1  UNL1        0.0286
      2 C          -8.8702  -16.6539   23.9640 C.ar    1  UNL1        0.0147
      3 C          -9.6067  -17.7978   24.5957 C.ar    1  UNL1        0.0482
      4 C          -9.5625  -17.9886   26.0829 C.ar    1  UNL1        0.0177
      5 C          -8.7818  -17.0354   26.9384 C.ar    1  UNL1        0.0376
      6 C          -8.0452  -15.8914   26.3066 C.ar    1  UNL1        0.1310
      7 O          -7.2645  -14.9382   27.1621 O.3     1  UNL1       -0.5058
      8 H          -7.2369  -15.0573   28.0911 H       1  UNL1        0.2922
      9 N         -10.3875  -18.7510   23.7402 N.pl3   1  UNL1       -0.3125
     10 H         -11.0442  -19.3577   24.1524 H       1  UNL1        0.1522
     11 C         -10.1675  -18.7800   22.2566 C.ar    1  UNL1        0.0513
     12 C         -11.2377  -18.2840   21.3300 C.ar    1  UNL1        0.0353
     13 C         -11.0177  -18.3130   19.8465 C.ar    1  UNL1        0.1001
     14 N          -9.7276  -18.8379   19.2897 N.ar    1  UNL1       -0.2437
     15 C          -8.6574  -19.3339   20.2164 C.ar    1  UNL1        0.0833
     16 C          -7.3673  -19.8588   19.6596 C.ar    1  UNL1        0.0305
     17 C          -6.2971  -20.3548   20.5863 C.ar    1  UNL1        0.0592
     18 CL         -5.0070  -20.8797   20.0295 Cl      1  UNL1       -0.0822
     19 C          -6.5171  -20.3258   22.0698 C.ar    1  UNL1        0.0115
     20 C          -7.8072  -19.8009   22.6266 C.ar    1  UNL1        0.0036
     21 C          -8.8774  -19.3049   21.6998 C.ar    1  UNL1        0.0312
     22 C          -7.3530  -14.5568   24.1877 C.3     1  UNL1        0.0987
     23 N          -6.0302  -14.7931   23.5211 N.3     1  UNL1       -0.2937
     24 H          -6.2297  -15.1972   22.6061 H       1  UNL1        0.1236
     25 C          -4.6387  -16.9871   23.5394 C.3     1  UNL1        0.0185
     26 C          -5.0098  -15.6787   24.1725 C.3     1  UNL1        0.0689
@<TRIPOS>BOND
     1    25    26    1
     2    26    23    1
     3    23    22    1
     4    22     1    1
     5     1     2   ar
     6     2     3   ar
     7     3     9    1
     8     9    11    1
     9    11    12   ar
    10    12    13   ar
    11    13    14   ar
    12    14    15   ar
    13    15    16   ar
    14    16    17   ar
    15    17    18    1
    16    17    19   ar
    17    19    20   ar
    18    20    21   ar
    19     3     4   ar
    20     4     5   ar
    21     5     6   ar
    22     6     7    1
    23     6     1   ar
    24    21    11   ar
    25    21    15   ar
    26    23    24    1
    27     9    10    1
    28     7     8    1
@<TRIPOS>MOLECULE
*****
 26 28 0 0 0
SMALL
GASTEIGER

@<TRIPOS>ATOM
      1 C          -3.0084  -18.9398   21.6463 C.ar    1  UNL1        0.0286
      2 C          -4.2827  -19.7310   21.6313 C.ar    1  UNL1        0.0147
      3 C          -5.4926  -19.2180   22.3545 C.ar    1  UNL1        0.0482
      4 C          -5.4282  -17.9137   23.0926 C.ar    1  UNL1        0.0177
      5 C          -4.1540  -17.1225   23.1075 C.ar    1  UNL1        0.0376
      6 C          -2.9441  -17.6355   22.3843 C.ar    1  UNL1        0.1310
      7 O          -1.6698  -16.8443   22.3992 O.3     1  UNL1       -0.5058
      8 H          -1.6296  -16.0296   22.8603 H       1  UNL1        0.2922
      9 N          -6.7668  -20.0092   22.3396 N.pl3   1  UNL1       -0.3125
     10 H          -6.8836  -20.7661   22.9583 H       1  UNL1        0.1522
     11 C          -7.8632  -19.6473   21.3820 C.ar    1  UNL1        0.0513
     12 C          -7.6190  -19.7112   19.9034 C.ar    1  UNL1        0.0353
     13 C          -8.7154  -19.3492   18.9458 C.ar    1  UNL1        0.1001
     14 N         -10.0560  -18.9234   19.4669 N.ar    1  UNL1       -0.2437
     15 C         -10.3002  -18.8595   20.9455 C.ar    1  UNL1        0.0833
     16 C         -11.6408  -18.4336   21.4665 C.ar    1  UNL1        0.0305
     17 C         -11.8850  -18.3697   22.9451 C.ar    1  UNL1        0.0592
     18 CL        -13.2256  -17.9439   23.4661 Cl      1  UNL1       -0.0822
     19 C         -10.7886  -18.7317   23.9027 C.ar    1  UNL1        0.0115
     20 C          -9.4480  -19.1575   23.3817 C.ar    1  UNL1        0.0036
     21 C          -9.2038  -19.2214   21.9030 C.ar    1  UNL1        0.0312
     22 C          -1.7985  -19.4528   20.9230 C.3     1  UNL1        0.0987
     23 N          -0.8746  -18.4938   20.2328 N.3     1  UNL1       -0.2937
     24 H          -0.7550  -17.6977   20.8592 H       1  UNL1        0.1236
     25 C          -2.5951  -17.3326   18.6703 C.3     1  UNL1        0.0185
     26 C          -1.2395  -17.9365   18.8889 C.3     1  UNL1        0.0689
@<TRIPOS>BOND
     1    25    26    1
     2    26    23    1
     3    23    22    1
     4    22     1    1
     5     1     2   ar
     6     2     3   ar
     7     3     9    1
     8     9    11    1
     9    11    12   ar
    10    12    13   ar
    11    13    14   ar
    12    14    15   ar
    13    15    16   ar
    14    16    17   ar
    15    17    18    1
    16    17    19   ar
    17    19    20   ar
    18    20    21   ar
    19     3     4   ar
    20     4     5   ar
    21     5     6   ar
    22     6     7    1
    23     6     1   ar
    24    21    11   ar
    25    21    15   ar
    26    23    24    1
    27     9    10    1
    28     7     8    1
@<TRIPOS>MOLECULE
*****
 26 28 0 0 0
SMALL
GASTEIGER

@<TRIPOS>ATOM
      1 C          -4.2144  -18.7600   21.8103 C.ar    1  UNL1        0.0286
      2 C          -5.6013  -18.8509   22.3745 C.ar    1  UNL1        0.0147
      3 C          -6.5381  -19.9191   21.8937 C.ar    1  UNL1        0.0482
      4 C          -6.0881  -20.8965   20.8486 C.ar    1  UNL1        0.0177
      5 C          -4.7012  -20.8056   20.2843 C.ar    1  UNL1        0.0376
      6 C          -3.7644  -19.7373   20.7652 C.ar    1  UNL1        0.1310
      7 O          -2.3775  -19.6464   20.2009 O.3     1  UNL1       -0.5058
      8 H          -2.0964  -20.2570   19.5481 H       1  UNL1        0.2922
      9 N          -7.9249  -20.0100   22.4580 N.pl3   1  UNL1       -0.3125
     10 H          -8.0736  -20.4372   23.3324 H       1  UNL1        0.1522
     11 C          -9.0853  -19.4499   21.6899 C.ar    1  UNL1        0.0513
     12 C          -8.9865  -19.2750   20.2034 C.ar    1  UNL1        0.0353
     13 C         -10.1469  -18.7150   19.4354 C.ar    1  UNL1        0.1001
     14 N         -11.4061  -18.3298   20.1539 N.ar    1  UNL1       -0.2437
     15 C         -11.5049  -18.5047   21.6403 C.ar    1  UNL1        0.0833
     16 C         -12.7640  -18.1196   22.3588 C.ar    1  UNL1        0.0305
     17 C         -12.8629  -18.2945   23.8452 C.ar    1  UNL1        0.0592
     18 CL        -14.1220  -17.9094   24.5637 Cl      1  UNL1       -0.0822
     19 C         -11.7025  -18.8546   24.6133 C.ar    1  UNL1        0.0115
     20 C         -10.4433  -19.2397   23.8949 C.ar    1  UNL1        0.0036
     21 C         -10.3445  -19.0648   22.4083 C.ar    1  UNL1        0.0312
     22 C          -3.2776  -17.6917   22.2911 C.3     1  UNL1        0.0987
     23 N          -2.6935  -16.7122   21.3168 N.3     1  UNL1       -0.2937
     24 H          -2.9702  -17.0228   20.3854 H       1  UNL1        0.1236
     25 C          -0.4177  -16.9336   20.0830 C.3     1  UNL1        0.0185
     26 C          -1.2108  -16.4886   21.2760 C.3     1  UNL1        0.0689
@<TRIPOS>BOND
     1    25    26    1
     2    26    23    1
     3    23    22    1
     4    22     1    1
     5     1     2   ar
     6     2     3   ar
     7     3     9    1
     8     9    11    1
     9    11    12   ar
    10    12    13   ar
    11    13    14   ar
    12    14    15   ar
    13    15    16   ar
    14    16    17   ar
    15    17    18    1
    16    17    19   ar
    17    19    20   ar
    18    20    21   ar
    19     3     4   ar
    20     4     5   ar
    21     5     6   ar
    22     6     7    1
    23     6     1   ar
    24    21    11   ar
    25    21    15   ar
    26    23    24    1
    27     9    10    1
    28     7     8    1
@<TRIPOS>MOLECULE
*****
 26 28 0 0 0
SMALL
GASTEIGER

@<TRIPOS>ATOM
      1 C          -7.9907  -15.5873   25.1998 C.ar    1  UNL1        0.0286
      2 C          -8.9218  -16.6270   24.6502 C.ar    1  UNL1        0.0147
      3 C          -9.5262  -17.6511   25.5645 C.ar    1  UNL1        0.0482
      4 C          -9.1994  -17.6356   27.0284 C.ar    1  UNL1        0.0177
      5 C          -8.2682  -16.5960   27.5780 C.ar    1  UNL1        0.0376
      6 C          -7.6639  -15.5718   26.6637 C.ar    1  UNL1        0.1310
      7 O          -6.7327  -14.5321   27.2133 O.3     1  UNL1       -0.5058
      8 H          -6.5286  -14.5225   28.1277 H       1  UNL1        0.2922
      9 N         -10.4573  -18.6908   25.0148 N.pl3   1  UNL1       -0.3125
     10 H         -10.6044  -19.5300   25.5081 H       1  UNL1        0.1522
     11 C         -11.1644  -18.4517   23.7137 C.ar    1  UNL1        0.0513
     12 C         -12.5579  -17.8965   23.7083 C.ar    1  UNL1        0.0353
     13 C         -13.2649  -17.6574   22.4072 C.ar    1  UNL1        0.1001
     14 N         -12.5785  -17.9736   21.1115 N.ar    1  UNL1       -0.2437
     15 C         -11.1850  -18.5288   21.1168 C.ar    1  UNL1        0.0833
     16 C         -10.4986  -18.8449   19.8211 C.ar    1  UNL1        0.0305
     17 C          -9.1052  -19.4001   19.8265 C.ar    1  UNL1        0.0592
     18 CL         -8.4188  -19.7163   18.5308 Cl      1  UNL1       -0.0822
     19 C          -8.3981  -19.6392   21.1277 C.ar    1  UNL1        0.0115
     20 C          -9.0845  -19.3231   22.4234 C.ar    1  UNL1        0.0036
     21 C         -10.4780  -18.7678   22.4180 C.ar    1  UNL1        0.0312
     22 C          -7.3863  -14.5632   24.2855 C.3     1  UNL1        0.0987
     23 N          -6.4334  -14.9888   23.2082 N.3     1  UNL1       -0.2937
     24 H          -6.8402  -15.8117   22.7635 H       1  UNL1        0.1236
     25 C          -4.6951  -16.6957   24.1109 C.3     1  UNL1        0.0185
     26 C          -5.0171  -15.3400   23.5555 C.3     1  UNL1        0.0689
@<TRIPOS>BOND
     1    25    26    1
     2    26    23    1
     3    23    22    1
     4    22     1    1
     5     1     2   ar
     6     2     3   ar
     7     3     9    1
     8     9    11    1
     9    11    12   ar
    10    12    13   ar
    11    13    14   ar
    12    14    15   ar
    13    15    16   ar
    14    16    17   ar
    15    17    18    1
    16    17    19   ar
    17    19    20   ar
    18    20    21   ar
    19     3     4   ar
    20     4     5   ar
    21     5     6   ar
    22     6     7    1
    23     6     1   ar
    24    21    11   ar
    25    21    15   ar
    26    23    24    1
    27     9    10    1
    28     7     8    1
@<TRIPOS>MOLECULE
*****
 26 28 0 0 0
SMALL
GASTEIGER

@<TRIPOS>ATOM
      1 C          -4.2176  -18.4019   22.1532 C.ar    1  UNL1        0.0286
      2 C          -5.6271  -18.7227   22.5539 C.ar    1  UNL1        0.0147
      3 C          -6.3714  -19.8251   21.8607 C.ar    1  UNL1        0.0482
      4 C          -5.7063  -20.6069   20.7668 C.ar    1  UNL1        0.0177
      5 C          -4.2968  -20.2861   20.3661 C.ar    1  UNL1        0.0376
      6 C          -3.5525  -19.1836   21.0594 C.ar    1  UNL1        0.1310
      7 O          -2.1430  -18.8629   20.6588 O.3     1  UNL1       -0.5058
      8 H          -1.7275  -19.3512   19.9755 H       1  UNL1        0.2922
      9 N          -7.7809  -20.1459   22.2613 N.pl3   1  UNL1       -0.3125
     10 H          -7.9518  -20.7411   23.0267 H       1  UNL1        0.1522
     11 C          -8.9301  -19.5597   21.4958 C.ar    1  UNL1        0.0513
     12 C          -8.8385  -19.4057   20.0066 C.ar    1  UNL1        0.0353
     13 C          -9.9876  -18.8196   19.2411 C.ar    1  UNL1        0.1001
     14 N         -11.2283  -18.3874   19.9649 N.ar    1  UNL1       -0.2437
     15 C         -11.3199  -18.5414   21.4542 C.ar    1  UNL1        0.0833
     16 C         -12.5606  -18.1092   22.1780 C.ar    1  UNL1        0.0305
     17 C         -12.6521  -18.2632   23.6672 C.ar    1  UNL1        0.0592
     18 CL        -13.8928  -17.8310   24.3910 Cl      1  UNL1       -0.0822
     19 C         -11.5030  -18.8493   24.4327 C.ar    1  UNL1        0.0115
     20 C         -10.2623  -19.2815   23.7089 C.ar    1  UNL1        0.0036
     21 C         -10.1708  -19.1275   22.2196 C.ar    1  UNL1        0.0312
     22 C          -3.4733  -17.2994   22.8465 C.3     1  UNL1        0.0987
     23 N          -4.1343  -15.9711   23.0665 N.3     1  UNL1       -0.2937
     24 H          -3.3909  -15.2733   23.0947 H       1  UNL1        0.1236
     25 C          -6.4016  -15.2827   24.1321 C.3     1  UNL1        0.0185
     26 C          -4.9836  -15.7483   24.2826 C.3     1  UNL1        0.0689
@<TRIPOS>BOND
     1    25    26    1
     2    26    23    1
     3    23    22    1
     4    22     1    1
     5     1     2   ar
     6     2     3   ar
     7     3     9    1
     8     9    11    1
     9    11    12   ar
    10    12    13   ar
    11    13    14   ar
    12    14    15   ar
    13    15    16   ar
    14    16    17   ar
    15    17    18    1
    16    17    19   ar
    17    19    20   ar
    18    20    21   ar
    19     3     4   ar
    20     4     5   ar
    21     5     6   ar
    22     6     7    1
    23     6     1   ar
    24    21    11   ar
    25    21    15   ar
    26    23    24    1
    27     9    10    1
    28     7     8    1
@<TRIPOS>MOLECULE
*****
 26 28 0 0 0
SMALL
GASTEIGER

@<TRIPOS>ATOM
      1 C          -9.8511  -19.6018   22.2349 C.ar    1  UNL1        0.0286
      2 C          -8.4335  -19.7109   22.7129 C.ar    1  UNL1        0.0147
      3 C          -7.3049  -19.6849   21.7253 C.ar    1  UNL1        0.0482
      4 C          -7.5938  -19.5498   20.2595 C.ar    1  UNL1        0.0177
      5 C          -9.0114  -19.4408   19.7815 C.ar    1  UNL1        0.0376
      6 C         -10.1401  -19.4668   20.7692 C.ar    1  UNL1        0.1310
      7 O         -11.5577  -19.3577   20.2912 O.3     1  UNL1       -0.5058
      8 H         -11.7382  -19.2733   19.3757 H       1  UNL1        0.2922
      9 N          -5.8873  -19.7939   22.2033 N.pl3   1  UNL1       -0.3125
     10 H          -5.4878  -20.6798   22.3611 H       1  UNL1        0.1522
     11 C          -5.0783  -18.5532   22.4408 C.ar    1  UNL1        0.0513
     12 C          -5.5991  -17.4813   23.3516 C.ar    1  UNL1        0.0353
     13 C          -4.7901  -16.2407   23.5891 C.ar    1  UNL1        0.1001
     14 N          -3.4604  -16.0720   22.9157 N.ar    1  UNL1       -0.2437
     15 C          -2.9397  -17.1439   22.0048 C.ar    1  UNL1        0.0833
     16 C          -1.6100  -16.9752   21.3314 C.ar    1  UNL1        0.0305
     17 C          -1.0893  -18.0471   20.4205 C.ar    1  UNL1        0.0592
     18 CL          0.2404  -17.8785   19.7471 Cl      1  UNL1       -0.0822
     19 C          -1.8982  -19.2878   20.1830 C.ar    1  UNL1        0.0115
     20 C          -3.2279  -19.4565   20.8564 C.ar    1  UNL1        0.0036
     21 C          -3.7486  -18.3845   21.7674 C.ar    1  UNL1        0.0312
     22 C         -10.9797  -19.6278   23.2226 C.3     1  UNL1        0.0987
     23 N         -12.0167  -18.5441   23.2053 N.3     1  UNL1       -0.2937
     24 H         -12.6021  -18.7098   22.3867 H       1  UNL1        0.1236
     25 C         -12.0770  -16.2235   22.0386 C.3     1  UNL1        0.0185
     26 C         -11.5967  -17.1051   23.1531 C.3     1  UNL1        0.0689
@<TRIPOS>BOND
     1    25    26    1
     2    26    23    1
     3    23    22    1
     4    22     1    1
     5     1     2   ar
     6     2     3   ar
     7     3     9    1
     8     9    11    1
     9    11    12   ar
    10    12    13   ar
    11    13    14   ar
    12    14    15   ar
    13    15    16   ar
    14    16    17   ar
    15    17    18    1
    16    17    19   ar
    17    19    20   ar
    18    20    21   ar
    19     3     4   ar
    20     4     5   ar
    21     5     6   ar
    22     6     7    1
    23     6     1   ar
    24    21    11   ar
    25    21    15   ar
    26    23    24    1
    27     9    10    1
    28     7     8    1
@<TRIPOS>MOLECULE
*****
 26 28 0 0 0
SMALL
GASTEIGER

@<TRIPOS>ATOM
      1 C          -4.2563  -19.2830   21.7789 C.ar    1  UNL1        0.0286
      2 C          -5.1853  -18.4800   22.6404 C.ar    1  UNL1        0.0147
      3 C          -6.6624  -18.5098   22.3812 C.ar    1  UNL1        0.0482
      4 C          -7.2106  -19.3425   21.2605 C.ar    1  UNL1        0.0177
      5 C          -6.2816  -20.1455   20.3990 C.ar    1  UNL1        0.0376
      6 C          -4.8044  -20.1158   20.6582 C.ar    1  UNL1        0.1310
      7 O          -3.8755  -20.9188   19.7967 O.3     1  UNL1       -0.5058
      8 H          -4.2179  -21.4390   19.0966 H       1  UNL1        0.2922
      9 N          -7.5914  -17.7068   23.2427 N.pl3   1  UNL1       -0.3125
     10 H          -7.2520  -16.9272   23.7391 H       1  UNL1        0.1522
     11 C          -9.0374  -18.0915   23.3479 C.ar    1  UNL1        0.0513
     12 C          -9.4741  -19.0935   24.3752 C.ar    1  UNL1        0.0353
     13 C         -10.9201  -19.4781   24.4803 C.ar    1  UNL1        0.1001
     14 N         -11.9294  -18.8609   23.5581 N.ar    1  UNL1       -0.2437
     15 C         -11.4927  -17.8589   22.5309 C.ar    1  UNL1        0.0833
     16 C         -12.5019  -17.2417   21.6087 C.ar    1  UNL1        0.0305
     17 C         -12.0652  -16.2397   20.5814 C.ar    1  UNL1        0.0592
     18 CL        -13.0745  -15.6225   19.6593 Cl      1  UNL1       -0.0822
     19 C         -10.6192  -15.8550   20.4763 C.ar    1  UNL1        0.0115
     20 C          -9.6099  -16.4722   21.3984 C.ar    1  UNL1        0.0036
     21 C         -10.0467  -17.4742   22.4257 C.ar    1  UNL1        0.0312
     22 C          -2.7791  -19.2533   22.0382 C.3     1  UNL1        0.0987
     23 N          -1.8152  -19.2886   20.8895 N.3     1  UNL1       -0.2937
     24 H          -0.9402  -19.6681   21.2510 H       1  UNL1        0.1236
     25 C          -1.8743  -17.8507   18.7264 C.3     1  UNL1        0.0185
     26 C          -1.4704  -18.0238   20.1606 C.3     1  UNL1        0.0689
@<TRIPOS>BOND
     1    25    26    1
     2    26    23    1
     3    23    22    1
     4    22     1    1
     5     1     2   ar
     6     2     3   ar
     7     3     9    1
     8     9    11    1
     9    11    12   ar
    10    12    13   ar
    11    13    14   ar
    12    14    15   ar
    13    15    16   ar
    14    16    17   ar
    15    17    18    1
    16    17    19   ar
    17    19    20   ar
    18    20    21   ar
    19     3     4   ar
    20     4     5   ar
    21     5     6   ar
    22     6     7    1
    23     6     1   ar
    24    21    11   ar
    25    21    15   ar
    26    23    24    1
    27     9    10    1
    28     7     8    1
