@<TRIPOS>MOLECULE
*****
 32 36 0 0 0
SMALL
GASTEIGER

@<TRIPOS>ATOM
      1 C          -9.3246  -18.8669   20.0624 C.3     1  UNL1        0.0730
      2 N          -7.9731  -19.5172   20.0838 N.3     1  UNL1       -0.2724
      3 C          -7.6219  -20.8411   19.4721 C.3     1  UNL1        0.0724
      4 C          -6.1672  -21.1000   19.7309 C.3     1  UNL1        0.0214
      5 C          -4.7229  -21.0813   20.1352 C.3     1  UNL1        0.0072
      6 C          -5.6194  -19.9361   20.5025 C.3     1  UNL1        0.0350
      7 C          -6.7355  -18.9580   20.7206 C.3     1  UNL1        0.0761
      8 C          -4.5692  -19.1375   21.2161 C.ar    1  UNL1       -0.0215
      9 C          -4.7541  -18.7761   22.6601 C.ar    1  UNL1       -0.0043
     10 C          -3.7038  -17.9774   23.3738 C.ar    1  UNL1       -0.0004
     11 C          -2.4688  -17.5401   22.6434 C.ar    1  UNL1        0.0038
     12 C          -2.2840  -17.9015   21.1993 C.ar    1  UNL1        0.0711
     13 C          -3.3342  -18.7002   20.4857 C.ar    1  UNL1       -0.0004
     14 C          -1.0490  -17.4642   20.4688 C.3     1  UNL1        0.4186
     15 F           0.1859  -17.0269   19.7384 F       1  UNL1       -0.1659
     16 F          -0.9539  -18.8140   19.8215 F       1  UNL1       -0.1659
     17 F          -1.1441  -16.1144   21.1161 F       1  UNL1       -0.1659
     18 C         -10.4646  -19.4812   20.8192 C.3     1  UNL1        0.0294
     19 C         -11.7508  -18.7265   20.9810 C.3     1  UNL1        0.0666
     20 S         -12.0419  -18.0070   22.2647 S.3     1  UNL1       -0.0756
     21 C          -8.9526  -16.9609   24.3687 C.ar    1  UNL1        0.2029
     22 N          -9.5835  -17.9821   25.2682 N.ar    1  UNL1       -0.1250
     23 N         -10.8175  -18.4983   24.5895 N.ar    1  UNL1       -0.1220
     24 C         -10.9493  -17.7961   23.2706 C.ar    1  UNL1        0.1933
     25 N          -9.7967  -16.8459   23.1342 N.ar    1  UNL1       -0.2860
     26 C          -9.5343  -15.9398   21.9679 C.3     1  UNL1        0.1341
     27 C          -8.1972  -15.5006   27.1877 C.3     1  UNL1        0.0556
     28 C          -7.3506  -15.5188   25.9495 C.ar    1  UNL1        0.1001
     29 N          -6.0082  -14.8689   25.7898 N.ar    1  UNL1       -0.2085
     30 C          -5.5258  -15.1385   24.3953 C.ar    1  UNL1        0.2849
     31 O          -6.5699  -15.9549   23.6933 O.2     1  UNL1       -0.4283
     32 C          -7.6978  -16.1899   24.6539 C.ar    1  UNL1        0.1964
@<TRIPOS>BOND
     1    27    28    1
     2    28    29   ar
     3    29    30   ar
     4    30    31   ar
     5    31    32   ar
     6    32    21    1
     7    21    22   ar
     8    22    23   ar
     9    23    24   ar
    10    24    20    1
    11    20    19    1
    12    19    18    1
    13    18     1    1
    14     1     2    1
    15     2     3    1
    16     3     4    1
    17     4     5    1
    18     5     6    1
    19     6     8    1
    20     8     9   ar
    21     9    10   ar
    22    10    11   ar
    23    11    12   ar
    24    12    14    1
    25    14    15    1
    26    14    16    1
    27    14    17    1
    28    12    13   ar
    29     6     7    1
    30    24    25   ar
    31    25    26    1
    32    32    28   ar
    33    25    21   ar
    34     7     2    1
    35     6     4    1
    36    13     8   ar
@<TRIPOS>MOLECULE
*****
 32 36 0 0 0
SMALL
GASTEIGER

@<TRIPOS>ATOM
      1 C          -8.8546  -15.7203   25.4820 C.3     1  UNL1        0.0730
      2 N          -9.1673  -17.0980   24.9778 N.3     1  UNL1       -0.2724
      3 C          -9.8148  -18.1989   25.7643 C.3     1  UNL1        0.0724
      4 C          -9.9352  -19.3979   24.8711 C.3     1  UNL1        0.0214
      5 C          -9.9194  -20.4110   23.7651 C.3     1  UNL1        0.0072
      6 C          -9.3620  -19.0380   23.5325 C.3     1  UNL1        0.0350
      7 C          -8.8875  -17.6166   23.5984 C.3     1  UNL1        0.0761
      8 C          -8.9656  -19.2696   22.1045 C.ar    1  UNL1       -0.0215
      9 C          -9.9802  -19.1171   21.0103 C.ar    1  UNL1       -0.0043
     10 C          -9.5838  -19.3487   19.5822 C.ar    1  UNL1       -0.0004
     11 C          -8.1728  -19.7328   19.2484 C.ar    1  UNL1        0.0038
     12 C          -7.1581  -19.8853   20.3426 C.ar    1  UNL1        0.0711
     13 C          -7.5545  -19.6537   21.7706 C.ar    1  UNL1       -0.0004
     14 C          -5.7471  -20.2694   20.0088 C.3     1  UNL1        0.4186
     15 F          -4.3361  -20.6535   19.6750 F       1  UNL1       -0.1659
     16 F          -5.3476  -18.8238   20.0338 F       1  UNL1       -0.1659
     17 F          -6.1465  -21.7151   19.9838 F       1  UNL1       -0.1659
     18 C          -8.4255  -15.5222   26.9056 C.3     1  UNL1        0.0294
     19 C          -7.0251  -15.8631   27.3212 C.3     1  UNL1        0.0666
     20 S          -5.8629  -15.1477   26.6987 S.3     1  UNL1       -0.0756
     21 C          -4.2632  -16.7232   23.5327 C.ar    1  UNL1        0.2029
     22 N          -5.0251  -15.5784   22.9334 N.ar    1  UNL1       -0.1250
     23 N          -5.7170  -14.8490   24.0465 N.ar    1  UNL1       -0.1220
     24 C          -5.3828  -15.5428   25.3337 C.ar    1  UNL1        0.1933
     25 N          -4.4843  -16.7011   25.0161 N.ar    1  UNL1       -0.2860
     26 C          -3.9080  -17.6677   26.0079 C.3     1  UNL1        0.1341
     27 C          -1.7748  -16.0177   21.5427 C.3     1  UNL1        0.0556
     28 C          -2.2832  -17.3915   21.8659 C.ar    1  UNL1        0.1001
     29 N          -1.7371  -18.6821   21.3311 N.ar    1  UNL1       -0.2085
     30 C          -2.5434  -19.8040   21.9152 C.ar    1  UNL1        0.2849
     31 O          -3.5877  -19.2068   22.8110 O.2     1  UNL1       -0.4283
     32 C          -3.4269  -17.7157   22.7805 C.ar    1  UNL1        0.1964
@<TRIPOS>BOND
     1    27    28    1
     2    28    29   ar
     3    29    30   ar
     4    30    31   ar
     5    31    32   ar
     6    32    21    1
     7    21    22   ar
     8    22    23   ar
     9    23    24   ar
    10    24    20    1
    11    20    19    1
    12    19    18    1
    13    18     1    1
    14     1     2    1
    15     2     3    1
    16     3     4    1
    17     4     5    1
    18     5     6    1
    19     6     8    1
    20     8     9   ar
    21     9    10   ar
    22    10    11   ar
    23    11    12   ar
    24    12    14    1
    25    14    15    1
    26    14    16    1
    27    14    17    1
    28    12    13   ar
    29     6     7    1
    30    24    25   ar
    31    25    26    1
    32    32    28   ar
    33    25    21   ar
    34     7     2    1
    35     6     4    1
    36    13     8   ar
@<TRIPOS>MOLECULE
*****
 32 36 0 0 0
SMALL
GASTEIGER

@<TRIPOS>ATOM
      1 C          -9.2649  -19.3811   19.2851 C.3     1  UNL1        0.0730
      2 N          -9.8650  -18.4240   20.2719 N.3     1  UNL1       -0.2724
      3 C         -11.3016  -17.9954   20.3227 C.3     1  UNL1        0.0724
      4 C         -11.4584  -17.0339   21.4633 C.3     1  UNL1        0.0214
      5 C         -11.3083  -16.1222   22.6449 C.3     1  UNL1        0.0072
      6 C         -10.1188  -16.8683   22.1174 C.3     1  UNL1        0.0350
      7 C          -9.1340  -17.7274   21.3811 C.3     1  UNL1        0.0761
      8 C          -9.1391  -16.3276   23.1163 C.ar    1  UNL1       -0.0215
      9 C          -7.9515  -15.5385   22.6507 C.ar    1  UNL1       -0.0043
     10 C          -6.9717  -14.9978   23.6496 C.ar    1  UNL1       -0.0004
     11 C          -7.1796  -15.2464   25.1142 C.ar    1  UNL1        0.0038
     12 C          -8.3672  -16.0356   25.5799 C.ar    1  UNL1        0.0711
     13 C          -9.3469  -16.5762   24.5809 C.ar    1  UNL1       -0.0004
     14 C          -8.5751  -16.2841   27.0445 C.3     1  UNL1        0.4186
     15 F          -8.7830  -16.5327   28.5090 F       1  UNL1       -0.1659
     16 F          -9.1276  -17.6440   26.7353 F       1  UNL1       -0.1659
     17 F          -8.0226  -14.9243   27.3537 F       1  UNL1       -0.1659
     18 C          -7.8024  -19.7078   19.3514 C.3     1  UNL1        0.0294
     19 C          -7.3006  -20.7013   20.3570 C.3     1  UNL1        0.0666
     20 S          -6.7055  -20.2252   21.6491 S.3     1  UNL1       -0.0756
     21 C          -3.3121  -18.4217   21.1041 C.ar    1  UNL1        0.2029
     22 N          -3.9527  -17.5310   22.1270 N.ar    1  UNL1       -0.1250
     23 N          -5.3018  -18.0982   22.4556 N.ar    1  UNL1       -0.1220
     24 C          -5.4951  -19.3394   21.6359 C.ar    1  UNL1        0.1933
     25 N          -4.2653  -19.5393   20.8006 N.ar    1  UNL1       -0.2860
     26 C          -4.0301  -20.6602   19.8319 C.3     1  UNL1        0.1341
     27 C          -2.7024  -17.2209   18.1315 C.3     1  UNL1        0.0556
     28 C          -1.6760  -17.6767   19.1260 C.ar    1  UNL1        0.1001
     29 N          -0.1892  -17.6605   18.9285 N.ar    1  UNL1       -0.2085
     30 C           0.4495  -18.2024   20.1728 C.ar    1  UNL1        0.2849
     31 O          -0.6425  -18.5535   21.1392 O.2     1  UNL1       -0.4283
     32 C          -1.9562  -18.2286   20.4922 C.ar    1  UNL1        0.1964
@<TRIPOS>BOND
     1    27    28    1
     2    28    29   ar
     3    29    30   ar
     4    30    31   ar
     5    31    32   ar
     6    32    21    1
     7    21    22   ar
     8    22    23   ar
     9    23    24   ar
    10    24    20    1
    11    20    19    1
    12    19    18    1
    13    18     1    1
    14     1     2    1
    15     2     3    1
    16     3     4    1
    17     4     5    1
    18     5     6    1
    19     6     8    1
    20     8     9   ar
    21     9    10   ar
    22    10    11   ar
    23    11    12   ar
    24    12    14    1
    25    14    15    1
    26    14    16    1
    27    14    17    1
    28    12    13   ar
    29     6     7    1
    30    24    25   ar
    31    25    26    1
    32    32    28   ar
    33    25    21   ar
    34     7     2    1
    35     6     4    1
    36    13     8   ar
@<TRIPOS>MOLECULE
*****
 32 36 0 0 0
SMALL
GASTEIGER

@<TRIPOS>ATOM
      1 C          -8.1547  -15.2304   26.3142 C.3     1  UNL1        0.0730
      2 N          -8.8832  -16.4393   25.8065 N.3     1  UNL1       -0.2724
      3 C          -9.1424  -17.7004   26.5762 C.3     1  UNL1        0.0724
      4 C          -9.8999  -18.6399   25.6854 C.3     1  UNL1        0.0214
      5 C         -10.6353  -19.3466   24.5855 C.3     1  UNL1        0.0072
      6 C         -10.1089  -17.9594   24.3650 C.3     1  UNL1        0.0350
      7 C          -9.4805  -16.5994   24.4399 C.3     1  UNL1        0.0761
      8 C         -10.5961  -17.8295   22.9523 C.ar    1  UNL1       -0.0215
      9 C         -11.6195  -16.7895   22.6047 C.ar    1  UNL1       -0.0043
     10 C         -12.1068  -16.6595   21.1919 C.ar    1  UNL1       -0.0004
     11 C         -11.5706  -17.5696   20.1269 C.ar    1  UNL1        0.0038
     12 C         -10.5471  -18.6097   20.4747 C.ar    1  UNL1        0.0711
     13 C         -10.0599  -18.7396   21.8873 C.ar    1  UNL1       -0.0004
     14 C         -10.0109  -19.5198   19.4097 C.3     1  UNL1        0.4186
     15 F          -9.4747  -20.4299   18.3447 F       1  UNL1       -0.1659
     16 F         -11.2484  -19.2931   18.5929 F       1  UNL1       -0.1659
     17 F          -8.7734  -19.7465   20.2265 F       1  UNL1       -0.1659
     18 C          -6.8130  -15.3827   26.9674 C.3     1  UNL1        0.0294
     19 C          -5.6319  -15.8318   26.1590 C.3     1  UNL1        0.0666
     20 S          -5.4807  -15.3792   24.7368 S.3     1  UNL1       -0.0756
     21 C          -5.8504  -18.1115   22.0050 C.ar    1  UNL1        0.2029
     22 N          -7.0836  -17.2922   21.7642 N.ar    1  UNL1       -0.1250
     23 N          -7.0952  -16.1690   22.7583 N.ar    1  UNL1       -0.1220
     24 C          -5.8692  -16.2941   23.6134 C.ar    1  UNL1        0.1933
     25 N          -5.0999  -17.4947   23.1478 N.ar    1  UNL1       -0.2860
     26 C          -3.8070  -17.9912   23.7240 C.3     1  UNL1        0.1341
     27 C          -3.1824  -18.4042   20.1486 C.3     1  UNL1        0.0556
     28 C          -4.2136  -19.4678   20.3844 C.ar    1  UNL1        0.1001
     29 N          -4.1994  -20.8526   19.8082 N.ar    1  UNL1       -0.2085
     30 C          -5.4169  -21.5740   20.3054 C.ar    1  UNL1        0.2849
     31 O          -6.1836  -20.6350   21.1888 O.2     1  UNL1       -0.4283
     32 C          -5.4398  -19.3333   21.2376 C.ar    1  UNL1        0.1964
@<TRIPOS>BOND
     1    27    28    1
     2    28    29   ar
     3    29    30   ar
     4    30    31   ar
     5    31    32   ar
     6    32    21    1
     7    21    22   ar
     8    22    23   ar
     9    23    24   ar
    10    24    20    1
    11    20    19    1
    12    19    18    1
    13    18     1    1
    14     1     2    1
    15     2     3    1
    16     3     4    1
    17     4     5    1
    18     5     6    1
    19     6     8    1
    20     8     9   ar
    21     9    10   ar
    22    10    11   ar
    23    11    12   ar
    24    12    14    1
    25    14    15    1
    26    14    16    1
    27    14    17    1
    28    12    13   ar
    29     6     7    1
    30    24    25   ar
    31    25    26    1
    32    32    28   ar
    33    25    21   ar
    34     7     2    1
    35     6     4    1
    36    13     8   ar
@<TRIPOS>MOLECULE
*****
 32 36 0 0 0
SMALL
GASTEIGER

@<TRIPOS>ATOM
      1 C          -8.0336  -15.6326   25.3059 C.3     1  UNL1        0.0730
      2 N          -8.7047  -16.8839   24.8222 N.3     1  UNL1       -0.2724
      3 C          -9.6725  -17.7233   25.6024 C.3     1  UNL1        0.0724
      4 C         -10.0918  -18.8737   24.7359 C.3     1  UNL1        0.0214
      5 C         -10.3187  -19.8931   23.6592 C.3     1  UNL1        0.0072
      6 C          -9.3832  -18.7452   23.4201 C.3     1  UNL1        0.0350
      7 C          -8.5259  -17.5155   23.4735 C.3     1  UNL1        0.0761
      8 C          -9.0087  -19.1368   22.0214 C.ar    1  UNL1       -0.0215
      9 C         -10.0556  -19.1755   20.9478 C.ar    1  UNL1       -0.0043
     10 C          -9.6812  -19.5671   19.5489 C.ar    1  UNL1       -0.0004
     11 C          -8.2599  -19.9200   19.2239 C.ar    1  UNL1        0.0038
     12 C          -7.2131  -19.8813   20.2976 C.ar    1  UNL1        0.0711
     13 C          -7.5875  -19.4897   21.6963 C.ar    1  UNL1       -0.0004
     14 C          -5.7919  -20.2341   19.9725 C.3     1  UNL1        0.4186
     15 F          -4.3708  -20.5870   19.6474 F       1  UNL1       -0.1659
     16 F          -5.4966  -18.7898   19.6955 F       1  UNL1       -0.1659
     17 F          -6.0872  -21.6785   20.2494 F       1  UNL1       -0.1659
     18 C          -6.8769  -15.7214   26.2567 C.3     1  UNL1        0.0294
     19 C          -5.4815  -15.8743   25.7280 C.3     1  UNL1        0.0666
     20 S          -5.2081  -15.6809   24.2658 S.3     1  UNL1       -0.0756
     21 C          -2.9292  -17.8270   21.9710 C.ar    1  UNL1        0.2029
     22 N          -3.7447  -18.8900   22.6455 N.ar    1  UNL1       -0.1250
     23 N          -4.6975  -18.2155   23.5872 N.ar    1  UNL1       -0.1220
     24 C          -4.4710  -16.7356   23.4948 C.ar    1  UNL1        0.1933
     25 N          -3.3781  -16.4955   22.4958 N.ar    1  UNL1       -0.2860
     26 C          -2.8303  -15.1586   22.0926 C.3     1  UNL1        0.1341
     27 C          -3.1794  -17.2774   18.7639 C.3     1  UNL1        0.0556
     28 C          -1.9686  -17.8028   19.4767 C.ar    1  UNL1        0.1001
     29 N          -0.6602  -18.1678   18.8403 N.ar    1  UNL1       -0.2085
     30 C           0.2634  -18.6460   19.9212 C.ar    1  UNL1        0.2849
     31 O          -0.4741  -18.5765   21.2254 O.2     1  UNL1       -0.4283
     32 C          -1.8535  -18.0554   20.9507 C.ar    1  UNL1        0.1964
@<TRIPOS>BOND
     1    27    28    1
     2    28    29   ar
     3    29    30   ar
     4    30    31   ar
     5    31    32   ar
     6    32    21    1
     7    21    22   ar
     8    22    23   ar
     9    23    24   ar
    10    24    20    1
    11    20    19    1
    12    19    18    1
    13    18     1    1
    14     1     2    1
    15     2     3    1
    16     3     4    1
    17     4     5    1
    18     5     6    1
    19     6     8    1
    20     8     9   ar
    21     9    10   ar
    22    10    11   ar
    23    11    12   ar
    24    12    14    1
    25    14    15    1
    26    14    16    1
    27    14    17    1
    28    12    13   ar
    29     6     7    1
    30    24    25   ar
    31    25    26    1
    32    32    28   ar
    33    25    21   ar
    34     7     2    1
    35     6     4    1
    36    13     8   ar
@<TRIPOS>MOLECULE
*****
 32 36 0 0 0
SMALL
GASTEIGER

@<TRIPOS>ATOM
      1 C          -8.3670  -15.3745   26.1675 C.3     1  UNL1        0.0730
      2 N          -8.9763  -16.6561   25.6815 N.3     1  UNL1       -0.2724
      3 C          -9.3110  -17.8493   26.5266 C.3     1  UNL1        0.0724
      4 C          -9.8994  -18.9003   25.6326 C.3     1  UNL1        0.0214
      5 C         -10.4415  -19.7383   24.5129 C.3     1  UNL1        0.0072
      6 C          -9.9283  -18.3566   24.2349 C.3     1  UNL1        0.0350
      7 C          -9.3578  -16.9696   24.2651 C.3     1  UNL1        0.0761
      8 C         -10.2025  -18.3812   22.7604 C.ar    1  UNL1       -0.0215
      9 C          -9.6663  -19.4993   21.9164 C.ar    1  UNL1       -0.0043
     10 C          -9.9405  -19.5239   20.4418 C.ar    1  UNL1       -0.0004
     11 C         -10.7509  -18.4305   19.8113 C.ar    1  UNL1        0.0038
     12 C         -11.2872  -17.3124   20.6553 C.ar    1  UNL1        0.0711
     13 C         -11.0130  -17.2877   22.1298 C.ar    1  UNL1       -0.0004
     14 C         -12.0976  -16.2189   20.0248 C.3     1  UNL1        0.4186
     15 F         -12.9080  -15.1255   19.3944 F       1  UNL1       -0.1659
     16 F         -12.8060  -15.9927   21.3276 F       1  UNL1       -0.1659
     17 F         -11.3893  -16.4450   18.7221 F       1  UNL1       -0.1659
     18 C          -6.9295  -15.3421   26.5947 C.3     1  UNL1        0.0294
     19 C          -5.8642  -14.9511   25.6138 C.3     1  UNL1        0.0666
     20 S          -4.9223  -15.9877   25.0766 S.3     1  UNL1       -0.0756
     21 C          -5.1755  -18.2896   21.9618 C.ar    1  UNL1        0.2029
     22 N          -6.5540  -17.6994   21.9988 N.ar    1  UNL1       -0.1250
     23 N          -6.6269  -16.7652   23.1701 N.ar    1  UNL1       -0.1220
     24 C          -5.2936  -16.7781   23.8570 C.ar    1  UNL1        0.1933
     25 N          -4.3966  -17.7203   23.1102 N.ar    1  UNL1       -0.2860
     26 C          -2.9708  -18.0374   23.4520 C.3     1  UNL1        0.1341
     27 C          -2.7493  -17.7824   19.8391 C.3     1  UNL1        0.0556
     28 C          -3.5504  -19.0430   19.9777 C.ar    1  UNL1        0.1001
     29 N          -3.3770  -20.2917   19.1650 N.ar    1  UNL1       -0.2085
     30 C          -4.3850  -21.2966   19.6383 C.ar    1  UNL1        0.2849
     31 O          -5.1814  -20.6690   20.7436 O.2     1  UNL1       -0.4283
     32 C          -4.6656  -19.2761   20.9534 C.ar    1  UNL1        0.1964
@<TRIPOS>BOND
     1    27    28    1
     2    28    29   ar
     3    29    30   ar
     4    30    31   ar
     5    31    32   ar
     6    32    21    1
     7    21    22   ar
     8    22    23   ar
     9    23    24   ar
    10    24    20    1
    11    20    19    1
    12    19    18    1
    13    18     1    1
    14     1     2    1
    15     2     3    1
    16     3     4    1
    17     4     5    1
    18     5     6    1
    19     6     8    1
    20     8     9   ar
    21     9    10   ar
    22    10    11   ar
    23    11    12   ar
    24    12    14    1
    25    14    15    1
    26    14    16    1
    27    14    17    1
    28    12    13   ar
    29     6     7    1
    30    24    25   ar
    31    25    26    1
    32    32    28   ar
    33    25    21   ar
    34     7     2    1
    35     6     4    1
    36    13     8   ar
@<TRIPOS>MOLECULE
*****
 32 36 0 0 0
SMALL
GASTEIGER

@<TRIPOS>ATOM
      1 C         -10.0334  -19.6539   19.6577 C.3     1  UNL1        0.0730
      2 N         -10.6435  -18.8747   20.7849 N.3     1  UNL1       -0.2724
      3 C         -12.0701  -18.4194   20.8713 C.3     1  UNL1        0.0724
      4 C         -12.2425  -17.6774   22.1634 C.3     1  UNL1        0.0214
      5 C         -12.1109  -17.0009   23.4957 C.3     1  UNL1        0.0072
      6 C         -10.9224  -17.6740   22.8757 C.3     1  UNL1        0.0350
      7 C          -9.9342  -18.4139   22.0237 C.3     1  UNL1        0.0761
      8 C          -9.9646  -17.3539   23.9848 C.ar    1  UNL1       -0.0215
      9 C         -10.2326  -17.8519   25.3741 C.ar    1  UNL1       -0.0043
     10 C          -9.2748  -17.5318   26.4833 C.ar    1  UNL1       -0.0004
     11 C          -8.0490  -16.7139   26.2031 C.ar    1  UNL1        0.0038
     12 C          -7.7811  -16.2160   24.8137 C.ar    1  UNL1        0.0711
     13 C          -8.7389  -16.5360   23.7046 C.ar    1  UNL1       -0.0004
     14 C          -6.5553  -15.3980   24.5335 C.3     1  UNL1        0.4186
     15 F          -5.3296  -14.5801   24.2533 F       1  UNL1       -0.1659
     16 F          -7.1225  -15.0043   23.2018 F       1  UNL1       -0.1659
     17 F          -5.9882  -15.7917   25.8652 F       1  UNL1       -0.1659
     18 C          -8.6071  -19.4094   19.2627 C.3     1  UNL1        0.0294
     19 C          -7.5086  -20.2267   19.8753 C.3     1  UNL1        0.0666
     20 S          -6.9823  -19.8762   21.2356 S.3     1  UNL1       -0.0756
     21 C          -3.4032  -18.3889   21.0283 C.ar    1  UNL1        0.2029
     22 N          -4.0008  -17.5548   22.1225 N.ar    1  UNL1       -0.1250
     23 N          -5.4142  -18.0105   22.3334 N.ar    1  UNL1       -0.1220
     24 C          -5.6902  -19.1261   21.3695 C.ar    1  UNL1        0.1933
     25 N          -4.4473  -19.3599   20.5629 N.ar    1  UNL1       -0.2860
     26 C          -4.2784  -20.3850   19.4809 C.3     1  UNL1        0.1341
     27 C          -2.5624  -17.2250   18.0978 C.3     1  UNL1        0.0556
     28 C          -1.6202  -17.7373   19.1465 C.ar    1  UNL1        0.1001
     29 N          -0.1261  -17.8045   19.0322 N.ar    1  UNL1       -0.2085
     30 C           0.4109  -18.3811   20.3087 C.ar    1  UNL1        0.2849
     31 O          -0.7513  -18.6701   21.2117 O.2     1  UNL1       -0.4283
     32 C          -2.0066  -18.2722   20.4934 C.ar    1  UNL1        0.1964
@<TRIPOS>BOND
     1    27    28    1
     2    28    29   ar
     3    29    30   ar
     4    30    31   ar
     5    31    32   ar
     6    32    21    1
     7    21    22   ar
     8    22    23   ar
     9    23    24   ar
    10    24    20    1
    11    20    19    1
    12    19    18    1
    13    18     1    1
    14     1     2    1
    15     2     3    1
    16     3     4    1
    17     4     5    1
    18     5     6    1
    19     6     8    1
    20     8     9   ar
    21     9    10   ar
    22    10    11   ar
    23    11    12   ar
    24    12    14    1
    25    14    15    1
    26    14    16    1
    27    14    17    1
    28    12    13   ar
    29     6     7    1
    30    24    25   ar
    31    25    26    1
    32    32    28   ar
    33    25    21   ar
    34     7     2    1
    35     6     4    1
    36    13     8   ar
@<TRIPOS>MOLECULE
*****
 32 36 0 0 0
SMALL
GASTEIGER

@<TRIPOS>ATOM
      1 C           0.8469    2.5921   23.6435 C.3     1  UNL1        0.0730
      2 N           1.0112    1.6697   22.4721 N.3     1  UNL1       -0.2724
      3 C           0.2883    1.7714   21.1617 C.3     1  UNL1        0.0724
      4 C           0.7576    0.6483   20.2851 C.3     1  UNL1        0.0214
      5 C           1.4063   -0.5483   19.6549 C.3     1  UNL1        0.0072
      6 C           1.7705   -0.1475   21.0537 C.3     1  UNL1        0.0350
      7 C           1.9272    0.4838   22.4053 C.3     1  UNL1        0.0761
      8 C           2.7627   -1.2496   21.2793 C.ar    1  UNL1       -0.0215
      9 C           3.4383   -1.3894   22.6112 C.ar    1  UNL1       -0.0043
     10 C           4.4305   -2.4915   22.8370 C.ar    1  UNL1       -0.0004
     11 C           4.7471   -3.4538   21.7307 C.ar    1  UNL1        0.0038
     12 C           4.0714   -3.3140   20.3987 C.ar    1  UNL1        0.0711
     13 C           3.0792   -2.2119   20.1731 C.ar    1  UNL1       -0.0004
     14 C           4.3880   -4.2763   19.2925 C.3     1  UNL1        0.4186
     15 F           4.7045   -5.2386   18.1863 F       1  UNL1       -0.1659
     16 F           5.8490   -4.1645   19.6133 F       1  UNL1       -0.1659
     17 F           2.9269   -4.3881   18.9717 F       1  UNL1       -0.1659
     18 C           0.3296    2.0627   24.9481 C.3     1  UNL1        0.0294
     19 C          -1.0074    2.5090   25.4614 C.3     1  UNL1        0.0666
     20 S          -1.2502    2.6033   26.9387 S.3     1  UNL1       -0.0756
     21 C           0.8781    0.3875   29.3106 C.ar    1  UNL1        0.2029
     22 N          -0.4017   -0.3929   29.2556 N.ar    1  UNL1       -0.1250
     23 N          -1.3547    0.3421   28.3604 N.ar    1  UNL1       -0.1220
     24 C          -0.6640    1.5768   27.8621 C.ar    1  UNL1        0.1933
     25 N           0.7160    1.6048   28.4494 N.ar    1  UNL1       -0.2860
     26 C           1.7520    2.6643   28.2163 C.3     1  UNL1        0.1341
     27 C           3.5665   -1.0141   28.1032 C.3     1  UNL1        0.0556
     28 C           3.3403   -0.6284   29.5350 C.ar    1  UNL1        0.1001
     29 N           4.3102   -0.8193   30.6633 N.ar    1  UNL1       -0.2085
     30 C           3.6739   -0.2930   31.9155 C.ar    1  UNL1        0.2849
     31 O           2.3108    0.2231   31.5612 O.2     1  UNL1       -0.4283
     32 C           2.1047    0.0158   30.0900 C.ar    1  UNL1        0.1964
@<TRIPOS>BOND
     1    27    28    1
     2    28    29   ar
     3    29    30   ar
     4    30    31   ar
     5    31    32   ar
     6    32    21    1
     7    21    22   ar
     8    22    23   ar
     9    23    24   ar
    10    24    20    1
    11    20    19    1
    12    19    18    1
    13    18     1    1
    14     1     2    1
    15     2     3    1
    16     3     4    1
    17     4     5    1
    18     5     6    1
    19     6     8    1
    20     8     9   ar
    21     9    10   ar
    22    10    11   ar
    23    11    12   ar
    24    12    14    1
    25    14    15    1
    26    14    16    1
    27    14    17    1
    28    12    13   ar
    29     6     7    1
    30    24    25   ar
    31    25    26    1
    32    32    28   ar
    33    25    21   ar
    34     7     2    1
    35     6     4    1
    36    13     8   ar
@<TRIPOS>MOLECULE
*****
 32 36 0 0 0
SMALL
GASTEIGER

@<TRIPOS>ATOM
      1 C           7.0561   -3.5493   25.6203 C.3     1  UNL1        0.0730
      2 N           5.8962   -2.7257   25.1447 N.3     1  UNL1       -0.2724
      3 C           5.0897   -1.7746   25.9783 C.3     1  UNL1        0.0724
      4 C           4.0341   -1.1696   25.1008 C.3     1  UNL1        0.0214
      5 C           3.1067   -0.7449   24.0010 C.3     1  UNL1        0.0072
      6 C           4.1883   -1.7468   23.7250 C.3     1  UNL1        0.0350
      7 C           5.3392   -2.7086   23.7521 C.3     1  UNL1        0.0761
      8 C           3.8574   -1.9392   22.2746 C.ar    1  UNL1       -0.0215
      9 C           3.0833   -0.8878   21.5362 C.ar    1  UNL1       -0.0043
     10 C           2.7523   -1.0801   20.0858 C.ar    1  UNL1       -0.0004
     11 C           3.1956   -2.3238   19.3739 C.ar    1  UNL1        0.0038
     12 C           3.9698   -3.3752   20.1124 C.ar    1  UNL1        0.0711
     13 C           4.3007   -3.1829   21.5628 C.ar    1  UNL1       -0.0004
     14 C           4.4130   -4.6190   19.4005 C.3     1  UNL1        0.4186
     15 F           4.8562   -5.8626   18.6887 F       1  UNL1       -0.1659
     16 F           5.4443   -3.8248   18.6551 F       1  UNL1       -0.1659
     17 F           3.3816   -5.4132   20.1459 F       1  UNL1       -0.1659
     18 C           6.8865   -5.0220   25.8492 C.3     1  UNL1        0.0294
     19 C           6.5079   -5.5311   27.2084 C.3     1  UNL1        0.0666
     20 S           7.5331   -5.5827   28.3023 S.3     1  UNL1       -0.0756
     21 C           6.4112   -3.9793   31.6542 C.ar    1  UNL1        0.2029
     22 N           6.7014   -5.3854   32.0883 N.ar    1  UNL1       -0.1250
     23 N           7.1569   -6.1572   30.8856 N.ar    1  UNL1       -0.1220
     24 C           7.1483   -5.2281   29.7081 C.ar    1  UNL1        0.1933
     25 N           6.6874   -3.8820   30.1831 N.ar    1  UNL1       -0.2860
     26 C           6.5303   -2.6543   29.3357 C.3     1  UNL1        0.1341
     27 C           8.1388   -1.3615   32.5556 C.3     1  UNL1        0.0556
     28 C           6.7233   -1.6626   32.9506 C.ar    1  UNL1        0.1001
     29 N           5.8536   -0.8133   33.8294 N.ar    1  UNL1       -0.2085
     30 C           4.5220   -1.4917   33.9581 C.ar    1  UNL1        0.2849
     31 O           4.5687   -2.7601   33.1590 O.2     1  UNL1       -0.4283
     32 C           5.9293   -2.8658   32.5363 C.ar    1  UNL1        0.1964
@<TRIPOS>BOND
     1    27    28    1
     2    28    29   ar
     3    29    30   ar
     4    30    31   ar
     5    31    32   ar
     6    32    21    1
     7    21    22   ar
     8    22    23   ar
     9    23    24   ar
    10    24    20    1
    11    20    19    1
    12    19    18    1
    13    18     1    1
    14     1     2    1
    15     2     3    1
    16     3     4    1
    17     4     5    1
    18     5     6    1
    19     6     8    1
    20     8     9   ar
    21     9    10   ar
    22    10    11   ar
    23    11    12   ar
    24    12    14    1
    25    14    15    1
    26    14    16    1
    27    14    17    1
    28    12    13   ar
    29     6     7    1
    30    24    25   ar
    31    25    26    1
    32    32    28   ar
    33    25    21   ar
    34     7     2    1
    35     6     4    1
    36    13     8   ar
