@<TRIPOS>MOLECULE
*****
 36 39 0 0 0
SMALL
GASTEIGER

@<TRIPOS>ATOM
      1 N           0.4571    3.5680   23.1516 N.am    1  UNL1       -0.2533
      2 C           0.7913    2.7611   24.3710 C.2     1  UNL1        0.3092
      3 O          -0.2011    1.7756   24.9134 O.2     1  UNL1       -0.2521
      4 N           2.1178    2.9395   25.0482 N.am    1  UNL1       -0.2680
      5 H           1.1085    4.2148   22.7956 H       1  UNL1        0.1578
      6 H           2.7691    3.5863   24.6923 H       1  UNL1        0.1564
      7 C           2.4519    2.1325   26.2677 C.ar    1  UNL1        0.0516
      8 C           2.9003    0.7083   26.1248 C.ar    1  UNL1        0.0148
      9 C           3.2344   -0.0987   27.3443 C.ar    1  UNL1        0.0043
     10 C           3.1202    0.5185   28.7066 C.ar    1  UNL1        0.0360
     11 C           2.6718    1.9428   28.8495 C.ar    1  UNL1        0.0043
     12 C           2.3377    2.7497   27.6300 C.ar    1  UNL1        0.0148
     13 C           3.4543   -0.2885   29.9261 C.ar    1  UNL1        0.1668
     14 N           2.4771   -0.7829   30.9512 N.ar    1  UNL1       -0.1282
     15 N           3.2431   -1.5427   31.9932 N.ar    1  UNL1       -0.1224
     16 C           4.6937   -1.5179   31.6122 C.ar    1  UNL1        0.1896
     17 S           5.8167   -2.1562   32.3748 S.3     1  UNL1       -0.1034
     18 N           4.8242   -0.7428   30.3346 N.ar    1  UNL1       -0.2886
     19 C           6.1005   -0.4698   29.5954 C.3     1  UNL1        0.1340
     20 H           5.3208   -2.7717   33.4815 H       1  UNL1        0.1101
     21 N          -1.1107    2.6592   21.1866 N.ar    1  UNL1       -0.2162
     22 N          -2.5779    2.7284   20.8825 N.ar    1  UNL1       -0.1683
     23 C          -3.2433    3.5015   21.9822 C.ar    1  UNL1        0.0810
     24 C          -2.1874    3.9101   22.9661 C.ar    1  UNL1        0.0509
     25 C          -0.8694    3.3895   22.4744 C.ar    1  UNL1        0.1380
     26 C           3.0604   -0.0612   17.8398 C.3     1  UNL1        0.0310
     27 C           2.0176    0.6189   18.6765 C.ar    1  UNL1       -0.0218
     28 C           1.2213   -0.1721   19.6716 C.ar    1  UNL1       -0.0027
     29 C           0.1786    0.5080   20.5083 C.ar    1  UNL1        0.0189
     30 C          -0.0679    1.9791   20.3499 C.ar    1  UNL1        0.0842
     31 C           0.7284    2.7701   19.3548 C.ar    1  UNL1        0.0189
     32 C           1.7712    2.0899   18.5181 C.ar    1  UNL1       -0.0027
     33 C          -4.7076    3.8115   22.0808 C.3     1  UNL1        0.0372
     34 C          -4.6578    4.4743   20.7361 C.3     1  UNL1        0.0060
     35 C          -4.7574    3.1488   23.4255 C.3     1  UNL1        0.0060
     36 C          -6.1719    4.1216   22.1794 C.3     1  UNL1        0.0060
@<TRIPOS>BOND
     1    26    27    1
     2    27    28   ar
     3    28    29   ar
     4    29    30   ar
     5    30    21    1
     6    21    22   ar
     7    22    23   ar
     8    23    33    1
     9    33    34    1
    10    33    35    1
    11    33    36    1
    12    23    24   ar
    13    24    25   ar
    14    25     1    1
    15     1     2   am
    16     2     3    2
    17     2     4   am
    18     4     7    1
    19     7     8   ar
    20     8     9   ar
    21     9    10   ar
    22    10    13    1
    23    13    14   ar
    24    14    15   ar
    25    15    16   ar
    26    16    17    1
    27    16    18   ar
    28    18    19    1
    29    10    11   ar
    30    11    12   ar
    31    30    31   ar
    32    31    32   ar
    33    32    27   ar
    34    25    21   ar
    35    12     7   ar
    36    18    13   ar
    37     1     5    1
    38     4     6    1
    39    17    20    1
@<TRIPOS>MOLECULE
*****
 36 39 0 0 0
SMALL
GASTEIGER

@<TRIPOS>ATOM
      1 N           3.3906    0.2880   22.2597 N.am    1  UNL1       -0.2533
      2 C           2.0408    0.8159   22.6459 C.2     1  UNL1        0.3092
      3 O           0.8272    0.4201   21.8581 O.2     1  UNL1       -0.2521
      4 N           1.9044    1.7396   23.8198 N.am    1  UNL1       -0.2680
      5 H           4.1871    0.5478   22.7767 H       1  UNL1        0.1578
      6 H           2.7009    1.9994   24.3369 H       1  UNL1        0.1564
      7 C           0.5545    2.2675   24.2060 C.ar    1  UNL1        0.0516
      8 C          -0.1886    3.1792   23.2751 C.ar    1  UNL1        0.0148
      9 C          -1.5385    3.7071   23.6613 C.ar    1  UNL1        0.0043
     10 C          -2.1453    3.3233   24.9782 C.ar    1  UNL1        0.0360
     11 C          -1.4022    2.4115   25.9091 C.ar    1  UNL1        0.0043
     12 C          -0.0523    1.8837   25.5229 C.ar    1  UNL1        0.0148
     13 C          -3.4952    3.8512   25.3644 C.ar    1  UNL1        0.1668
     14 N          -4.8123    3.3926   24.8119 N.ar    1  UNL1       -0.1282
     15 N          -5.8961    4.1883   25.4769 N.ar    1  UNL1       -0.1224
     16 C          -5.2489    5.1386   26.4403 C.ar    1  UNL1        0.1896
     17 S          -5.9606    6.1243   27.3189 S.3     1  UNL1       -0.1034
     18 N          -3.7650    4.9302   26.3707 N.ar    1  UNL1       -0.2886
     19 C          -2.7324    5.6709   27.1676 C.3     1  UNL1        0.1340
     20 H          -7.3015    6.0302   27.1123 H       1  UNL1        0.1101
     21 N           3.1940   -0.3058   19.6609 N.ar    1  UNL1       -0.2162
     22 N           3.4815   -1.5177   18.8251 N.ar    1  UNL1       -0.1683
     23 C           3.9922   -2.5967   19.7335 C.ar    1  UNL1        0.0810
     24 C           4.0203   -2.0516   21.1306 C.ar    1  UNL1        0.0509
     25 C           3.5270   -0.6357   21.0857 C.ar    1  UNL1        0.1380
     26 C           1.0828    4.9406   17.6564 C.3     1  UNL1        0.0310
     27 C           1.6106    3.6290   18.1575 C.ar    1  UNL1       -0.0218
     28 C           3.0373    3.5171   18.6070 C.ar    1  UNL1       -0.0027
     29 C           3.5651    2.2055   19.1081 C.ar    1  UNL1        0.0189
     30 C           2.6662    1.0058   19.1598 C.ar    1  UNL1        0.0842
     31 C           1.2396    1.1177   18.7103 C.ar    1  UNL1        0.0189
     32 C           0.7118    2.4293   18.2092 C.ar    1  UNL1       -0.0027
     33 C           4.4027   -3.9782   19.3176 C.3     1  UNL1        0.0372
     34 C           2.9740   -4.3073   19.0007 C.3     1  UNL1        0.0060
     35 C           5.8314   -3.6491   19.6346 C.3     1  UNL1        0.0060
     36 C           4.8132   -5.3597   18.9018 C.3     1  UNL1        0.0060
@<TRIPOS>BOND
     1    26    27    1
     2    27    28   ar
     3    28    29   ar
     4    29    30   ar
     5    30    21    1
     6    21    22   ar
     7    22    23   ar
     8    23    33    1
     9    33    34    1
    10    33    35    1
    11    33    36    1
    12    23    24   ar
    13    24    25   ar
    14    25     1    1
    15     1     2   am
    16     2     3    2
    17     2     4   am
    18     4     7    1
    19     7     8   ar
    20     8     9   ar
    21     9    10   ar
    22    10    13    1
    23    13    14   ar
    24    14    15   ar
    25    15    16   ar
    26    16    17    1
    27    16    18   ar
    28    18    19    1
    29    10    11   ar
    30    11    12   ar
    31    30    31   ar
    32    31    32   ar
    33    32    27   ar
    34    25    21   ar
    35    12     7   ar
    36    18    13   ar
    37     1     5    1
    38     4     6    1
    39    17    20    1
@<TRIPOS>MOLECULE
*****
 36 39 0 0 0
SMALL
GASTEIGER

@<TRIPOS>ATOM
      1 N           2.3575    1.4156   21.1420 N.am    1  UNL1       -0.2533
      2 C           0.9269    1.6886   20.7833 C.2     1  UNL1        0.3092
      3 O          -0.0051    0.5488   20.4963 O.2     1  UNL1       -0.2521
      4 N           0.4281    3.1014   20.7115 N.am    1  UNL1       -0.2680
      5 H           2.9691    2.1637   21.3304 H       1  UNL1        0.1578
      6 H           1.0397    3.8495   20.8998 H       1  UNL1        0.1564
      7 C          -1.0025    3.3744   20.3527 C.ar    1  UNL1        0.0516
      8 C          -1.3618    3.7709   18.9514 C.ar    1  UNL1        0.0148
      9 C          -2.7925    4.0439   18.5927 C.ar    1  UNL1        0.0043
     10 C          -3.8639    3.9204   19.6352 C.ar    1  UNL1        0.0360
     11 C          -3.5045    3.5239   21.0365 C.ar    1  UNL1        0.0043
     12 C          -2.0739    3.2509   21.3952 C.ar    1  UNL1        0.0148
     13 C          -5.2945    4.1934   19.2764 C.ar    1  UNL1        0.1668
     14 N          -6.2565    3.2102   18.6781 N.ar    1  UNL1       -0.1282
     15 N          -7.5709    3.9066   18.4849 N.ar    1  UNL1       -0.1224
     16 C          -7.4212    5.3202   18.9638 C.ar    1  UNL1        0.1896
     17 S          -8.4907    6.3720   18.9551 S.3     1  UNL1       -0.1034
     18 N          -6.0143    5.4975   19.4530 N.ar    1  UNL1       -0.2886
     19 C          -5.4299    6.7575   20.0193 C.3     1  UNL1        0.1340
     20 H          -9.6363    5.8494   18.4410 H       1  UNL1        0.1101
     21 N           3.0761   -0.7921   22.4668 N.ar    1  UNL1       -0.2162
     22 N           3.5785   -2.1493   22.0725 N.ar    1  UNL1       -0.1683
     23 C           3.6692   -2.1934   20.5759 C.ar    1  UNL1        0.0810
     24 C           3.2228   -0.8633   20.0452 C.ar    1  UNL1        0.0509
     25 C           2.8563    0.0027   21.2138 C.ar    1  UNL1        0.1380
     26 C           2.1146    1.1216   28.0715 C.3     1  UNL1        0.0310
     27 C           2.3550    0.6432   26.6703 C.ar    1  UNL1       -0.0218
     28 C           3.4553   -0.3371   26.3909 C.ar    1  UNL1       -0.0027
     29 C           3.6957   -0.8155   24.9897 C.ar    1  UNL1        0.0189
     30 C           2.8357   -0.3136   23.8679 C.ar    1  UNL1        0.0842
     31 C           1.7354    0.6667   24.1473 C.ar    1  UNL1        0.0189
     32 C           1.4950    1.1451   25.5485 C.ar    1  UNL1       -0.0027
     33 C           4.1260   -3.3622   19.7543 C.3     1  UNL1        0.0372
     34 C           4.0180   -2.5303   18.5108 C.3     1  UNL1        0.0060
     35 C           4.2339   -4.1941   20.9978 C.3     1  UNL1        0.0060
     36 C           4.5828   -4.5311   18.9327 C.3     1  UNL1        0.0060
@<TRIPOS>BOND
     1    26    27    1
     2    27    28   ar
     3    28    29   ar
     4    29    30   ar
     5    30    21    1
     6    21    22   ar
     7    22    23   ar
     8    23    33    1
     9    33    34    1
    10    33    35    1
    11    33    36    1
    12    23    24   ar
    13    24    25   ar
    14    25     1    1
    15     1     2   am
    16     2     3    2
    17     2     4   am
    18     4     7    1
    19     7     8   ar
    20     8     9   ar
    21     9    10   ar
    22    10    13    1
    23    13    14   ar
    24    14    15   ar
    25    15    16   ar
    26    16    17    1
    27    16    18   ar
    28    18    19    1
    29    10    11   ar
    30    11    12   ar
    31    30    31   ar
    32    31    32   ar
    33    32    27   ar
    34    25    21   ar
    35    12     7   ar
    36    18    13   ar
    37     1     5    1
    38     4     6    1
    39    17    20    1
@<TRIPOS>MOLECULE
*****
 36 39 0 0 0
SMALL
GASTEIGER

@<TRIPOS>ATOM
      1 N           3.4236    0.5119   22.1596 N.am    1  UNL1       -0.2533
      2 C           2.0410    1.0240   22.4351 C.2     1  UNL1        0.3092
      3 O           0.8967    0.6009   21.5622 O.2     1  UNL1       -0.2521
      4 N           1.8024    1.9591   23.5834 N.am    1  UNL1       -0.2680
      5 H           4.1746    0.7896   22.7324 H       1  UNL1        0.1578
      6 H           2.5533    2.2368   24.1563 H       1  UNL1        0.1564
      7 C           0.4197    2.4711   23.8589 C.ar    1  UNL1        0.0516
      8 C          -0.2749    2.1050   25.1369 C.ar    1  UNL1        0.0148
      9 C          -1.6576    2.6170   25.4124 C.ar    1  UNL1        0.0043
     10 C          -2.3458    3.4952   24.4099 C.ar    1  UNL1        0.0360
     11 C          -1.6512    3.8614   23.1318 C.ar    1  UNL1        0.0043
     12 C          -0.2685    3.3493   22.8563 C.ar    1  UNL1        0.0148
     13 C          -3.7285    4.0072   24.6853 C.ar    1  UNL1        0.1668
     14 N          -4.1616    4.7641   25.9058 N.ar    1  UNL1       -0.1282
     15 N          -5.6217    5.0769   25.7635 N.ar    1  UNL1       -0.1224
     16 C          -6.0910    4.5134   24.4550 C.ar    1  UNL1        0.1896
     17 S          -7.4856    4.5964   23.9088 S.3     1  UNL1       -0.1034
     18 N          -4.9210    3.8523   23.7886 N.ar    1  UNL1       -0.2886
     19 C          -4.9401    3.1581   22.4591 C.3     1  UNL1        0.1340
     20 H          -8.2772    5.2685   24.7870 H       1  UNL1        0.1101
     21 N           3.6865   -0.0481   19.5591 N.ar    1  UNL1       -0.2162
     22 N           3.9577   -1.2907   18.7639 N.ar    1  UNL1       -0.1683
     23 C           4.1009   -2.4338   19.7246 C.ar    1  UNL1        0.0810
     24 C           3.9182   -1.8977   21.1135 C.ar    1  UNL1        0.0509
     25 C           3.6621   -0.4232   21.0112 C.ar    1  UNL1        0.1380
     26 C           2.8469    5.4564   17.3239 C.3     1  UNL1        0.0310
     27 C           3.0568    4.0802   17.8827 C.ar    1  UNL1       -0.0218
     28 C           1.8757    3.2304   18.2468 C.ar    1  UNL1       -0.0027
     29 C           2.0856    1.8543   18.8056 C.ar    1  UNL1        0.0189
     30 C           3.4766    1.3280   19.0003 C.ar    1  UNL1        0.0842
     31 C           4.6578    2.1779   18.6362 C.ar    1  UNL1        0.0189
     32 C           4.4479    3.5540   18.0774 C.ar    1  UNL1       -0.0027
     33 C           4.3780   -3.8622   19.3602 C.3     1  UNL1        0.0372
     34 C           5.8215   -3.6745   19.7222 C.3     1  UNL1        0.0060
     35 C           2.9345   -4.0500   18.9982 C.3     1  UNL1        0.0060
     36 C           4.6552   -5.2907   18.9958 C.3     1  UNL1        0.0060
@<TRIPOS>BOND
     1    26    27    1
     2    27    28   ar
     3    28    29   ar
     4    29    30   ar
     5    30    21    1
     6    21    22   ar
     7    22    23   ar
     8    23    33    1
     9    33    34    1
    10    33    35    1
    11    33    36    1
    12    23    24   ar
    13    24    25   ar
    14    25     1    1
    15     1     2   am
    16     2     3    2
    17     2     4   am
    18     4     7    1
    19     7     8   ar
    20     8     9   ar
    21     9    10   ar
    22    10    13    1
    23    13    14   ar
    24    14    15   ar
    25    15    16   ar
    26    16    17    1
    27    16    18   ar
    28    18    19    1
    29    10    11   ar
    30    11    12   ar
    31    30    31   ar
    32    31    32   ar
    33    32    27   ar
    34    25    21   ar
    35    12     7   ar
    36    18    13   ar
    37     1     5    1
    38     4     6    1
    39    17    20    1
@<TRIPOS>MOLECULE
*****
 36 39 0 0 0
SMALL
GASTEIGER

@<TRIPOS>ATOM
      1 N          -1.2100    3.9099   24.3686 N.am    1  UNL1       -0.2533
      2 C          -0.4896    3.1137   25.4158 C.2     1  UNL1        0.3092
      3 O           0.1611    1.8118   25.0526 O.2     1  UNL1       -0.2521
      4 N          -0.4198    3.6191   26.8264 N.am    1  UNL1       -0.2680
      5 H          -1.6371    4.7643   24.6070 H       1  UNL1        0.1578
      6 H          -0.8469    4.4735   27.0649 H       1  UNL1        0.1564
      7 C           0.3007    2.8227   27.8736 C.ar    1  UNL1        0.0516
      8 C           1.7047    3.1852   28.2576 C.ar    1  UNL1        0.0148
      9 C           2.4251    2.3888   29.3049 C.ar    1  UNL1        0.0043
     10 C           1.7417    1.2300   29.9682 C.ar    1  UNL1        0.0360
     11 C           0.3377    0.8676   29.5842 C.ar    1  UNL1        0.0043
     12 C          -0.3828    1.6639   28.5369 C.ar    1  UNL1        0.0148
     13 C           2.4622    0.4337   31.0154 C.ar    1  UNL1        0.1668
     14 N           2.6750   -1.0511   31.0028 N.ar    1  UNL1       -0.1282
     15 N           3.4407   -1.4201   32.2387 N.ar    1  UNL1       -0.1224
     16 C           3.7011   -0.1635   33.0152 C.ar    1  UNL1        0.1896
     17 S           4.4370   -0.0691   34.3189 S.3     1  UNL1       -0.1034
     18 N           3.0963    0.9823   32.2591 N.ar    1  UNL1       -0.2886
     19 C           3.1213    2.4236   32.6740 C.3     1  UNL1        0.1340
     20 H           4.8413   -1.3097   34.7021 H       1  UNL1        0.1101
     21 N          -2.5234    3.2703   22.1301 N.ar    1  UNL1       -0.2162
     22 N          -2.1304    2.7275   20.7881 N.ar    1  UNL1       -0.1683
     23 C          -0.6440    2.5261   20.7867 C.ar    1  UNL1        0.0810
     24 C          -0.1183    2.9446   22.1278 C.ar    1  UNL1        0.0509
     25 C          -1.2798    3.4045   22.9580 C.ar    1  UNL1        0.1380
     26 C          -8.0919    4.6610   23.8789 C.3     1  UNL1        0.0310
     27 C          -6.6997    4.3133   23.4417 C.ar    1  UNL1       -0.0218
     28 C          -6.3123    4.4436   21.9985 C.ar    1  UNL1       -0.0027
     29 C          -4.9202    4.0960   21.5613 C.ar    1  UNL1        0.0189
     30 C          -3.9155    3.6180   22.5673 C.ar    1  UNL1        0.0842
     31 C          -4.3029    3.4877   24.0105 C.ar    1  UNL1        0.0189
     32 C          -5.6950    3.8353   24.4477 C.ar    1  UNL1       -0.0027
     33 C           0.1732    1.9989   19.6447 C.3     1  UNL1        0.0372
     34 C           0.2933    0.6760   20.3414 C.3     1  UNL1        0.0060
     35 C           0.0532    3.3218   18.9480 C.3     1  UNL1        0.0060
     36 C           0.9905    1.4717   18.5027 C.3     1  UNL1        0.0060
@<TRIPOS>BOND
     1    26    27    1
     2    27    28   ar
     3    28    29   ar
     4    29    30   ar
     5    30    21    1
     6    21    22   ar
     7    22    23   ar
     8    23    33    1
     9    33    34    1
    10    33    35    1
    11    33    36    1
    12    23    24   ar
    13    24    25   ar
    14    25     1    1
    15     1     2   am
    16     2     3    2
    17     2     4   am
    18     4     7    1
    19     7     8   ar
    20     8     9   ar
    21     9    10   ar
    22    10    13    1
    23    13    14   ar
    24    14    15   ar
    25    15    16   ar
    26    16    17    1
    27    16    18   ar
    28    18    19    1
    29    10    11   ar
    30    11    12   ar
    31    30    31   ar
    32    31    32   ar
    33    32    27   ar
    34    25    21   ar
    35    12     7   ar
    36    18    13   ar
    37     1     5    1
    38     4     6    1
    39    17    20    1
@<TRIPOS>MOLECULE
*****
 36 39 0 0 0
SMALL
GASTEIGER

@<TRIPOS>ATOM
      1 N           2.0902    1.9225   25.7926 N.am    1  UNL1       -0.2533
      2 C           0.6615    2.1895   25.4221 C.2     1  UNL1        0.3092
      3 O          -0.1063    1.1810   24.6198 O.2     1  UNL1       -0.2521
      4 N           0.0004    3.4649   25.8536 N.am    1  UNL1       -0.2680
      5 H           2.5941    2.5845   26.3191 H       1  UNL1        0.1578
      6 H           0.5043    4.1268   26.3802 H       1  UNL1        0.1564
      7 C          -1.4284    3.7318   25.4830 C.ar    1  UNL1        0.0516
      8 C          -2.5129    3.5606   26.5051 C.ar    1  UNL1        0.0148
      9 C          -3.9416    3.8275   26.1345 C.ar    1  UNL1        0.0043
     10 C          -4.2860    4.2656   24.7418 C.ar    1  UNL1        0.0360
     11 C          -3.2015    4.4367   23.7198 C.ar    1  UNL1        0.0043
     12 C          -1.7727    4.1698   24.0904 C.ar    1  UNL1        0.0148
     13 C          -5.7148    4.5324   24.3712 C.ar    1  UNL1        0.1668
     14 N          -6.4400    3.9625   23.1883 N.ar    1  UNL1       -0.1282
     15 N          -7.8426    4.4939   23.2045 N.ar    1  UNL1       -0.1224
     16 C          -7.9842    5.3923   24.3973 C.ar    1  UNL1        0.1896
     17 S          -9.2234    6.1363   24.7986 S.3     1  UNL1       -0.1034
     18 N          -6.6691    5.4161   25.1184 N.ar    1  UNL1       -0.2886
     19 C          -6.3623    6.1880   26.3674 C.3     1  UNL1        0.1340
     20 H         -10.2178    5.8739   23.9088 H       1  UNL1        0.1101
     21 N           3.3404   -0.3916   26.2688 N.ar    1  UNL1       -0.2162
     22 N           3.8925   -1.4942   25.4147 N.ar    1  UNL1       -0.1683
     23 C           3.6448   -1.1368   23.9791 C.ar    1  UNL1        0.0810
     24 C           2.9395    0.1866   23.9459 C.ar    1  UNL1        0.0509
     25 C           2.7513    0.6471   25.3611 C.ar    1  UNL1        0.1380
     26 C           3.4658   -0.1747   32.2636 C.3     1  UNL1        0.0310
     27 C           3.4344   -0.2289   30.7649 C.ar    1  UNL1       -0.0218
     28 C           2.1280   -0.3984   30.0477 C.ar    1  UNL1       -0.0027
     29 C           2.0966   -0.4526   28.5490 C.ar    1  UNL1        0.0189
     30 C           3.3717   -0.3374   27.7675 C.ar    1  UNL1        0.0842
     31 C           4.6782   -0.1679   28.4847 C.ar    1  UNL1        0.0189
     32 C           4.7095   -0.1137   29.9834 C.ar    1  UNL1       -0.0027
     33 C           4.0340   -1.9586   22.7861 C.3     1  UNL1        0.0372
     34 C           4.9151   -2.8048   23.6565 C.3     1  UNL1        0.0060
     35 C           3.1529   -1.1124   21.9157 C.3     1  UNL1        0.0060
     36 C           4.4232   -2.7804   21.5932 C.3     1  UNL1        0.0060
@<TRIPOS>BOND
     1    26    27    1
     2    27    28   ar
     3    28    29   ar
     4    29    30   ar
     5    30    21    1
     6    21    22   ar
     7    22    23   ar
     8    23    33    1
     9    33    34    1
    10    33    35    1
    11    33    36    1
    12    23    24   ar
    13    24    25   ar
    14    25     1    1
    15     1     2   am
    16     2     3    2
    17     2     4   am
    18     4     7    1
    19     7     8   ar
    20     8     9   ar
    21     9    10   ar
    22    10    13    1
    23    13    14   ar
    24    14    15   ar
    25    15    16   ar
    26    16    17    1
    27    16    18   ar
    28    18    19    1
    29    10    11   ar
    30    11    12   ar
    31    30    31   ar
    32    31    32   ar
    33    32    27   ar
    34    25    21   ar
    35    12     7   ar
    36    18    13   ar
    37     1     5    1
    38     4     6    1
    39    17    20    1
@<TRIPOS>MOLECULE
*****
 36 39 0 0 0
SMALL
GASTEIGER

@<TRIPOS>ATOM
      1 N           1.9019    2.1724   22.3877 N.am    1  UNL1       -0.2533
      2 C           0.4391    2.4912   22.4783 C.2     1  UNL1        0.3092
      3 O          -0.5481    1.7265   21.6472 O.2     1  UNL1       -0.2521
      4 N          -0.0367    3.5748   23.4000 N.am    1  UNL1       -0.2680
      5 H           2.5498    2.6743   22.9332 H       1  UNL1        0.1578
      6 H           0.6111    4.0767   23.9455 H       1  UNL1        0.1564
      7 C          -1.4997    3.8936   23.4905 C.ar    1  UNL1        0.0516
      8 C          -2.3223    3.3293   24.6107 C.ar    1  UNL1        0.0148
      9 C          -3.7853    3.6482   24.7012 C.ar    1  UNL1        0.0043
     10 C          -4.4256    4.5313   23.6716 C.ar    1  UNL1        0.0360
     11 C          -3.6029    5.0955   22.5514 C.ar    1  UNL1        0.0043
     12 C          -2.1400    4.7767   22.4609 C.ar    1  UNL1        0.0148
     13 C          -5.8885    4.8501   23.7621 C.ar    1  UNL1        0.1668
     14 N          -6.9935    4.1313   23.0464 N.ar    1  UNL1       -0.1282
     15 N          -8.2912    4.7806   23.4262 N.ar    1  UNL1       -0.1224
     16 C          -7.9882    5.9008   24.3767 C.ar    1  UNL1        0.1896
     17 S          -8.9937    6.8171   25.0087 S.3     1  UNL1       -0.1034
     18 N          -6.5032    5.9437   24.5844 N.ar    1  UNL1       -0.2886
     19 C          -5.7630    6.9105   25.4604 C.3     1  UNL1        0.1340
     20 H         -10.2421    6.4796   24.5878 H       1  UNL1        0.1101
     21 N           2.3933    1.1499   19.9674 N.ar    1  UNL1       -0.2162
     22 N           2.9468   -0.1472   19.4564 N.ar    1  UNL1       -0.1683
     23 C           3.2733   -1.0100   20.6392 C.ar    1  UNL1        0.0810
     24 C           2.9216   -0.2460   21.8813 C.ar    1  UNL1        0.0509
     25 C           2.3778    1.0888   21.4661 C.ar    1  UNL1        0.1380
     26 C           0.5631    5.7712   16.6068 C.3     1  UNL1        0.0310
     27 C           1.0207    4.6159   17.4469 C.ar    1  UNL1       -0.0218
     28 C           2.4065    4.6083   18.0209 C.ar    1  UNL1       -0.0027
     29 C           2.8640    3.4530   18.8610 C.ar    1  UNL1        0.0189
     30 C           1.9358    2.3052   19.1272 C.ar    1  UNL1        0.0842
     31 C           0.5500    2.3128   18.5533 C.ar    1  UNL1        0.0189
     32 C           0.0924    3.4681   17.7132 C.ar    1  UNL1       -0.0027
     33 C           3.8501   -2.3937   20.5888 C.3     1  UNL1        0.0372
     34 C           3.6070   -2.4412   19.1094 C.3     1  UNL1        0.0060
     35 C           4.0933   -2.3462   22.0682 C.3     1  UNL1        0.0060
     36 C           4.4270   -3.7774   20.5384 C.3     1  UNL1        0.0060
@<TRIPOS>BOND
     1    26    27    1
     2    27    28   ar
     3    28    29   ar
     4    29    30   ar
     5    30    21    1
     6    21    22   ar
     7    22    23   ar
     8    23    33    1
     9    33    34    1
    10    33    35    1
    11    33    36    1
    12    23    24   ar
    13    24    25   ar
    14    25     1    1
    15     1     2   am
    16     2     3    2
    17     2     4   am
    18     4     7    1
    19     7     8   ar
    20     8     9   ar
    21     9    10   ar
    22    10    13    1
    23    13    14   ar
    24    14    15   ar
    25    15    16   ar
    26    16    17    1
    27    16    18   ar
    28    18    19    1
    29    10    11   ar
    30    11    12   ar
    31    30    31   ar
    32    31    32   ar
    33    32    27   ar
    34    25    21   ar
    35    12     7   ar
    36    18    13   ar
    37     1     5    1
    38     4     6    1
    39    17    20    1
@<TRIPOS>MOLECULE
*****
 36 39 0 0 0
SMALL
GASTEIGER

@<TRIPOS>ATOM
      1 N           4.3830    0.4920   21.9490 N.am    1  UNL1       -0.2533
      2 C           3.8148    0.5520   23.3358 C.2     1  UNL1        0.3092
      3 O           2.8754   -0.5177   23.8084 O.2     1  UNL1       -0.2521
      4 N           4.1859    1.6817   24.2502 N.am    1  UNL1       -0.2680
      5 H           4.9995    1.1942   21.6388 H       1  UNL1        0.1578
      6 H           4.8024    2.3838   23.9401 H       1  UNL1        0.1564
      7 C           3.6176    1.7416   25.6371 C.ar    1  UNL1        0.0516
      8 C           4.2511    0.9493   26.7421 C.ar    1  UNL1        0.0148
      9 C           3.6828    1.0092   28.1290 C.ar    1  UNL1        0.0043
     10 C           2.4811    1.8614   28.4110 C.ar    1  UNL1        0.0360
     11 C           1.8476    2.6538   27.3060 C.ar    1  UNL1        0.0043
     12 C           2.4159    2.5939   25.9191 C.ar    1  UNL1        0.0148
     13 C           1.9128    1.9214   29.7979 C.ar    1  UNL1        0.1668
     14 N           0.6509    1.2573   30.2631 N.ar    1  UNL1       -0.1282
     15 N           0.4649    1.5814   31.7158 N.ar    1  UNL1       -0.1224
     16 C           1.6119    2.4458   32.1484 C.ar    1  UNL1        0.1896
     17 S           1.8263    3.0024   33.5247 S.3     1  UNL1       -0.1034
     18 N           2.5068    2.6559   30.9630 N.ar    1  UNL1       -0.2886
     19 C           3.7733    3.4595   30.9459 C.3     1  UNL1        0.1340
     20 H           0.8124    2.6029   34.3383 H       1  UNL1        0.1101
     21 N           2.8335   -0.6705   20.1071 N.ar    1  UNL1       -0.2162
     22 N           2.8474   -1.9859   19.3864 N.ar    1  UNL1       -0.1683
     23 C           4.0344   -2.7661   19.8685 C.ar    1  UNL1        0.0810
     24 C           4.7541   -1.9328   20.8871 C.ar    1  UNL1        0.0509
     25 C           4.0119   -0.6376   21.0346 C.ar    1  UNL1        0.1380
     26 C          -1.2235    3.6937   19.4032 C.3     1  UNL1        0.0310
     27 C          -0.2092    2.6026   19.5792 C.ar    1  UNL1       -0.0218
     28 C          -0.1388    1.8455   20.8721 C.ar    1  UNL1       -0.0027
     29 C           0.8755    0.7545   21.0481 C.ar    1  UNL1        0.0189
     30 C           1.8192    0.4206   19.9311 C.ar    1  UNL1        0.0842
     31 C           1.7488    1.1777   18.6382 C.ar    1  UNL1        0.0189
     32 C           0.7345    2.2687   18.4622 C.ar    1  UNL1       -0.0027
     33 C           4.4319   -4.1386   19.4121 C.3     1  UNL1        0.0372
     34 C           3.0150   -4.4129   19.0033 C.3     1  UNL1        0.0060
     35 C           5.8488   -3.8642   19.8210 C.3     1  UNL1        0.0060
     36 C           4.8294   -5.5110   18.9557 C.3     1  UNL1        0.0060
@<TRIPOS>BOND
     1    26    27    1
     2    27    28   ar
     3    28    29   ar
     4    29    30   ar
     5    30    21    1
     6    21    22   ar
     7    22    23   ar
     8    23    33    1
     9    33    34    1
    10    33    35    1
    11    33    36    1
    12    23    24   ar
    13    24    25   ar
    14    25     1    1
    15     1     2   am
    16     2     3    2
    17     2     4   am
    18     4     7    1
    19     7     8   ar
    20     8     9   ar
    21     9    10   ar
    22    10    13    1
    23    13    14   ar
    24    14    15   ar
    25    15    16   ar
    26    16    17    1
    27    16    18   ar
    28    18    19    1
    29    10    11   ar
    30    11    12   ar
    31    30    31   ar
    32    31    32   ar
    33    32    27   ar
    34    25    21   ar
    35    12     7   ar
    36    18    13   ar
    37     1     5    1
    38     4     6    1
    39    17    20    1
@<TRIPOS>MOLECULE
*****
 36 39 0 0 0
SMALL
GASTEIGER

@<TRIPOS>ATOM
      1 N           1.8320    0.6202   20.7904 N.am    1  UNL1       -0.2533
      2 C           1.8791    0.6855   22.2882 C.2     1  UNL1        0.3092
      3 O           2.9111   -0.1008   23.0411 O.2     1  UNL1       -0.2521
      4 N           0.8942    1.5369   23.0332 N.am    1  UNL1       -0.2680
      5 H           1.1547    1.1363   20.2963 H       1  UNL1        0.1578
      6 H           0.2169    2.0530   22.5391 H       1  UNL1        0.1564
      7 C           0.9413    1.6021   24.5310 C.ar    1  UNL1        0.0516
      8 C           2.2104    1.9997   25.2249 C.ar    1  UNL1        0.0148
      9 C           2.2575    2.0649   26.7227 C.ar    1  UNL1        0.0043
     10 C           1.0357    1.7325   27.5268 C.ar    1  UNL1        0.0360
     11 C          -0.2334    1.3349   26.8329 C.ar    1  UNL1        0.0043
     12 C          -0.2805    1.2697   25.3351 C.ar    1  UNL1        0.0148
     13 C           1.0828    1.7977   29.0246 C.ar    1  UNL1        0.1668
     14 N           1.2809    0.6354   29.9519 N.ar    1  UNL1       -0.1282
     15 N           1.2606    1.1560   31.3585 N.ar    1  UNL1       -0.1224
     16 C           1.0500    2.6400   31.3006 C.ar    1  UNL1        0.1896
     17 S           0.9643    3.5651   32.4783 S.3     1  UNL1       -0.1034
     18 N           0.9401    3.0366   29.8581 N.ar    1  UNL1       -0.2886
     19 C           0.7252    4.4278   29.3401 C.3     1  UNL1        0.1340
     20 H           1.1077    2.8511   33.6269 H       1  UNL1        0.1101
     21 N           3.9123    0.2664   19.1495 N.ar    1  UNL1       -0.2162
     22 N           4.6516   -0.9247   18.6159 N.ar    1  UNL1       -0.1683
     23 C           4.0132   -2.1584   19.1820 C.ar    1  UNL1        0.0810
     24 C           2.8793   -1.7298   20.0655 C.ar    1  UNL1        0.0509
     25 C           2.8169   -0.2312   20.0454 C.ar    1  UNL1        0.1380
     26 C           5.1235    6.0121   17.9169 C.3     1  UNL1        0.0310
     27 C           4.8207    4.5757   18.2250 C.ar    1  UNL1       -0.0218
     28 C           5.9189    3.6568   18.6717 C.ar    1  UNL1       -0.0027
     29 C           5.6161    2.2204   18.9799 C.ar    1  UNL1        0.0189
     30 C           4.2151    1.7028   18.8414 C.ar    1  UNL1        0.0842
     31 C           3.1169    2.6217   18.3947 C.ar    1  UNL1        0.0189
     32 C           3.4197    4.0581   18.0865 C.ar    1  UNL1       -0.0027
     33 C           4.4348   -3.5724   18.9120 C.3     1  UNL1        0.0372
     34 C           3.0825   -4.0578   19.3429 C.3     1  UNL1        0.0060
     35 C           5.7871   -3.0870   18.4811 C.3     1  UNL1        0.0060
     36 C           4.8564   -4.9864   18.6420 C.3     1  UNL1        0.0060
@<TRIPOS>BOND
     1    26    27    1
     2    27    28   ar
     3    28    29   ar
     4    29    30   ar
     5    30    21    1
     6    21    22   ar
     7    22    23   ar
     8    23    33    1
     9    33    34    1
    10    33    35    1
    11    33    36    1
    12    23    24   ar
    13    24    25   ar
    14    25     1    1
    15     1     2   am
    16     2     3    2
    17     2     4   am
    18     4     7    1
    19     7     8   ar
    20     8     9   ar
    21     9    10   ar
    22    10    13    1
    23    13    14   ar
    24    14    15   ar
    25    15    16   ar
    26    16    17    1
    27    16    18   ar
    28    18    19    1
    29    10    11   ar
    30    11    12   ar
    31    30    31   ar
    32    31    32   ar
    33    32    27   ar
    34    25    21   ar
    35    12     7   ar
    36    18    13   ar
    37     1     5    1
    38     4     6    1
    39    17    20    1
