@<TRIPOS>MOLECULE
*****
 25 27 0 0 0
SMALL
GASTEIGER

@<TRIPOS>ATOM
      1 C          -9.6031  -18.8780   20.2074 C.ar    1  UNL1        0.1386
      2 C          -8.8975  -19.7062   19.1748 C.ar    1  UNL1        0.0370
      3 C          -7.4631  -20.0951   19.3774 C.ar    1  UNL1        0.0060
      4 C          -6.7342  -19.6559   20.6126 C.ar    1  UNL1        0.0363
      5 C          -7.4397  -18.8278   21.6452 C.ar    1  UNL1        0.0060
      6 C          -8.8742  -18.4388   21.4426 C.ar    1  UNL1        0.0370
      7 C          -5.2997  -20.0449   20.8152 C.2     1  UNL1        0.1892
      8 O          -4.7005  -21.1520   19.9995 O.2     1  UNL1       -0.2899
      9 C          -4.4645  -19.3268   21.8334 C.3     1  UNL1        0.1424
     10 N          -3.4169  -18.3492   21.3896 N.3     1  UNL1       -0.2619
     11 C          -2.9671  -17.2594   22.3168 C.3     1  UNL1        0.1050
     12 C          -1.9196  -16.2819   21.8730 C.3     1  UNL1        0.1595
     13 O          -1.3218  -16.3942   20.5019 O.3     1  UNL1       -0.3508
     14 C          -1.7715  -17.4841   19.5746 C.3     1  UNL1        0.1595
     15 C          -2.8191  -18.4616   20.0184 C.3     1  UNL1        0.1050
     16 O         -11.0376  -18.4891   20.0048 O.3     1  UNL1       -0.4754
     17 C         -11.4308  -17.0416   20.0153 C.3     1  UNL1        0.2068
     18 C         -12.3022  -16.5091   21.1141 C.3     1  UNL1        0.0646
     19 C         -11.7016  -16.1522   22.4414 C.3     1  UNL1        0.0759
     20 C          -9.0956  -16.0158   24.4008 C.3     1  UNL1        0.0173
     21 C         -10.0421  -17.1722   24.2718 C.3     1  UNL1        0.0576
     22 C          -9.9569  -18.4690   25.0208 C.3     1  UNL1        0.0174
     23 C         -11.1022  -19.3333   24.5830 C.3     1  UNL1        0.0187
     24 C         -11.8951  -18.5705   23.5635 C.3     1  UNL1        0.0721
     25 N         -11.2399  -17.2349   23.3711 N.3     1  UNL1       -0.2738
@<TRIPOS>BOND
     1    21    20    1
     2    21    22    1
     3    22    23    1
     4    23    24    1
     5    24    25    1
     6    25    19    1
     7    19    18    1
     8    18    17    1
     9    17    16    1
    10    16     1    1
    11     1     2   ar
    12     2     3   ar
    13     3     4   ar
    14     4     7    1
    15     7     8    2
    16     7     9    1
    17     9    10    1
    18    10    11    1
    19    11    12    1
    20    12    13    1
    21    13    14    1
    22    14    15    1
    23     4     5   ar
    24     5     6   ar
    25    25    21    1
    26     6     1   ar
    27    15    10    1
@<TRIPOS>MOLECULE
*****
 25 27 0 0 0
SMALL
GASTEIGER

@<TRIPOS>ATOM
      1 C          -8.4095  -18.7662   21.4555 C.ar    1  UNL1        0.1386
      2 C          -8.1099  -19.3978   20.1284 C.ar    1  UNL1        0.0370
      3 C          -6.7224  -19.8790   19.8230 C.ar    1  UNL1        0.0060
      4 C          -5.6345  -19.7287   20.8447 C.ar    1  UNL1        0.0363
      5 C          -5.9341  -19.0972   22.1718 C.ar    1  UNL1        0.0060
      6 C          -7.3216  -18.6159   22.4773 C.ar    1  UNL1        0.0370
      7 C          -4.2470  -20.2100   20.5392 C.2     1  UNL1        0.1892
      8 O          -3.9952  -21.0487   19.3214 O.2     1  UNL1       -0.2899
      9 C          -3.1113  -19.8525   21.4516 C.3     1  UNL1        0.1424
     10 N          -2.2915  -18.6253   21.1834 N.3     1  UNL1       -0.2619
     11 C          -2.5958  -17.3471   21.9070 C.3     1  UNL1        0.1050
     12 C          -1.7760  -16.1200   21.6388 C.3     1  UNL1        0.1595
     13 O          -0.6519  -16.1709   20.6469 O.3     1  UNL1       -0.3508
     14 C          -0.3476  -17.4491   19.9233 C.3     1  UNL1        0.1595
     15 C          -1.1674  -18.6762   20.1915 C.3     1  UNL1        0.1050
     16 O          -9.7970  -18.2850   21.7610 O.3     1  UNL1       -0.4754
     17 C          -9.9999  -16.9610   22.4362 C.3     1  UNL1        0.2068
     18 C          -9.8117  -16.8388   23.9193 C.3     1  UNL1        0.0646
     19 C          -9.1942  -15.6000   24.4974 C.3     1  UNL1        0.0759
     20 C          -7.7285  -15.7729   27.4079 C.3     1  UNL1        0.0173
     21 C          -7.0421  -15.6237   26.0826 C.3     1  UNL1        0.0576
     22 C          -5.5615  -15.5278   25.8624 C.3     1  UNL1        0.0174
     23 C          -5.3201  -15.3890   24.3884 C.3     1  UNL1        0.0187
     24 C          -6.6516  -15.3992   23.6977 C.3     1  UNL1        0.0721
     25 N          -7.7158  -15.5443   24.7448 N.3     1  UNL1       -0.2738
@<TRIPOS>BOND
     1    21    20    1
     2    21    22    1
     3    22    23    1
     4    23    24    1
     5    24    25    1
     6    25    19    1
     7    19    18    1
     8    18    17    1
     9    17    16    1
    10    16     1    1
    11     1     2   ar
    12     2     3   ar
    13     3     4   ar
    14     4     7    1
    15     7     8    2
    16     7     9    1
    17     9    10    1
    18    10    11    1
    19    11    12    1
    20    12    13    1
    21    13    14    1
    22    14    15    1
    23     4     5   ar
    24     5     6   ar
    25    25    21    1
    26     6     1   ar
    27    15    10    1
@<TRIPOS>MOLECULE
*****
 25 27 0 0 0
SMALL
GASTEIGER

@<TRIPOS>ATOM
      1 C          -7.2504  -16.9921   22.9322 C.ar    1  UNL1        0.1386
      2 C          -7.9826  -17.6812   21.8191 C.ar    1  UNL1        0.0370
      3 C          -7.3189  -18.7909   21.0589 C.ar    1  UNL1        0.0060
      4 C          -5.9230  -19.2115   21.4117 C.ar    1  UNL1        0.0363
      5 C          -5.1908  -18.5224   22.5248 C.ar    1  UNL1        0.0060
      6 C          -5.8545  -17.4127   23.2850 C.ar    1  UNL1        0.0370
      7 C          -5.2593  -20.3213   20.6514 C.2     1  UNL1        0.1892
      8 O          -6.0884  -21.2879   19.8588 O.2     1  UNL1       -0.2899
      9 C          -3.7665  -20.4644   20.6838 C.3     1  UNL1        0.1424
     10 N          -2.8945  -19.3352   20.2204 N.3     1  UNL1       -0.2619
     11 C          -3.3140  -18.4949   19.0508 C.3     1  UNL1        0.1050
     12 C          -2.4421  -17.3658   18.5875 C.3     1  UNL1        0.1595
     13 O          -1.1506  -17.0769   19.2937 O.3     1  UNL1       -0.3508
     14 C          -0.7311  -17.9172   20.4633 C.3     1  UNL1        0.1595
     15 C          -1.6031  -19.0464   20.9266 C.3     1  UNL1        0.1050
     16 O          -7.9141  -15.8823   23.6925 O.3     1  UNL1       -0.4754
     17 C          -9.0066  -16.1931   24.6721 C.3     1  UNL1        0.2068
     18 C          -9.4937  -17.6031   24.8300 C.3     1  UNL1        0.0646
     19 C         -10.8797  -17.9714   24.3904 C.3     1  UNL1        0.0759
     20 C         -10.9149  -20.0261   21.8554 C.3     1  UNL1        0.0173
     21 C         -11.3524  -18.5915   21.8337 C.3     1  UNL1        0.0576
     22 C         -11.8828  -17.8494   20.6429 C.3     1  UNL1        0.0174
     23 C         -12.1944  -16.4463   21.0722 C.3     1  UNL1        0.0187
     24 C         -11.8566  -16.3212   22.5282 C.3     1  UNL1        0.0721
     25 N         -11.3362  -17.6470   22.9989 N.3     1  UNL1       -0.2738
@<TRIPOS>BOND
     1    21    20    1
     2    21    22    1
     3    22    23    1
     4    23    24    1
     5    24    25    1
     6    25    19    1
     7    19    18    1
     8    18    17    1
     9    17    16    1
    10    16     1    1
    11     1     2   ar
    12     2     3   ar
    13     3     4   ar
    14     4     7    1
    15     7     8    2
    16     7     9    1
    17     9    10    1
    18    10    11    1
    19    11    12    1
    20    12    13    1
    21    13    14    1
    22    14    15    1
    23     4     5   ar
    24     5     6   ar
    25    25    21    1
    26     6     1   ar
    27    15    10    1
@<TRIPOS>MOLECULE
*****
 25 27 0 0 0
SMALL
GASTEIGER

@<TRIPOS>ATOM
      1 C          -4.9052  -15.7255   24.1562 C.ar    1  UNL1        0.1386
      2 C          -4.8146  -17.1982   24.4257 C.ar    1  UNL1        0.0370
      3 C          -3.9619  -18.0695   23.5519 C.ar    1  UNL1        0.0060
      4 C          -3.1996  -17.4680   22.4086 C.ar    1  UNL1        0.0363
      5 C          -3.2902  -15.9953   22.1390 C.ar    1  UNL1        0.0060
      6 C          -4.1429  -15.1240   23.0128 C.ar    1  UNL1        0.0370
      7 C          -2.3468  -18.3394   21.5347 C.2     1  UNL1        0.1892
      8 O          -0.9638  -18.7183   21.9748 O.2     1  UNL1       -0.2899
      9 C          -2.8771  -18.8319   20.2208 C.3     1  UNL1        0.1424
     10 N          -4.2476  -19.4367   20.1444 N.3     1  UNL1       -0.2619
     11 C          -5.4515  -18.5519   20.0118 C.3     1  UNL1        0.1050
     12 C          -6.8220  -19.1567   19.9353 C.3     1  UNL1        0.1595
     13 O          -6.9886  -20.6464   19.9915 O.3     1  UNL1       -0.3508
     14 C          -5.7847  -21.5312   20.1241 C.3     1  UNL1        0.1595
     15 C          -4.4142  -20.9264   20.2005 C.3     1  UNL1        0.1050
     16 O          -5.7580  -14.8541   25.0300 O.3     1  UNL1       -0.4754
     17 C          -7.0792  -15.3579   25.5305 C.3     1  UNL1        0.2068
     18 C          -8.2591  -15.4150   24.6060 C.3     1  UNL1        0.0646
     19 C          -8.5682  -16.6801   23.8617 C.3     1  UNL1        0.0759
     20 C         -10.0465  -19.3471   25.0240 C.3     1  UNL1        0.0173
     21 C         -10.6733  -18.3019   24.1496 C.3     1  UNL1        0.0576
     22 C         -12.0897  -18.2992   23.6558 C.3     1  UNL1        0.0174
     23 C         -12.2856  -17.0715   22.8164 C.3     1  UNL1        0.0187
     24 C         -10.9903  -16.3156   22.7914 C.3     1  UNL1        0.0721
     25 N          -9.9938  -17.0760   23.6153 N.3     1  UNL1       -0.2738
@<TRIPOS>BOND
     1    21    20    1
     2    21    22    1
     3    22    23    1
     4    23    24    1
     5    24    25    1
     6    25    19    1
     7    19    18    1
     8    18    17    1
     9    17    16    1
    10    16     1    1
    11     1     2   ar
    12     2     3   ar
    13     3     4   ar
    14     4     7    1
    15     7     8    2
    16     7     9    1
    17     9    10    1
    18    10    11    1
    19    11    12    1
    20    12    13    1
    21    13    14    1
    22    14    15    1
    23     4     5   ar
    24     5     6   ar
    25    25    21    1
    26     6     1   ar
    27    15    10    1
@<TRIPOS>MOLECULE
*****
 25 27 0 0 0
SMALL
GASTEIGER

@<TRIPOS>ATOM
      1 C           0.5110    1.0661   20.0719 C.ar    1  UNL1        0.1386
      2 C           0.9422   -0.3532   20.2945 C.ar    1  UNL1        0.0370
      3 C           2.0863   -0.9215   19.5084 C.ar    1  UNL1        0.0060
      4 C           2.7992   -0.0705   18.4997 C.ar    1  UNL1        0.0363
      5 C           2.3680    1.3488   18.2771 C.ar    1  UNL1        0.0060
      6 C           1.2239    1.9171   19.0632 C.ar    1  UNL1        0.0370
      7 C           3.9434   -0.6388   17.7136 C.2     1  UNL1        0.1892
      8 O           3.7544   -1.0033   16.2709 O.2     1  UNL1       -0.2899
      9 C           5.2766   -0.8426   18.3702 C.3     1  UNL1        0.1424
     10 N           5.5892   -2.1456   19.0444 N.3     1  UNL1       -0.2619
     11 C           4.7768   -3.3667   18.7299 C.3     1  UNL1        0.1050
     12 C           5.0896   -4.6696   19.4040 C.3     1  UNL1        0.1595
     13 O           6.2146   -4.7515   20.3927 O.3     1  UNL1       -0.3508
     14 C           7.0270   -3.5304   20.7072 C.3     1  UNL1        0.1595
     15 C           6.7143   -2.2275   20.0330 C.3     1  UNL1        0.1050
     16 O          -0.6332    1.6344   20.8580 O.3     1  UNL1       -0.4754
     17 C          -0.3771    2.6672   21.9152 C.3     1  UNL1        0.2068
     18 C           0.0886    2.2465   23.2776 C.3     1  UNL1        0.0646
     19 C           1.4929    2.5417   23.7145 C.3     1  UNL1        0.0759
     20 C           2.9218   -0.3850   23.5108 C.3     1  UNL1        0.0173
     21 C           3.3028    0.8383   22.7310 C.3     1  UNL1        0.0576
     22 C           4.4076    0.9312   21.7207 C.3     1  UNL1        0.0174
     23 C           4.4337    2.3339   21.1898 C.3     1  UNL1        0.0187
     24 C           3.3449    3.1079   21.8721 C.3     1  UNL1        0.0721
     25 N           2.6460    2.1836   22.8246 N.3     1  UNL1       -0.2738
@<TRIPOS>BOND
     1    21    20    1
     2    21    22    1
     3    22    23    1
     4    23    24    1
     5    24    25    1
     6    25    19    1
     7    19    18    1
     8    18    17    1
     9    17    16    1
    10    16     1    1
    11     1     2   ar
    12     2     3   ar
    13     3     4   ar
    14     4     7    1
    15     7     8    2
    16     7     9    1
    17     9    10    1
    18    10    11    1
    19    11    12    1
    20    12    13    1
    21    13    14    1
    22    14    15    1
    23     4     5   ar
    24     5     6   ar
    25    25    21    1
    26     6     1   ar
    27    15    10    1
@<TRIPOS>MOLECULE
*****
 25 27 0 0 0
SMALL
GASTEIGER

@<TRIPOS>ATOM
      1 C           4.2207   -1.5969   18.1085 C.ar    1  UNL1        0.1386
      2 C           3.8424   -0.2626   17.5370 C.ar    1  UNL1        0.0370
      3 C           2.7245    0.5267   18.1512 C.ar    1  UNL1        0.0060
      4 C           1.9850   -0.0183   19.3370 C.ar    1  UNL1        0.0363
      5 C           2.3632   -1.3525   19.9085 C.ar    1  UNL1        0.0060
      6 C           3.4811   -2.1418   19.2942 C.ar    1  UNL1        0.0370
      7 C           0.8670    0.7710   19.9513 C.2     1  UNL1        0.1892
      8 O          -0.2346    0.0652   20.6849 O.2     1  UNL1       -0.2899
      9 C           0.8507    2.2662   19.8318 C.3     1  UNL1        0.1424
     10 N          -0.3245    2.9557   19.2046 N.3     1  UNL1       -0.2619
     11 C          -1.5126    3.3246   20.0426 C.3     1  UNL1        0.1050
     12 C          -2.6878    4.0141   19.4153 C.3     1  UNL1        0.1595
     13 O          -2.6748    4.3348   17.9500 O.3     1  UNL1       -0.3508
     14 C          -1.4867    3.9660   17.1120 C.3     1  UNL1        0.1595
     15 C          -0.3115    3.2764   17.7393 C.3     1  UNL1        0.1050
     16 O           5.3386   -2.3862   17.4942 O.3     1  UNL1       -0.4754
     17 C           6.7103   -2.3397   18.0993 C.3     1  UNL1        0.2068
     18 C           7.0334   -1.3162   19.1473 C.3     1  UNL1        0.0646
     19 C           7.3559   -1.7512   20.5462 C.3     1  UNL1        0.0759
     20 C           5.2626    0.2949   21.9888 C.3     1  UNL1        0.0173
     21 C           5.2893   -1.1964   22.1481 C.3     1  UNL1        0.0576
     22 C           4.3584   -2.0089   22.9985 C.3     1  UNL1        0.0174
     23 C           4.7453   -3.4517   22.8610 C.3     1  UNL1        0.0187
     24 C           5.9152   -3.5307   21.9256 C.3     1  UNL1        0.0721
     25 N           6.2514   -2.1368   21.4850 N.3     1  UNL1       -0.2738
@<TRIPOS>BOND
     1    21    20    1
     2    21    22    1
     3    22    23    1
     4    23    24    1
     5    24    25    1
     6    25    19    1
     7    19    18    1
     8    18    17    1
     9    17    16    1
    10    16     1    1
    11     1     2   ar
    12     2     3   ar
    13     3     4   ar
    14     4     7    1
    15     7     8    2
    16     7     9    1
    17     9    10    1
    18    10    11    1
    19    11    12    1
    20    12    13    1
    21    13    14    1
    22    14    15    1
    23     4     5   ar
    24     5     6   ar
    25    25    21    1
    26     6     1   ar
    27    15    10    1
@<TRIPOS>MOLECULE
*****
 25 27 0 0 0
SMALL
GASTEIGER

@<TRIPOS>ATOM
      1 C          -4.3144  -16.2680   23.8426 C.ar    1  UNL1        0.1386
      2 C          -4.2318  -17.7657   23.8407 C.ar    1  UNL1        0.0370
      3 C          -3.4288  -18.4711   22.7883 C.ar    1  UNL1        0.0060
      4 C          -2.7084  -17.6789   21.7379 C.ar    1  UNL1        0.0363
      5 C          -2.7910  -16.1812   21.7398 C.ar    1  UNL1        0.0060
      6 C          -3.5940  -15.4758   22.7922 C.ar    1  UNL1        0.0370
      7 C          -1.9054  -18.3844   20.6854 C.2     1  UNL1        0.1892
      8 O          -0.4073  -18.3865   20.7610 O.2     1  UNL1       -0.2899
      9 C          -2.6005  -19.0876   19.5575 C.3     1  UNL1        0.1424
     10 N          -4.0067  -19.5794   19.7333 N.3     1  UNL1       -0.2619
     11 C          -4.2604  -21.0134   20.0924 C.3     1  UNL1        0.1050
     12 C          -5.6666  -21.5051   20.2681 C.3     1  UNL1        0.1595
     13 O          -6.8191  -20.5627   20.0848 O.3     1  UNL1       -0.3508
     14 C          -6.5654  -19.1286   19.7257 C.3     1  UNL1        0.1595
     15 C          -5.1592  -18.6369   19.5499 C.3     1  UNL1        0.1050
     16 O          -5.1174  -15.5625   24.8951 O.3     1  UNL1       -0.4754
     17 C          -6.5476  -15.1975   24.6281 C.3     1  UNL1        0.2068
     18 C          -7.6320  -15.7021   25.5334 C.3     1  UNL1        0.0646
     19 C          -8.9644  -16.0898   24.9640 C.3     1  UNL1        0.0759
     20 C          -8.1213  -17.3206   22.0616 C.3     1  UNL1        0.0173
     21 C          -8.8137  -18.0622   23.1664 C.3     1  UNL1        0.0576
     22 C          -9.2401  -19.4999   23.1309 C.3     1  UNL1        0.0174
     23 C          -9.8913  -19.8227   24.4432 C.3     1  UNL1        0.0187
     24 C          -9.8672  -18.5846   25.2895 C.3     1  UNL1        0.0721
     25 N          -9.2012  -17.4965   24.5004 N.3     1  UNL1       -0.2738
@<TRIPOS>BOND
     1    21    20    1
     2    21    22    1
     3    22    23    1
     4    23    24    1
     5    24    25    1
     6    25    19    1
     7    19    18    1
     8    18    17    1
     9    17    16    1
    10    16     1    1
    11     1     2   ar
    12     2     3   ar
    13     3     4   ar
    14     4     7    1
    15     7     8    2
    16     7     9    1
    17     9    10    1
    18    10    11    1
    19    11    12    1
    20    12    13    1
    21    13    14    1
    22    14    15    1
    23     4     5   ar
    24     5     6   ar
    25    25    21    1
    26     6     1   ar
    27    15    10    1
@<TRIPOS>MOLECULE
*****
 25 27 0 0 0
SMALL
GASTEIGER

@<TRIPOS>ATOM
      1 C          -0.0769    1.7007   20.1979 C.ar    1  UNL1        0.1386
      2 C           0.8057    2.4222   19.2229 C.ar    1  UNL1        0.0370
      3 C           1.9600    1.7075   18.5852 C.ar    1  UNL1        0.0060
      4 C           2.2318    0.2714   18.9224 C.ar    1  UNL1        0.0363
      5 C           1.3492   -0.4501   19.8973 C.ar    1  UNL1        0.0060
      6 C           0.1949    0.2646   20.5351 C.ar    1  UNL1        0.0370
      7 C           3.3862   -0.4433   18.2846 C.2     1  UNL1        0.1892
      8 O           3.4203   -0.6348   16.7972 O.2     1  UNL1       -0.2899
      9 C           4.5063   -0.9663   19.1341 C.3     1  UNL1        0.1424
     10 N           4.3801   -2.3039   19.8012 N.3     1  UNL1       -0.2619
     11 C           3.8400   -3.4756   19.0362 C.3     1  UNL1        0.1050
     12 C           3.7139   -4.8131   19.7033 C.3     1  UNL1        0.1595
     13 O           4.1279   -4.9789   21.1355 O.3     1  UNL1       -0.3508
     14 C           4.6680   -3.8072   21.9005 C.3     1  UNL1        0.1595
     15 C           4.7941   -2.4697   21.2334 C.3     1  UNL1        0.1050
     16 O          -1.2313    2.4153   20.8357 O.3     1  UNL1       -0.4754
     17 C          -2.1806    3.2110   19.9898 C.3     1  UNL1        0.2068
     18 C          -3.6039    3.3920   20.4275 C.3     1  UNL1        0.0646
     19 C          -3.9572    4.4779   21.4000 C.3     1  UNL1        0.0759
     20 C          -6.7789    4.1506   23.0063 C.3     1  UNL1        0.0173
     21 C          -5.4070    4.0082   23.5960 C.3     1  UNL1        0.0576
     22 C          -5.0913    3.6904   25.0275 C.3     1  UNL1        0.0174
     23 C          -3.5991    3.6444   25.1739 C.3     1  UNL1        0.0187
     24 C          -2.9927    3.9338   23.8329 C.3     1  UNL1        0.0721
     25 N          -4.1100    4.1587   22.8576 N.3     1  UNL1       -0.2738
@<TRIPOS>BOND
     1    21    20    1
     2    21    22    1
     3    22    23    1
     4    23    24    1
     5    24    25    1
     6    25    19    1
     7    19    18    1
     8    18    17    1
     9    17    16    1
    10    16     1    1
    11     1     2   ar
    12     2     3   ar
    13     3     4   ar
    14     4     7    1
    15     7     8    2
    16     7     9    1
    17     9    10    1
    18    10    11    1
    19    11    12    1
    20    12    13    1
    21    13    14    1
    22    14    15    1
    23     4     5   ar
    24     5     6   ar
    25    25    21    1
    26     6     1   ar
    27    15    10    1
@<TRIPOS>MOLECULE
*****
 25 27 0 0 0
SMALL
GASTEIGER

@<TRIPOS>ATOM
      1 C           1.6269    0.2549   19.1452 C.ar    1  UNL1        0.1386
      2 C           1.6673   -0.9546   20.0315 C.ar    1  UNL1        0.0370
      3 C           2.7663   -1.9632   19.8743 C.ar    1  UNL1        0.0060
      4 C           3.8249   -1.7625   18.8307 C.ar    1  UNL1        0.0363
      5 C           3.7845   -0.5531   17.9444 C.ar    1  UNL1        0.0060
      6 C           2.6856    0.4556   18.1016 C.ar    1  UNL1        0.0370
      7 C           4.9239   -2.7713   18.6735 C.2     1  UNL1        0.1892
      8 O           5.9838   -2.5694   17.6314 O.2     1  UNL1       -0.2899
      9 C           4.9630   -3.9818   19.5584 C.3     1  UNL1        0.1424
     10 N           5.7156   -3.9389   20.8552 N.3     1  UNL1       -0.2619
     11 C           4.9731   -3.7759   22.1483 C.3     1  UNL1        0.1050
     12 C           5.7257   -3.7330   23.4450 C.3     1  UNL1        0.1595
     13 O           7.2209   -3.8531   23.4488 O.3     1  UNL1       -0.3508
     14 C           7.9634   -4.0161   22.1557 C.3     1  UNL1        0.1595
     15 C           7.2108   -4.0590   20.8590 C.3     1  UNL1        0.1050
     16 O           0.5279    1.2636   19.3024 O.3     1  UNL1       -0.4754
     17 C           0.1716    1.7782   20.6655 C.3     1  UNL1        0.2068
     18 C           0.9138    2.9464   21.2439 C.3     1  UNL1        0.0646
     19 C           1.6864    2.7869   22.5196 C.3     1  UNL1        0.0759
     20 C           4.5091    1.9934   21.0872 C.3     1  UNL1        0.0173
     21 C           3.7765    1.1727   22.1068 C.3     1  UNL1        0.0576
     22 C           4.2127   -0.1570   22.6469 C.3     1  UNL1        0.0174
     23 C           3.1848   -0.6140   23.6392 C.3     1  UNL1        0.0187
     24 C           2.1133    0.4331   23.7123 C.3     1  UNL1        0.0721
     25 N           2.4790    1.5374   22.7652 N.3     1  UNL1       -0.2738
@<TRIPOS>BOND
     1    21    20    1
     2    21    22    1
     3    22    23    1
     4    23    24    1
     5    24    25    1
     6    25    19    1
     7    19    18    1
     8    18    17    1
     9    17    16    1
    10    16     1    1
    11     1     2   ar
    12     2     3   ar
    13     3     4   ar
    14     4     7    1
    15     7     8    2
    16     7     9    1
    17     9    10    1
    18    10    11    1
    19    11    12    1
    20    12    13    1
    21    13    14    1
    22    14    15    1
    23     4     5   ar
    24     5     6   ar
    25    25    21    1
    26     6     1   ar
    27    15    10    1
