@<TRIPOS>MOLECULE
*****
 34 39 0 0 0
SMALL
GASTEIGER

@<TRIPOS>ATOM
      1 C          -6.9399  -19.8345   21.2891 C.3     1  UNL1        0.0749
      2 C          -6.3092  -18.7699   22.1369 C.3     1  UNL1        0.0444
      3 C          -4.8159  -18.6358   22.1844 C.ar    1  UNL1       -0.0101
      4 C          -3.9535  -19.5662   21.3842 C.ar    1  UNL1       -0.0091
      5 C          -2.4603  -19.4321   21.4318 C.ar    1  UNL1       -0.0032
      6 C          -1.8295  -18.3674   22.2796 C.ar    1  UNL1        0.0010
      7 C          -2.6920  -17.4370   23.0798 C.ar    1  UNL1        0.0142
      8 C          -4.1852  -17.5712   23.0322 C.ar    1  UNL1        0.0436
      9 C          -4.5842  -20.6308   20.5364 C.3     1  UNL1        0.0954
     10 N          -6.0774  -20.7650   20.4889 N.3     1  UNL1       -0.2934
     11 H          -6.2980  -21.7112   20.7993 H       1  UNL1        0.1236
     12 N          -5.0477  -16.6407   23.8325 N.pl3   1  UNL1       -0.3049
     13 C          -4.6891  -16.3213   25.2535 C.3     1  UNL1        0.1079
     14 C          -5.5515  -15.3909   26.0537 C.3     1  UNL1        0.0903
     15 N          -6.7727  -14.7798   25.4329 N.3     1  UNL1       -0.2946
     16 C          -7.1314  -15.0992   24.0119 C.3     1  UNL1        0.0903
     17 C          -6.2688  -16.0297   23.2117 C.3     1  UNL1        0.1079
     18 H          -6.6555  -13.7680   25.4867 H       1  UNL1        0.1233
     19 C          -8.4331  -19.9687   21.2415 C.3     1  UNL1        0.0886
     20 N          -9.2194  -19.2330   20.1972 N.3     1  UNL1       -0.2679
     21 C         -12.2102  -18.8227   24.6846 C.ar    1  UNL1        0.0203
     22 C         -11.0534  -19.6882   24.2812 C.ar    1  UNL1        0.0985
     23 N         -10.4421  -19.5364   22.9198 N.ar    1  UNL1       -0.2471
     24 C         -10.9875  -18.5192   21.9619 C.ar    1  UNL1        0.0695
     25 C         -12.1442  -17.6537   22.3653 C.ar    1  UNL1       -0.0073
     26 C         -12.7556  -17.8054   23.7266 C.ar    1  UNL1       -0.0015
     27 C         -12.6897  -16.6364   21.4073 C.3     1  UNL1        0.0277
     28 C         -12.0784  -16.4846   20.0460 C.3     1  UNL1        0.0065
     29 C         -10.9216  -17.3502   19.6426 C.3     1  UNL1        0.0224
     30 C         -10.3762  -18.3674   20.6006 C.3     1  UNL1        0.0978
     31 C          -8.8488  -19.3628   18.7495 C.3     1  UNL1        0.0724
     32 C          -8.8839  -20.7066   18.0839 C.3     1  UNL1        0.0160
     33 C          -8.5652  -22.1723   18.0987 C.3     1  UNL1        0.0014
     34 C          -9.2633  -21.5685   16.9164 C.3     1  UNL1        0.0014
@<TRIPOS>BOND
     1    21    22   ar
     2    22    23   ar
     3    23    24   ar
     4    24    25   ar
     5    25    26   ar
     6    25    27    1
     7    27    28    1
     8    28    29    1
     9    29    30    1
    10    30    20    1
    11    20    31    1
    12    31    32    1
    13    32    33    1
    14    33    34    1
    15    20    19    1
    16     1    19    1
    17     1     2    1
    18     2     3    1
    19     3     4   ar
    20     4     5   ar
    21     5     6   ar
    22     6     7   ar
    23     7     8   ar
    24     8    12    1
    25    12    13    1
    26    13    14    1
    27    14    15    1
    28    15    16    1
    29    16    17    1
    30     4     9    1
    31     9    10    1
    32    26    21   ar
    33    34    32    1
    34    10     1    1
    35    30    24    1
    36     8     3   ar
    37    17    12    1
    38    15    18    1
    39    10    11    1
@<TRIPOS>MOLECULE
*****
 34 39 0 0 0
SMALL
GASTEIGER

@<TRIPOS>ATOM
      1 C          -8.9394  -19.9143   23.0218 C.3     1  UNL1        0.0749
      2 C          -9.7819  -18.7879   22.5009 C.3     1  UNL1        0.0444
      3 C         -11.0858  -18.4573   23.1649 C.ar    1  UNL1       -0.0101
      4 C         -11.5470  -19.2531   24.3497 C.ar    1  UNL1       -0.0091
      5 C         -12.8508  -18.9225   25.0137 C.ar    1  UNL1       -0.0032
      6 C         -13.6933  -17.7961   24.4927 C.ar    1  UNL1        0.0010
      7 C         -13.2321  -17.0003   23.3079 C.ar    1  UNL1        0.0142
      8 C         -11.9283  -17.3309   22.6439 C.ar    1  UNL1        0.0436
      9 C         -10.7044  -20.3795   24.8707 C.3     1  UNL1        0.0954
     10 N          -9.4007  -20.7101   24.2067 N.3     1  UNL1       -0.2934
     11 H          -9.4632  -21.6817   23.9026 H       1  UNL1        0.1236
     12 N         -11.4670  -16.5351   21.4590 N.pl3   1  UNL1       -0.3049
     13 C         -10.1948  -15.7442   21.5360 C.3     1  UNL1        0.1079
     14 C          -9.7335  -14.9484   20.3512 C.3     1  UNL1        0.0903
     15 N         -10.5444  -14.9435   19.0892 N.3     1  UNL1       -0.2946
     16 C         -11.8167  -15.7344   19.0122 C.3     1  UNL1        0.0903
     17 C         -12.2779  -16.5302   20.1971 C.3     1  UNL1        0.1079
     18 H          -9.9366  -15.2906   18.3473 H       1  UNL1        0.1233
     19 C          -7.6356  -20.2449   22.3579 C.3     1  UNL1        0.0886
     20 N          -6.9011  -19.1922   21.5816 N.3     1  UNL1       -0.2679
     21 C          -1.5482  -18.6365   22.1177 C.ar    1  UNL1        0.0203
     22 C          -2.4252  -19.6209   21.4023 C.ar    1  UNL1        0.0985
     23 N          -3.9171  -19.4780   21.4620 N.ar    1  UNL1       -0.2471
     24 C          -4.5322  -18.3507   22.2372 C.ar    1  UNL1        0.0695
     25 C          -3.6552  -17.3663   22.9526 C.ar    1  UNL1       -0.0073
     26 C          -2.1632  -17.5092   22.8928 C.ar    1  UNL1       -0.0015
     27 C          -4.2702  -16.2390   23.7278 C.3     1  UNL1        0.0277
     28 C          -5.7622  -16.0961   23.7876 C.3     1  UNL1        0.0065
     29 C          -6.6391  -17.0805   23.0722 C.3     1  UNL1        0.0224
     30 C          -6.0241  -18.2078   22.2970 C.3     1  UNL1        0.0978
     31 C          -7.0436  -19.1241   20.0899 C.3     1  UNL1        0.0724
     32 C          -8.2827  -19.6526   19.4300 C.3     1  UNL1        0.0160
     33 C          -9.7721  -19.6278   19.2538 C.3     1  UNL1        0.0014
     34 C          -8.9393  -20.5927   18.4631 C.3     1  UNL1        0.0014
@<TRIPOS>BOND
     1    21    22   ar
     2    22    23   ar
     3    23    24   ar
     4    24    25   ar
     5    25    26   ar
     6    25    27    1
     7    27    28    1
     8    28    29    1
     9    29    30    1
    10    30    20    1
    11    20    31    1
    12    31    32    1
    13    32    33    1
    14    33    34    1
    15    20    19    1
    16     1    19    1
    17     1     2    1
    18     2     3    1
    19     3     4   ar
    20     4     5   ar
    21     5     6   ar
    22     6     7   ar
    23     7     8   ar
    24     8    12    1
    25    12    13    1
    26    13    14    1
    27    14    15    1
    28    15    16    1
    29    16    17    1
    30     4     9    1
    31     9    10    1
    32    26    21   ar
    33    34    32    1
    34    10     1    1
    35    30    24    1
    36     8     3   ar
    37    17    12    1
    38    15    18    1
    39    10    11    1
@<TRIPOS>MOLECULE
*****
 34 39 0 0 0
SMALL
GASTEIGER

@<TRIPOS>ATOM
      1 C          -8.8711  -19.9176   22.9238 C.3     1  UNL1        0.0749
      2 C          -9.7189  -18.7869   22.4211 C.3     1  UNL1        0.0444
      3 C         -11.0138  -18.4593   23.1037 C.ar    1  UNL1       -0.0101
      4 C         -11.4609  -19.2624   24.2891 C.ar    1  UNL1       -0.0091
      5 C         -12.7557  -18.9347   24.9717 C.ar    1  UNL1       -0.0032
      6 C         -13.6035  -17.8040   24.4689 C.ar    1  UNL1        0.0010
      7 C         -13.1564  -17.0009   23.2836 C.ar    1  UNL1        0.0142
      8 C         -11.8615  -17.3285   22.6010 C.ar    1  UNL1        0.0436
      9 C         -10.6131  -20.3931   24.7918 C.3     1  UNL1        0.0954
     10 N          -9.3183  -20.7208   24.1092 N.3     1  UNL1       -0.2934
     11 H          -9.3858  -21.6903   23.7995 H       1  UNL1        0.1236
     12 N         -11.4143  -16.5254   21.4156 N.pl3   1  UNL1       -0.3049
     13 C         -10.1716  -15.6898   21.5015 C.3     1  UNL1        0.1079
     14 C          -9.7244  -14.8867   20.3162 C.3     1  UNL1        0.0903
     15 N         -10.5200  -14.9192   19.0448 N.3     1  UNL1       -0.2946
     16 C         -11.7627  -15.7549   18.9589 C.3     1  UNL1        0.0903
     17 C         -12.2098  -16.5580   20.1443 C.3     1  UNL1        0.1079
     18 H          -9.8915  -15.2499   18.3126 H       1  UNL1        0.1233
     19 C          -7.5763  -20.2453   22.2412 C.3     1  UNL1        0.0886
     20 N          -6.8187  -19.1731   21.5154 N.3     1  UNL1       -0.2679
     21 C          -6.5260  -14.9868   24.9270 C.ar    1  UNL1        0.0203
     22 C          -7.6586  -15.6966   24.2464 C.ar    1  UNL1        0.0985
     23 N          -7.3787  -16.8554   23.3361 N.ar    1  UNL1       -0.2471
     24 C          -5.9661  -17.3045   23.1063 C.ar    1  UNL1        0.0695
     25 C          -4.8334  -16.5947   23.7870 C.ar    1  UNL1       -0.0073
     26 C          -5.1134  -15.4359   24.6973 C.ar    1  UNL1       -0.0015
     27 C          -3.4207  -17.0438   23.5573 C.3     1  UNL1        0.0277
     28 C          -3.1407  -18.2026   22.6469 C.3     1  UNL1        0.0065
     29 C          -4.2735  -18.9124   21.9663 C.3     1  UNL1        0.0224
     30 C          -5.6861  -18.4634   22.1960 C.3     1  UNL1        0.0978
     31 C          -7.1939  -18.8108   20.1090 C.3     1  UNL1        0.0724
     32 C          -8.3048  -19.5436   19.4167 C.3     1  UNL1        0.0160
     33 C          -9.7706  -19.7631   19.1864 C.3     1  UNL1        0.0014
     34 C          -8.7628  -20.5931   18.4479 C.3     1  UNL1        0.0014
@<TRIPOS>BOND
     1    21    22   ar
     2    22    23   ar
     3    23    24   ar
     4    24    25   ar
     5    25    26   ar
     6    25    27    1
     7    27    28    1
     8    28    29    1
     9    29    30    1
    10    30    20    1
    11    20    31    1
    12    31    32    1
    13    32    33    1
    14    33    34    1
    15    20    19    1
    16     1    19    1
    17     1     2    1
    18     2     3    1
    19     3     4   ar
    20     4     5   ar
    21     5     6   ar
    22     6     7   ar
    23     7     8   ar
    24     8    12    1
    25    12    13    1
    26    13    14    1
    27    14    15    1
    28    15    16    1
    29    16    17    1
    30     4     9    1
    31     9    10    1
    32    26    21   ar
    33    34    32    1
    34    10     1    1
    35    30    24    1
    36     8     3   ar
    37    17    12    1
    38    15    18    1
    39    10    11    1
@<TRIPOS>MOLECULE
*****
 34 39 0 0 0
SMALL
GASTEIGER

@<TRIPOS>ATOM
      1 C          -5.9583  -19.9067   21.2591 C.3     1  UNL1        0.0749
      2 C          -5.5615  -18.7080   22.0688 C.3     1  UNL1        0.0444
      3 C          -4.2133  -18.0812   21.8696 C.ar    1  UNL1       -0.0101
      4 C          -3.2620  -18.6531   20.8607 C.ar    1  UNL1       -0.0091
      5 C          -1.9139  -18.0263   20.6616 C.ar    1  UNL1       -0.0032
      6 C          -1.5171  -16.8276   21.4712 C.ar    1  UNL1        0.0010
      7 C          -2.4685  -16.2557   22.4801 C.ar    1  UNL1        0.0142
      8 C          -3.8166  -16.8824   22.6793 C.ar    1  UNL1        0.0436
      9 C          -3.6588  -19.8519   20.0510 C.3     1  UNL1        0.0954
     10 N          -5.0069  -20.4786   20.2502 N.3     1  UNL1       -0.2934
     11 H          -4.8437  -21.4496   20.5167 H       1  UNL1        0.1236
     12 N          -4.7680  -16.3105   23.6881 N.pl3   1  UNL1       -0.3049
     13 C          -5.9979  -15.5836   23.2313 C.3     1  UNL1        0.1079
     14 C          -6.9493  -15.0117   24.2401 C.3     1  UNL1        0.0903
     15 N          -6.6708  -15.1667   25.7058 N.3     1  UNL1       -0.2946
     16 C          -5.4408  -15.8936   26.1627 C.3     1  UNL1        0.0903
     17 C          -4.4894  -16.4655   25.1538 C.3     1  UNL1        0.1079
     18 H          -7.4694  -15.6583   26.1070 H       1  UNL1        0.1233
     19 C          -7.3064  -20.5335   21.4582 C.3     1  UNL1        0.0886
     20 N          -8.5400  -19.8278   20.9782 N.3     1  UNL1       -0.2679
     21 C         -12.4790  -16.1228   20.8937 C.ar    1  UNL1        0.0203
     22 C         -11.4258  -16.5437   19.9121 C.ar    1  UNL1        0.0985
     23 N         -10.4638  -17.6384   20.2674 N.ar    1  UNL1       -0.2471
     24 C         -10.5551  -18.3122   21.6044 C.ar    1  UNL1        0.0695
     25 C         -11.6083  -17.8914   22.5860 C.ar    1  UNL1       -0.0073
     26 C         -12.5703  -16.7967   22.2306 C.ar    1  UNL1       -0.0015
     27 C         -11.6997  -18.5653   23.9231 C.3     1  UNL1        0.0277
     28 C         -10.7377  -19.6600   24.2784 C.3     1  UNL1        0.0065
     29 C          -9.6845  -20.0808   23.2968 C.3     1  UNL1        0.0224
     30 C          -9.5932  -19.4069   21.9598 C.3     1  UNL1        0.0978
     31 C          -8.7202  -19.5430   19.5166 C.3     1  UNL1        0.0724
     32 C          -8.7824  -20.6747   18.5340 C.3     1  UNL1        0.0160
     33 C          -8.4583  -22.0912   18.1618 C.3     1  UNL1        0.0014
     34 C          -9.2141  -21.2184   17.2043 C.3     1  UNL1        0.0014
@<TRIPOS>BOND
     1    21    22   ar
     2    22    23   ar
     3    23    24   ar
     4    24    25   ar
     5    25    26   ar
     6    25    27    1
     7    27    28    1
     8    28    29    1
     9    29    30    1
    10    30    20    1
    11    20    31    1
    12    31    32    1
    13    32    33    1
    14    33    34    1
    15    20    19    1
    16     1    19    1
    17     1     2    1
    18     2     3    1
    19     3     4   ar
    20     4     5   ar
    21     5     6   ar
    22     6     7   ar
    23     7     8   ar
    24     8    12    1
    25    12    13    1
    26    13    14    1
    27    14    15    1
    28    15    16    1
    29    16    17    1
    30     4     9    1
    31     9    10    1
    32    26    21   ar
    33    34    32    1
    34    10     1    1
    35    30    24    1
    36     8     3   ar
    37    17    12    1
    38    15    18    1
    39    10    11    1
@<TRIPOS>MOLECULE
*****
 34 39 0 0 0
SMALL
GASTEIGER

@<TRIPOS>ATOM
      1 C          -8.9041  -19.7638   23.3300 C.3     1  UNL1        0.0749
      2 C          -9.7342  -18.6720   22.7226 C.3     1  UNL1        0.0444
      3 C         -11.1032  -18.3820   23.2628 C.ar    1  UNL1       -0.0101
      4 C         -11.6421  -19.1837   24.4102 C.ar    1  UNL1       -0.0091
      5 C         -13.0111  -18.8937   24.9503 C.ar    1  UNL1       -0.0032
      6 C         -13.8412  -17.8018   24.3429 C.ar    1  UNL1        0.0010
      7 C         -13.3023  -17.0001   23.1955 C.ar    1  UNL1        0.0142
      8 C         -11.9333  -17.2901   22.6554 C.ar    1  UNL1        0.0436
      9 C         -10.8120  -20.2755   25.0176 C.3     1  UNL1        0.0954
     10 N          -9.4431  -20.5656   24.4775 N.3     1  UNL1       -0.2934
     11 H          -9.4445  -21.5413   24.1800 H       1  UNL1        0.1236
     12 N         -11.3943  -16.4884   21.5079 N.pl3   1  UNL1       -0.3049
     13 C         -12.1358  -16.4523   20.2044 C.3     1  UNL1        0.1079
     14 C         -11.5969  -15.6506   19.0569 C.3     1  UNL1        0.0903
     15 N         -10.3165  -14.8848   19.2128 N.3     1  UNL1       -0.2946
     16 C          -9.5750  -14.9209   20.5163 C.3     1  UNL1        0.0903
     17 C         -10.1140  -15.7227   21.6638 C.3     1  UNL1        0.1079
     18 H         -10.5339  -13.9062   19.0247 H       1  UNL1        0.1233
     19 C          -7.5351  -20.0539   22.7899 C.3     1  UNL1        0.0886
     20 N          -7.0888  -19.4277   21.5019 N.3     1  UNL1       -0.2679
     21 C          -2.5580  -16.7794   22.8090 C.ar    1  UNL1        0.0203
     22 C          -3.9900  -16.6667   23.2410 C.ar    1  UNL1        0.0985
     23 N          -5.0229  -17.5870   22.6613 N.ar    1  UNL1       -0.2471
     24 C          -4.6239  -18.6200   21.6496 C.ar    1  UNL1        0.0695
     25 C          -3.1919  -18.7327   21.2176 C.ar    1  UNL1       -0.0073
     26 C          -2.1590  -17.8124   21.7973 C.ar    1  UNL1       -0.0015
     27 C          -2.7928  -19.7658   20.2058 C.3     1  UNL1        0.0277
     28 C          -3.8257  -20.6861   19.6261 C.3     1  UNL1        0.0065
     29 C          -5.2578  -20.5734   20.0582 C.3     1  UNL1        0.0224
     30 C          -5.6568  -19.5404   21.0699 C.3     1  UNL1        0.0978
     31 C          -8.0745  -18.6888   20.6461 C.3     1  UNL1        0.0724
     32 C          -8.9205  -19.4378   19.6594 C.3     1  UNL1        0.0160
     33 C         -10.2688  -19.7674   19.0907 C.3     1  UNL1        0.0014
     34 C          -9.0375  -20.4054   18.5192 C.3     1  UNL1        0.0014
@<TRIPOS>BOND
     1    21    22   ar
     2    22    23   ar
     3    23    24   ar
     4    24    25   ar
     5    25    26   ar
     6    25    27    1
     7    27    28    1
     8    28    29    1
     9    29    30    1
    10    30    20    1
    11    20    31    1
    12    31    32    1
    13    32    33    1
    14    33    34    1
    15    20    19    1
    16     1    19    1
    17     1     2    1
    18     2     3    1
    19     3     4   ar
    20     4     5   ar
    21     5     6   ar
    22     6     7   ar
    23     7     8   ar
    24     8    12    1
    25    12    13    1
    26    13    14    1
    27    14    15    1
    28    15    16    1
    29    16    17    1
    30     4     9    1
    31     9    10    1
    32    26    21   ar
    33    34    32    1
    34    10     1    1
    35    30    24    1
    36     8     3   ar
    37    17    12    1
    38    15    18    1
    39    10    11    1
@<TRIPOS>MOLECULE
*****
 34 39 0 0 0
SMALL
GASTEIGER

@<TRIPOS>ATOM
      1 C          -8.3650  -16.3153   22.3151 C.3     1  UNL1        0.0749
      2 C          -6.9287  -16.6313   22.6104 C.3     1  UNL1        0.0444
      3 C          -6.3108  -16.1778   23.8999 C.ar    1  UNL1       -0.0101
      4 C          -7.1292  -15.4084   24.8940 C.ar    1  UNL1       -0.0091
      5 C          -6.5113  -14.9550   26.1833 C.ar    1  UNL1       -0.0032
      6 C          -5.0750  -15.2709   26.4786 C.ar    1  UNL1        0.0010
      7 C          -4.2566  -16.0403   25.4846 C.ar    1  UNL1        0.0142
      8 C          -4.8745  -16.4938   24.1952 C.ar    1  UNL1        0.0436
      9 C          -8.5655  -15.0925   24.5986 C.3     1  UNL1        0.0954
     10 N          -9.1834  -15.5459   23.3093 N.3     1  UNL1       -0.2934
     11 H          -9.5159  -14.7083   22.8315 H       1  UNL1        0.1236
     12 N          -4.0561  -17.2632   23.2010 N.pl3   1  UNL1       -0.3049
     13 C          -2.9442  -16.5833   22.4585 C.3     1  UNL1        0.1079
     14 C          -2.1258  -17.3526   21.4644 C.3     1  UNL1        0.0903
     15 N          -2.4193  -18.8020   21.2128 N.3     1  UNL1       -0.2946
     16 C          -3.5312  -19.4819   21.9553 C.3     1  UNL1        0.0903
     17 C          -4.3496  -18.7125   22.9495 C.3     1  UNL1        0.1079
     18 H          -1.5649  -19.3167   21.4259 H       1  UNL1        0.1233
     19 C          -8.9829  -16.7688   21.0257 C.3     1  UNL1        0.0886
     20 N          -9.6768  -18.0967   20.9527 N.3     1  UNL1       -0.2679
     21 C         -13.7926  -17.9868   24.4596 C.ar    1  UNL1        0.0203
     22 C         -13.4786  -17.2344   23.2006 C.ar    1  UNL1        0.0985
     23 N         -12.2114  -17.5218   22.4513 N.ar    1  UNL1       -0.2471
     24 C         -11.2581  -18.5616   22.9611 C.ar    1  UNL1        0.0695
     25 C         -11.5720  -19.3140   24.2201 C.ar    1  UNL1       -0.0073
     26 C         -12.8393  -19.0266   24.9694 C.ar    1  UNL1       -0.0015
     27 C         -10.6187  -20.3539   24.7300 C.3     1  UNL1        0.0277
     28 C          -9.3514  -20.6413   23.9807 C.3     1  UNL1        0.0065
     29 C          -9.0375  -19.8888   22.7216 C.3     1  UNL1        0.0224
     30 C          -9.9908  -18.8490   22.2118 C.3     1  UNL1        0.0978
     31 C         -10.0568  -18.6721   19.6206 C.3     1  UNL1        0.0724
     32 C          -9.2453  -19.7843   19.0251 C.3     1  UNL1        0.0160
     33 C          -7.9777  -20.5846   18.9750 C.3     1  UNL1        0.0014
     34 C          -9.1074  -20.9101   18.0436 C.3     1  UNL1        0.0014
@<TRIPOS>BOND
     1    21    22   ar
     2    22    23   ar
     3    23    24   ar
     4    24    25   ar
     5    25    26   ar
     6    25    27    1
     7    27    28    1
     8    28    29    1
     9    29    30    1
    10    30    20    1
    11    20    31    1
    12    31    32    1
    13    32    33    1
    14    33    34    1
    15    20    19    1
    16     1    19    1
    17     1     2    1
    18     2     3    1
    19     3     4   ar
    20     4     5   ar
    21     5     6   ar
    22     6     7   ar
    23     7     8   ar
    24     8    12    1
    25    12    13    1
    26    13    14    1
    27    14    15    1
    28    15    16    1
    29    16    17    1
    30     4     9    1
    31     9    10    1
    32    26    21   ar
    33    34    32    1
    34    10     1    1
    35    30    24    1
    36     8     3   ar
    37    17    12    1
    38    15    18    1
    39    10    11    1
@<TRIPOS>MOLECULE
*****
 34 39 0 0 0
SMALL
GASTEIGER

@<TRIPOS>ATOM
      1 C          -8.4353  -15.8520   22.3185 C.3     1  UNL1        0.0749
      2 C          -7.1786  -16.6705   22.2961 C.3     1  UNL1        0.0444
      3 C          -6.2391  -16.6345   23.4649 C.ar    1  UNL1       -0.0101
      4 C          -6.5564  -15.7799   24.6561 C.ar    1  UNL1       -0.0091
      5 C          -5.6170  -15.7439   25.8249 C.ar    1  UNL1       -0.0032
      6 C          -4.3602  -16.5625   25.8025 C.ar    1  UNL1        0.0010
      7 C          -4.0429  -17.4170   24.6113 C.ar    1  UNL1        0.0142
      8 C          -4.9823  -17.4530   23.4425 C.ar    1  UNL1        0.0436
      9 C          -7.8132  -14.9614   24.6785 C.3     1  UNL1        0.0954
     10 N          -8.7526  -14.9974   23.5097 N.3     1  UNL1       -0.2934
     11 H          -8.8374  -14.0392   23.1705 H       1  UNL1        0.1236
     12 N          -4.6650  -18.3077   22.2513 N.pl3   1  UNL1       -0.3049
     13 C          -5.5858  -19.4268   21.8645 C.3     1  UNL1        0.1079
     14 C          -5.2686  -20.2814   20.6733 C.3     1  UNL1        0.0903
     15 N          -4.0305  -20.0168   19.8688 N.3     1  UNL1       -0.2946
     16 C          -3.1097  -18.8977   20.2555 C.3     1  UNL1        0.0903
     17 C          -3.4270  -18.0431   21.4468 C.3     1  UNL1        0.1079
     18 H          -4.3345  -19.8311   18.9130 H       1  UNL1        0.1233
     19 C          -9.3748  -15.8880   21.1497 C.3     1  UNL1        0.0886
     20 N         -10.3277  -17.0352   20.9884 N.3     1  UNL1       -0.2679
     21 C          -9.4547  -20.9512   24.6151 C.ar    1  UNL1        0.0203
     22 C          -8.6884  -20.4405   23.4310 C.ar    1  UNL1        0.0985
     23 N          -9.2349  -19.3054   22.6168 N.ar    1  UNL1       -0.2471
     24 C         -10.5475  -18.6809   22.9867 C.ar    1  UNL1        0.0695
     25 C         -11.3138  -19.1916   24.1707 C.ar    1  UNL1       -0.0073
     26 C         -10.7674  -20.3267   24.9849 C.ar    1  UNL1       -0.0015
     27 C         -12.6265  -18.5671   24.5407 C.3     1  UNL1        0.0277
     28 C         -13.1730  -17.4320   23.7265 C.3     1  UNL1        0.0065
     29 C         -12.4066  -16.9213   22.5423 C.3     1  UNL1        0.0224
     30 C         -11.0940  -17.5458   22.1725 C.3     1  UNL1        0.0978
     31 C         -10.5143  -17.6717   19.6430 C.3     1  UNL1        0.0724
     32 C          -9.7432  -18.9074   19.2845 C.3     1  UNL1        0.0160
     33 C          -8.4340  -19.6244   19.1367 C.3     1  UNL1        0.0014
     34 C          -9.7167  -20.3305   18.8113 C.3     1  UNL1        0.0014
@<TRIPOS>BOND
     1    21    22   ar
     2    22    23   ar
     3    23    24   ar
     4    24    25   ar
     5    25    26   ar
     6    25    27    1
     7    27    28    1
     8    28    29    1
     9    29    30    1
    10    30    20    1
    11    20    31    1
    12    31    32    1
    13    32    33    1
    14    33    34    1
    15    20    19    1
    16     1    19    1
    17     1     2    1
    18     2     3    1
    19     3     4   ar
    20     4     5   ar
    21     5     6   ar
    22     6     7   ar
    23     7     8   ar
    24     8    12    1
    25    12    13    1
    26    13    14    1
    27    14    15    1
    28    15    16    1
    29    16    17    1
    30     4     9    1
    31     9    10    1
    32    26    21   ar
    33    34    32    1
    34    10     1    1
    35    30    24    1
    36     8     3   ar
    37    17    12    1
    38    15    18    1
    39    10    11    1
@<TRIPOS>MOLECULE
*****
 34 39 0 0 0
SMALL
GASTEIGER

@<TRIPOS>ATOM
      1 C           4.1526   -1.7714   24.1708 C.3     1  UNL1        0.0749
      2 C           3.5947   -1.2629   22.8746 C.3     1  UNL1        0.0444
      3 C           3.9031   -1.9789   21.5931 C.ar    1  UNL1       -0.0101
      4 C           4.7692   -3.2035   21.6078 C.ar    1  UNL1       -0.0091
      5 C           5.0775   -3.9195   20.3263 C.ar    1  UNL1       -0.0032
      6 C           4.5196   -3.4110   19.0301 C.ar    1  UNL1        0.0010
      7 C           3.6534   -2.1865   19.0154 C.ar    1  UNL1        0.0142
      8 C           3.3452   -1.4704   20.2968 C.ar    1  UNL1        0.0436
      9 C           5.3271   -3.7120   22.9040 C.3     1  UNL1        0.0954
     10 N           5.0188   -2.9959   24.1855 N.3     1  UNL1       -0.2934
     11 H           5.9131   -2.7192   24.5907 H       1  UNL1        0.1236
     12 N           2.4789   -0.2459   20.2822 N.pl3   1  UNL1       -0.3049
     13 C           3.1055    1.1151   20.2103 C.3     1  UNL1        0.1079
     14 C           2.2394    2.3397   20.1956 C.3     1  UNL1        0.0903
     15 N           0.7466    2.2033   20.2528 N.3     1  UNL1       -0.2946
     16 C           0.1201    0.8423   20.3247 C.3     1  UNL1        0.0903
     17 C           0.9863   -0.3823   20.3394 C.3     1  UNL1        0.1079
     18 H           0.3775    2.6535   19.4153 H       1  UNL1        0.1233
     19 C           3.8444   -1.0553   25.4523 C.3     1  UNL1        0.0886
     20 N           3.5883    0.4227   25.4428 N.3     1  UNL1       -0.2679
     21 C          -0.3448    0.7300   29.1422 C.ar    1  UNL1        0.0203
     22 C           1.0630    0.2129   29.1615 C.ar    1  UNL1        0.0985
     23 N           1.9048    0.2828   27.9219 N.ar    1  UNL1       -0.2471
     24 C           1.3387    0.8699   26.6631 C.ar    1  UNL1        0.0695
     25 C          -0.0692    1.3870   26.6438 C.ar    1  UNL1       -0.0073
     26 C          -0.9110    1.3171   27.8834 C.ar    1  UNL1       -0.0015
     27 C          -0.6354    1.9741   25.3849 C.3     1  UNL1        0.0277
     28 C           0.2064    2.0441   24.1453 C.3     1  UNL1        0.0065
     29 C           1.6143    1.5269   24.1646 C.3     1  UNL1        0.0224
     30 C           2.1804    0.9398   25.4235 C.3     1  UNL1        0.0978
     31 C           4.7402    1.3835   25.4526 C.3     1  UNL1        0.0724
     32 C           5.3758    1.8054   24.1611 C.3     1  UNL1        0.0160
     33 C           6.1839    1.4738   22.9416 C.3     1  UNL1        0.0014
     34 C           5.6688    2.8680   23.1437 C.3     1  UNL1        0.0014
@<TRIPOS>BOND
     1    21    22   ar
     2    22    23   ar
     3    23    24   ar
     4    24    25   ar
     5    25    26   ar
     6    25    27    1
     7    27    28    1
     8    28    29    1
     9    29    30    1
    10    30    20    1
    11    20    31    1
    12    31    32    1
    13    32    33    1
    14    33    34    1
    15    20    19    1
    16     1    19    1
    17     1     2    1
    18     2     3    1
    19     3     4   ar
    20     4     5   ar
    21     5     6   ar
    22     6     7   ar
    23     7     8   ar
    24     8    12    1
    25    12    13    1
    26    13    14    1
    27    14    15    1
    28    15    16    1
    29    16    17    1
    30     4     9    1
    31     9    10    1
    32    26    21   ar
    33    34    32    1
    34    10     1    1
    35    30    24    1
    36     8     3   ar
    37    17    12    1
    38    15    18    1
    39    10    11    1
@<TRIPOS>MOLECULE
*****
 34 39 0 0 0
SMALL
GASTEIGER

@<TRIPOS>ATOM
      1 C          -8.9189  -19.6717   23.2710 C.3     1  UNL1        0.0749
      2 C          -9.7838  -18.6126   22.6543 C.3     1  UNL1        0.0444
      3 C         -11.1474  -18.3374   23.2154 C.ar    1  UNL1       -0.0101
      4 C         -11.6461  -19.1212   24.3930 C.ar    1  UNL1       -0.0091
      5 C         -13.0097  -18.8459   24.9540 C.ar    1  UNL1       -0.0032
      6 C         -13.8746  -17.7868   24.3373 C.ar    1  UNL1        0.0010
      7 C         -13.3759  -17.0030   23.1597 C.ar    1  UNL1        0.0142
      8 C         -12.0123  -17.2783   22.5987 C.ar    1  UNL1        0.0436
      9 C         -10.7812  -20.1803   25.0097 C.3     1  UNL1        0.0954
     10 N          -9.4176  -20.4556   24.4487 N.3     1  UNL1       -0.2934
     11 H          -9.4046  -21.4381   24.1753 H       1  UNL1        0.1236
     12 N         -11.5136  -16.4944   21.4210 N.pl3   1  UNL1       -0.3049
     13 C         -12.2672  -16.5277   20.1245 C.3     1  UNL1        0.1079
     14 C         -11.7685  -15.7439   18.9468 C.3     1  UNL1        0.0903
     15 N         -10.5161  -14.9269   19.0656 N.3     1  UNL1       -0.2946
     16 C          -9.7624  -14.8936   20.3622 C.3     1  UNL1        0.0903
     17 C         -10.2612  -15.6775   21.5399 C.3     1  UNL1        0.1079
     18 H         -10.7713  -13.9634   18.8487 H       1  UNL1        0.1233
     19 C          -7.5553  -19.9470   22.7100 C.3     1  UNL1        0.0886
     20 N          -6.8076  -18.8639   21.9903 N.3     1  UNL1       -0.2679
     21 C          -1.7880  -16.8524   22.0790 C.ar    1  UNL1        0.0203
     22 C          -3.0519  -16.5274   22.8184 C.ar    1  UNL1        0.0985
     23 N          -4.3038  -17.3062   22.5424 N.ar    1  UNL1       -0.2471
     24 C          -4.2918  -18.4101   21.5269 C.ar    1  UNL1        0.0695
     25 C          -3.0279  -18.7351   20.7875 C.ar    1  UNL1       -0.0073
     26 C          -1.7760  -17.9563   21.0635 C.ar    1  UNL1       -0.0015
     27 C          -3.0159  -19.8391   19.7719 C.3     1  UNL1        0.0277
     28 C          -4.2677  -20.6179   19.4959 C.3     1  UNL1        0.0065
     29 C          -5.5317  -20.2928   20.2354 C.3     1  UNL1        0.0224
     30 C          -5.5437  -19.1889   21.2509 C.3     1  UNL1        0.0978
     31 C          -7.3240  -17.4557   22.0101 C.3     1  UNL1        0.0724
     32 C          -7.2539  -16.6489   23.2728 C.3     1  UNL1        0.0160
     33 C          -6.6197  -15.5580   24.0839 C.3     1  UNL1        0.0014
     34 C          -7.7668  -16.3423   24.6486 C.3     1  UNL1        0.0014
@<TRIPOS>BOND
     1    21    22   ar
     2    22    23   ar
     3    23    24   ar
     4    24    25   ar
     5    25    26   ar
     6    25    27    1
     7    27    28    1
     8    28    29    1
     9    29    30    1
    10    30    20    1
    11    20    31    1
    12    31    32    1
    13    32    33    1
    14    33    34    1
    15    20    19    1
    16     1    19    1
    17     1     2    1
    18     2     3    1
    19     3     4   ar
    20     4     5   ar
    21     5     6   ar
    22     6     7   ar
    23     7     8   ar
    24     8    12    1
    25    12    13    1
    26    13    14    1
    27    14    15    1
    28    15    16    1
    29    16    17    1
    30     4     9    1
    31     9    10    1
    32    26    21   ar
    33    34    32    1
    34    10     1    1
    35    30    24    1
    36     8     3   ar
    37    17    12    1
    38    15    18    1
    39    10    11    1
