@<TRIPOS>MOLECULE
*****
 34 37 0 0 0
SMALL
GASTEIGER

@<TRIPOS>ATOM
      1 C           6.1120    0.5799   22.7257 C.3     1  UNL1        0.1153
      2 N           6.1311   -0.8437   23.1979 N.am    1  UNL1       -0.2714
      3 C           7.4151   -1.4613   23.6667 C.2     1  UNL1        0.2665
      4 O           8.6801   -0.6552   23.6633 O.2     1  UNL1       -0.2710
      5 C           7.4342   -2.8849   24.1389 C.3     1  UNL1        0.2457
      6 C           8.0535   -4.0450   23.4173 C.3     1  UNL1        0.0826
      7 C           7.8393   -5.2754   24.2480 C.ar    1  UNL1        0.0172
      8 C           8.2316   -6.7081   24.0394 C.ar    1  UNL1       -0.0011
      9 C           7.8723   -7.7411   25.0658 C.ar    1  UNL1        0.0012
     10 C           7.1206   -7.3415   26.3009 C.ar    1  UNL1        0.0189
     11 C           6.7283   -5.9089   26.5095 C.ar    1  UNL1        0.0980
     12 C           7.0876   -4.8759   25.4830 C.ar    1  UNL1        0.1496
     13 O           6.8373   -3.3984   25.4156 O.3     1  UNL1       -0.4686
     14 N           5.9766   -5.5093   27.7445 N.pl3   1  UNL1       -0.2158
     15 H           5.0043   -5.6542   27.7974 H       1  UNL1        0.1735
     16 S           6.7064   -4.8890   28.8989 S.O2    1  UNL1        0.0559
     17 C           7.4362   -4.2687   30.0533 C.3     1  UNL1        0.1996
     18 O           6.1174   -3.5535   28.5536 O.2     1  UNL1       -0.1544
     19 O           7.2954   -6.2246   29.2442 O.2     1  UNL1       -0.1544
     20 C           4.8660   -1.6498   23.2013 C.3     1  UNL1        0.1139
     21 C           4.3992   -2.3182   21.9422 C.ar    1  UNL1       -0.0029
     22 C           3.5897   -1.5492   20.9405 C.ar    1  UNL1       -0.0026
     23 C           3.1230   -2.2177   19.6814 C.ar    1  UNL1       -0.0003
     24 C           3.4657   -3.6551   19.4240 C.ar    1  UNL1       -0.0000
     25 C           4.2752   -4.4241   20.4257 C.ar    1  UNL1       -0.0003
     26 C           4.7420   -3.7557   21.6848 C.ar    1  UNL1       -0.0026
     27 C           4.0677   -1.7873   24.4638 C.3     1  UNL1        0.0968
     28 N           3.2778   -0.6224   24.9823 N.3     1  UNL1       -0.2689
     29 C           2.3485    0.2397   24.1802 C.3     1  UNL1        0.0748
     30 C           1.7748    1.2799   25.0961 C.3     1  UNL1        0.0480
     31 C           2.3495    1.0606   26.4641 C.3     1  UNL1        0.1278
     32 O           2.0481    1.8743   27.6878 O.3     1  UNL1       -0.3830
     33 C           3.2784   -0.1150   26.3939 C.3     1  UNL1        0.1017
     34 H           2.5498    1.5240   28.4406 H       1  UNL1        0.2104
@<TRIPOS>BOND
     1     1     2    1
     2     2     3   am
     3     3     4    2
     4     5     3    1
     5     5     6    1
     6     6     7    1
     7     7     8   ar
     8     8     9   ar
     9     9    10   ar
    10    10    11   ar
    11    11    14    1
    12    14    16    1
    13    16    17    1
    14    16    18    2
    15    16    19    2
    16    11    12   ar
    17    12    13    1
    18     2    20    1
    19    20    27    1
    20    27    28    1
    21    28    29    1
    22    29    30    1
    23    30    31    1
    24    31    32    1
    25    31    33    1
    26    20    21    1
    27    21    22   ar
    28    22    23   ar
    29    23    24   ar
    30    24    25   ar
    31    25    26   ar
    32    13     5    1
    33    33    28    1
    34    26    21   ar
    35    12     7   ar
    36    14    15    1
    37    32    34    1
@<TRIPOS>MOLECULE
*****
 34 37 0 0 0
SMALL
GASTEIGER

@<TRIPOS>ATOM
      1 C           1.1661    0.5996   18.3795 C.3     1  UNL1        0.1153
      2 N           2.0292    0.4502   19.5972 N.am    1  UNL1       -0.2714
      3 C           1.4292    0.5958   20.9642 C.2     1  UNL1        0.2665
      4 O          -0.0339    0.8908   21.1135 O.2     1  UNL1       -0.2710
      5 C           2.2922    0.4465   22.1819 C.3     1  UNL1        0.2457
      6 C           2.6267    1.5300   23.1638 C.3     1  UNL1        0.0826
      7 C           3.5136    0.9406   24.2203 C.ar    1  UNL1        0.0172
      8 C           4.1542    1.5351   25.4393 C.ar    1  UNL1       -0.0011
      9 C           5.0084    0.6819   26.3294 C.ar    1  UNL1        0.0012
     10 C           5.2220   -0.7659   26.0004 C.ar    1  UNL1        0.0189
     11 C           4.5813   -1.3605   24.7814 C.ar    1  UNL1        0.0980
     12 C           3.7271   -0.5073   23.8914 C.ar    1  UNL1        0.1496
     13 O           2.9723   -0.8126   22.6316 O.3     1  UNL1       -0.4686
     14 N           4.7949   -2.8083   24.4525 N.pl3   1  UNL1       -0.2158
     15 H           4.4330   -3.5063   25.0450 H       1  UNL1        0.1735
     16 S           5.5599   -3.1927   23.2208 S.O2    1  UNL1        0.0559
     17 C           6.3248   -3.5771   21.9890 C.3     1  UNL1        0.1996
     18 O           4.3259   -3.8288   22.6529 O.2     1  UNL1       -0.1544
     19 O           6.7938   -2.5565   23.7886 O.2     1  UNL1       -0.1544
     20 C           3.4924    0.1553   19.4479 C.3     1  UNL1        0.1139
     21 C           3.9517   -1.2489   19.1887 C.ar    1  UNL1       -0.0029
     22 C           3.1138   -2.4078   19.6414 C.ar    1  UNL1       -0.0026
     23 C           3.5732   -3.8120   19.3822 C.ar    1  UNL1       -0.0003
     24 C           4.8705   -4.0573   18.6705 C.ar    1  UNL1       -0.0000
     25 C           5.7085   -2.8985   18.2178 C.ar    1  UNL1       -0.0003
     26 C           5.2491   -1.4943   18.4770 C.ar    1  UNL1       -0.0026
     27 C           4.4961    1.2646   19.5577 C.3     1  UNL1        0.0968
     28 N           5.3703    1.3675   20.7722 N.3     1  UNL1       -0.2689
     29 C           5.6495    2.6167   21.5543 C.3     1  UNL1        0.0748
     30 C           6.5705    2.2606   22.6833 C.3     1  UNL1        0.0480
     31 C           6.8605    0.7913   22.5991 C.3     1  UNL1        0.1278
     32 O           7.7383    0.0109   23.5322 O.3     1  UNL1       -0.3830
     33 C           6.1188    0.2393   21.4180 C.3     1  UNL1        0.1017
     34 H           7.7572   -0.9189   23.2566 H       1  UNL1        0.2104
@<TRIPOS>BOND
     1     1     2    1
     2     2     3   am
     3     3     4    2
     4     5     3    1
     5     5     6    1
     6     6     7    1
     7     7     8   ar
     8     8     9   ar
     9     9    10   ar
    10    10    11   ar
    11    11    14    1
    12    14    16    1
    13    16    17    1
    14    16    18    2
    15    16    19    2
    16    11    12   ar
    17    12    13    1
    18     2    20    1
    19    20    27    1
    20    27    28    1
    21    28    29    1
    22    29    30    1
    23    30    31    1
    24    31    32    1
    25    31    33    1
    26    20    21    1
    27    21    22   ar
    28    22    23   ar
    29    23    24   ar
    30    24    25   ar
    31    25    26   ar
    32    13     5    1
    33    33    28    1
    34    26    21   ar
    35    12     7   ar
    36    14    15    1
    37    32    34    1
@<TRIPOS>MOLECULE
*****
 34 37 0 0 0
SMALL
GASTEIGER

@<TRIPOS>ATOM
      1 C           6.5862    0.7694   16.6729 C.3     1  UNL1        0.1153
      2 N           5.8401    0.5054   17.9471 N.am    1  UNL1       -0.2714
      3 C           6.5768    0.4652   19.2531 C.2     1  UNL1        0.2665
      4 O           8.0597    0.6889   19.2848 O.2     1  UNL1       -0.2710
      5 C           5.8307    0.2011   20.5273 C.3     1  UNL1        0.2457
      6 C           5.0331    1.2047   21.3062 C.3     1  UNL1        0.0826
      7 C           4.4607    0.5110   22.5066 C.ar    1  UNL1        0.0172
      8 C           3.5927    0.9986   23.6286 C.ar    1  UNL1       -0.0011
      9 C           3.1684    0.0538   24.7136 C.ar    1  UNL1        0.0012
     10 C           3.6122   -1.3786   24.6766 C.ar    1  UNL1        0.0189
     11 C           4.4802   -1.8662   23.5547 C.ar    1  UNL1        0.0980
     12 C           4.9044   -0.9213   22.4697 C.ar    1  UNL1        0.1496
     13 O           5.7512   -1.1128   21.2464 O.3     1  UNL1       -0.4686
     14 N           4.9240   -3.2985   23.5177 N.pl3   1  UNL1       -0.2158
     15 H           4.2839   -4.0060   23.2748 H       1  UNL1        0.1735
     16 S           6.3429   -3.6529   23.8509 S.O2    1  UNL1        0.0559
     17 C           7.7619   -4.0073   24.1841 C.3     1  UNL1        0.1996
     18 O           6.2423   -2.8616   25.1212 O.2     1  UNL1       -0.1544
     19 O           6.4435   -4.4442   22.5806 O.2     1  UNL1       -0.1544
     20 C           4.3571    0.2816   17.9154 C.3     1  UNL1        0.1139
     21 C           3.4212    1.4133   18.2207 C.ar    1  UNL1       -0.0029
     22 C           1.9858    1.1308   18.5525 C.ar    1  UNL1       -0.0026
     23 C           1.0499    2.2625   18.8578 C.ar    1  UNL1       -0.0003
     24 C           1.5492    3.6767   18.8313 C.ar    1  UNL1       -0.0000
     25 C           2.9844    3.9592   18.4996 C.ar    1  UNL1       -0.0003
     26 C           3.9205    2.8275   18.1942 C.ar    1  UNL1       -0.0026
     27 C           3.8103   -1.0738   17.5783 C.3     1  UNL1        0.0968
     28 N           4.2223   -2.2703   18.3836 N.3     1  UNL1       -0.2689
     29 C           5.4766   -3.0708   18.1946 C.3     1  UNL1        0.0748
     30 C           5.4819   -4.1716   19.2135 C.3     1  UNL1        0.0480
     31 C           4.2308   -4.0515   20.0321 C.3     1  UNL1        0.1278
     32 O           3.8287   -4.9489   21.1649 O.3     1  UNL1       -0.3830
     33 C           3.4523   -2.8764   19.5193 C.3     1  UNL1        0.1017
     34 H           2.9773   -4.6542   21.5243 H       1  UNL1        0.2104
@<TRIPOS>BOND
     1     1     2    1
     2     2     3   am
     3     3     4    2
     4     5     3    1
     5     5     6    1
     6     6     7    1
     7     7     8   ar
     8     8     9   ar
     9     9    10   ar
    10    10    11   ar
    11    11    14    1
    12    14    16    1
    13    16    17    1
    14    16    18    2
    15    16    19    2
    16    11    12   ar
    17    12    13    1
    18     2    20    1
    19    20    27    1
    20    27    28    1
    21    28    29    1
    22    29    30    1
    23    30    31    1
    24    31    32    1
    25    31    33    1
    26    20    21    1
    27    21    22   ar
    28    22    23   ar
    29    23    24   ar
    30    24    25   ar
    31    25    26   ar
    32    13     5    1
    33    33    28    1
    34    26    21   ar
    35    12     7   ar
    36    14    15    1
    37    32    34    1
@<TRIPOS>MOLECULE
*****
 34 37 0 0 0
SMALL
GASTEIGER

@<TRIPOS>ATOM
      1 C           5.5994    1.5360   23.0689 C.3     1  UNL1        0.1153
      2 N           4.4339    1.1675   23.9384 N.am    1  UNL1       -0.2714
      3 C           4.0539    2.0444   25.0945 C.2     1  UNL1        0.2665
      4 O           4.8393    3.2897   25.3811 O.2     1  UNL1       -0.2710
      5 C           2.8884    1.6760   25.9639 C.3     1  UNL1        0.2457
      6 C           1.4652    2.1028   25.7582 C.3     1  UNL1        0.0826
      7 C           0.6387    1.5066   26.8588 C.ar    1  UNL1        0.0172
      8 C          -0.8268    1.5853   27.1688 C.ar    1  UNL1       -0.0011
      9 C          -1.3799    0.8685   28.3647 C.ar    1  UNL1        0.0012
     10 C          -0.4676    0.0731   29.2506 C.ar    1  UNL1        0.0189
     11 C           0.9979   -0.0055   28.9407 C.ar    1  UNL1        0.0980
     12 C           1.5510    0.7113   27.7448 C.ar    1  UNL1        0.1496
     13 O           2.9414    0.8159   27.1917 O.3     1  UNL1       -0.4686
     14 N           1.9103   -0.8009   29.8267 N.pl3   1  UNL1       -0.2158
     15 H           1.8045   -1.7775   29.8922 H       1  UNL1        0.1735
     16 S           2.9838   -0.1083   30.6128 S.O2    1  UNL1        0.0559
     17 C           4.0573    0.5843   31.3989 C.3     1  UNL1        0.1996
     18 O           1.9366    0.6353   31.3876 O.2     1  UNL1       -0.1544
     19 O           4.0309   -0.8520   29.8380 O.2     1  UNL1       -0.1544
     20 C           3.6485   -0.0779   23.6516 C.3     1  UNL1        0.1139
     21 C           2.7172   -0.1234   22.4767 C.ar    1  UNL1       -0.0029
     22 C           2.9796   -1.0761   21.3481 C.ar    1  UNL1       -0.0026
     23 C           2.0483   -1.1216   20.1731 C.ar    1  UNL1       -0.0003
     24 C           0.8547   -0.2145   20.1266 C.ar    1  UNL1       -0.0000
     25 C           0.5923    0.7382   21.2551 C.ar    1  UNL1       -0.0003
     26 C           1.5235    0.7838   22.4301 C.ar    1  UNL1       -0.0026
     27 C           3.7944   -1.2777   24.5400 C.3     1  UNL1        0.0968
     28 N           4.9880   -2.1750   24.3984 N.3     1  UNL1       -0.2689
     29 C           6.2225   -2.1409   25.2497 C.3     1  UNL1        0.0748
     30 C           7.1542   -3.2088   24.7581 C.3     1  UNL1        0.0480
     31 C           6.4954   -3.9028   23.6030 C.3     1  UNL1        0.1278
     32 O           7.0739   -5.0368   22.8094 O.3     1  UNL1       -0.3830
     33 C           5.1567   -3.2640   23.3806 C.3     1  UNL1        0.1017
     34 H           6.4459   -5.3020   22.1194 H       1  UNL1        0.2104
@<TRIPOS>BOND
     1     1     2    1
     2     2     3   am
     3     3     4    2
     4     5     3    1
     5     5     6    1
     6     6     7    1
     7     7     8   ar
     8     8     9   ar
     9     9    10   ar
    10    10    11   ar
    11    11    14    1
    12    14    16    1
    13    16    17    1
    14    16    18    2
    15    16    19    2
    16    11    12   ar
    17    12    13    1
    18     2    20    1
    19    20    27    1
    20    27    28    1
    21    28    29    1
    22    29    30    1
    23    30    31    1
    24    31    32    1
    25    31    33    1
    26    20    21    1
    27    21    22   ar
    28    22    23   ar
    29    23    24   ar
    30    24    25   ar
    31    25    26   ar
    32    13     5    1
    33    33    28    1
    34    26    21   ar
    35    12     7   ar
    36    14    15    1
    37    32    34    1
@<TRIPOS>MOLECULE
*****
 34 37 0 0 0
SMALL
GASTEIGER

@<TRIPOS>ATOM
      1 C           3.1680    3.2424   23.2082 C.3     1  UNL1        0.1153
      2 N           3.4717    2.0696   22.3237 N.am    1  UNL1       -0.2714
      3 C           3.6460    0.7048   22.9213 C.2     1  UNL1        0.2665
      4 O           3.5166    0.5129   24.4033 O.2     1  UNL1       -0.2710
      5 C           3.9497   -0.4680   22.0368 C.3     1  UNL1        0.2457
      6 C           2.9689   -1.1878   21.1593 C.3     1  UNL1        0.0826
      7 C           3.7005   -2.2916   20.4547 C.ar    1  UNL1        0.0172
      8 C           3.2471   -3.3261   19.4677 C.ar    1  UNL1       -0.0011
      9 C           4.2265   -4.3229   18.9227 C.ar    1  UNL1        0.0012
     10 C           5.6594   -4.2852   19.3647 C.ar    1  UNL1        0.0189
     11 C           6.1129   -3.2507   20.3517 C.ar    1  UNL1        0.0980
     12 C           5.1335   -2.2539   20.8967 C.ar    1  UNL1        0.1496
     13 O           5.2874   -1.1268   21.8744 O.3     1  UNL1       -0.4686
     14 N           7.5458   -3.2130   20.7937 N.pl3   1  UNL1       -0.2158
     15 H           8.0576   -2.3741   20.7336 H       1  UNL1        0.1735
     16 S           8.1990   -4.4534   21.3272 S.O2    1  UNL1        0.0559
     17 C           8.8522   -5.6938   21.8607 C.3     1  UNL1        0.1996
     18 O           7.0818   -4.6170   22.3146 O.2     1  UNL1       -0.1544
     19 O           9.3162   -4.2898   20.3397 O.2     1  UNL1       -0.1544
     20 C           3.6011    2.2616   20.8417 C.3     1  UNL1        0.1139
     21 C           2.4031    2.6539   20.0288 C.ar    1  UNL1       -0.0029
     22 C           2.5220    3.7269   18.9874 C.ar    1  UNL1       -0.0026
     23 C           1.3240    4.1193   18.1745 C.ar    1  UNL1       -0.0003
     24 C           0.0070    3.4387   18.4030 C.ar    1  UNL1       -0.0000
     25 C          -0.1120    2.3657   19.4444 C.ar    1  UNL1       -0.0003
     26 C           1.0861    1.9733   20.2573 C.ar    1  UNL1       -0.0026
     27 C           4.9285    2.0612   20.1725 C.3     1  UNL1        0.0968
     28 N           5.0794    1.0215   19.1020 N.3     1  UNL1       -0.2689
     29 C           6.3424    0.2907   18.7545 C.3     1  UNL1        0.0748
     30 C           6.0374   -0.6525   17.6286 C.3     1  UNL1        0.0480
     31 C           4.5860   -0.5045   17.2803 C.3     1  UNL1        0.1278
     32 O           3.8548   -1.2587   16.2094 O.3     1  UNL1       -0.3830
     33 C           3.9939    0.5301   18.1909 C.3     1  UNL1        0.1017
     34 H           2.9272   -0.9756   16.1905 H       1  UNL1        0.2104
@<TRIPOS>BOND
     1     1     2    1
     2     2     3   am
     3     3     4    2
     4     5     3    1
     5     5     6    1
     6     6     7    1
     7     7     8   ar
     8     8     9   ar
     9     9    10   ar
    10    10    11   ar
    11    11    14    1
    12    14    16    1
    13    16    17    1
    14    16    18    2
    15    16    19    2
    16    11    12   ar
    17    12    13    1
    18     2    20    1
    19    20    27    1
    20    27    28    1
    21    28    29    1
    22    29    30    1
    23    30    31    1
    24    31    32    1
    25    31    33    1
    26    20    21    1
    27    21    22   ar
    28    22    23   ar
    29    23    24   ar
    30    24    25   ar
    31    25    26   ar
    32    13     5    1
    33    33    28    1
    34    26    21   ar
    35    12     7   ar
    36    14    15    1
    37    32    34    1
@<TRIPOS>MOLECULE
*****
 34 37 0 0 0
SMALL
GASTEIGER

@<TRIPOS>ATOM
      1 C           5.8811    1.2276   25.5253 C.3     1  UNL1        0.1153
      2 N           5.9640   -0.2698   25.4937 N.am    1  UNL1       -0.2714
      3 C           7.2869   -0.9519   25.6796 C.2     1  UNL1        0.2665
      4 O           8.5270   -0.1366   25.8970 O.2     1  UNL1       -0.2710
      5 C           7.3697   -2.4493   25.6480 C.3     1  UNL1        0.2457
      6 C           7.8325   -3.2825   24.4897 C.3     1  UNL1        0.0826
      7 C           7.7531   -4.7245   24.8949 C.ar    1  UNL1        0.0172
      8 C           8.0807   -5.9922   24.1632 C.ar    1  UNL1       -0.0011
      9 C           7.8965   -7.3180   24.8402 C.ar    1  UNL1        0.0012
     10 C           7.3847   -7.3760   26.2490 C.ar    1  UNL1        0.0189
     11 C           7.0571   -6.1083   26.9808 C.ar    1  UNL1        0.0980
     12 C           7.2413   -4.7825   26.3037 C.ar    1  UNL1        0.1496
     13 O           7.0044   -3.3764   26.7691 O.3     1  UNL1       -0.4686
     14 N           6.5453   -6.1663   28.3896 N.pl3   1  UNL1       -0.2158
     15 H           5.6305   -6.4832   28.5683 H       1  UNL1        0.1735
     16 S           7.4273   -5.7416   29.5260 S.O2    1  UNL1        0.0559
     17 C           8.3093   -5.3168   30.6626 C.3     1  UNL1        0.1996
     18 O           8.3419   -6.8975   29.2482 O.2     1  UNL1       -0.1544
     19 O           6.5126   -4.5857   29.8038 O.2     1  UNL1       -0.1544
     20 C           4.7238   -1.0851   25.2762 C.3     1  UNL1        0.1139
     21 C           4.2705   -1.4037   23.8823 C.ar    1  UNL1       -0.0029
     22 C           3.3772   -0.4487   23.1474 C.ar    1  UNL1       -0.0026
     23 C           2.9239   -0.7673   21.7535 C.ar    1  UNL1       -0.0003
     24 C           3.3639   -2.0409   21.0944 C.ar    1  UNL1       -0.0000
     25 C           4.2571   -2.9959   21.8293 C.ar    1  UNL1       -0.0003
     26 C           4.7104   -2.6773   23.2233 C.ar    1  UNL1       -0.0026
     27 C           3.9369   -1.5818   26.4527 C.3     1  UNL1        0.0968
     28 N           3.0823   -0.6319   27.2384 N.3     1  UNL1       -0.2689
     29 C           2.4316    0.6119   26.7100 C.3     1  UNL1        0.0748
     30 C           1.6756    1.2535   27.8355 C.3     1  UNL1        0.0480
     31 C           1.8591    0.4061   29.0595 C.3     1  UNL1        0.1278
     32 O           1.2756    0.6766   30.4147 O.3     1  UNL1       -0.3830
     33 C           2.7285   -0.7591   28.6906 C.3     1  UNL1        0.1017
     34 H           1.5466   -0.0236   31.0290 H       1  UNL1        0.2104
@<TRIPOS>BOND
     1     1     2    1
     2     2     3   am
     3     3     4    2
     4     5     3    1
     5     5     6    1
     6     6     7    1
     7     7     8   ar
     8     8     9   ar
     9     9    10   ar
    10    10    11   ar
    11    11    14    1
    12    14    16    1
    13    16    17    1
    14    16    18    2
    15    16    19    2
    16    11    12   ar
    17    12    13    1
    18     2    20    1
    19    20    27    1
    20    27    28    1
    21    28    29    1
    22    29    30    1
    23    30    31    1
    24    31    32    1
    25    31    33    1
    26    20    21    1
    27    21    22   ar
    28    22    23   ar
    29    23    24   ar
    30    24    25   ar
    31    25    26   ar
    32    13     5    1
    33    33    28    1
    34    26    21   ar
    35    12     7   ar
    36    14    15    1
    37    32    34    1
@<TRIPOS>MOLECULE
*****
 34 37 0 0 0
SMALL
GASTEIGER

@<TRIPOS>ATOM
      1 C           4.8708   -3.2248   18.3026 C.3     1  UNL1        0.1153
      2 N           5.0546   -2.7783   19.7228 N.am    1  UNL1       -0.2714
      3 C           4.6244   -3.6688   20.8506 C.2     1  UNL1        0.2665
      4 O           4.0103   -5.0057   20.5582 O.2     1  UNL1       -0.2710
      5 C           4.8081   -3.2223   22.2707 C.3     1  UNL1        0.2457
      6 C           5.8598   -3.7141   23.2205 C.3     1  UNL1        0.0826
      7 C           5.6742   -3.0014   24.5273 C.ar    1  UNL1        0.0172
      8 C           6.4166   -3.0809   25.8282 C.ar    1  UNL1       -0.0011
      9 C           5.9925   -2.2282   26.9870 C.ar    1  UNL1        0.0012
     10 C           4.8261   -1.2959   26.8449 C.ar    1  UNL1        0.0189
     11 C           4.0837   -1.2164   25.5440 C.ar    1  UNL1        0.0980
     12 C           4.5077   -2.0692   24.3851 C.ar    1  UNL1        0.1496
     13 O           3.9725   -2.2057   22.9905 O.3     1  UNL1       -0.4686
     14 N           2.9172   -0.2841   25.4018 N.pl3   1  UNL1       -0.2158
     15 H           2.1099   -0.4188   25.9490 H       1  UNL1        0.1735
     16 S           2.9807    0.8534   24.4261 S.O2    1  UNL1        0.0559
     17 C           3.0443    1.9909   23.4504 C.3     1  UNL1        0.1996
     18 O           4.1575    1.4202   25.1636 O.2     1  UNL1       -0.1544
     19 O           1.8040    0.2865   23.6887 O.2     1  UNL1       -0.1544
     20 C           5.6687   -1.4413   20.0152 C.3     1  UNL1        0.1139
     21 C           6.8710   -1.3471   20.9071 C.ar    1  UNL1       -0.0029
     22 C           6.8990   -0.3475   22.0252 C.ar    1  UNL1       -0.0026
     23 C           8.1013   -0.2533   22.9171 C.ar    1  UNL1       -0.0003
     24 C           9.2757   -1.1587   22.6909 C.ar    1  UNL1       -0.0000
     25 C           9.2478   -2.1583   21.5729 C.ar    1  UNL1       -0.0003
     26 C           8.0454   -2.2525   20.6810 C.ar    1  UNL1       -0.0026
     27 C           5.0804   -0.1986   19.4156 C.3     1  UNL1        0.0968
     28 N           3.5923   -0.0582   19.2904 N.3     1  UNL1       -0.2689
     29 C           2.8521    0.4395   18.0844 C.3     1  UNL1        0.0748
     30 C           1.3854    0.4144   18.3977 C.3     1  UNL1        0.0480
     31 C           1.2192   -0.0987   19.7974 C.3     1  UNL1        0.1278
     32 O          -0.0825   -0.2868   20.5188 O.3     1  UNL1       -0.3830
     33 C           2.5831   -0.3908   20.3491 C.3     1  UNL1        0.1017
     34 H           0.0883   -0.6307   21.4096 H       1  UNL1        0.2104
@<TRIPOS>BOND
     1     1     2    1
     2     2     3   am
     3     3     4    2
     4     5     3    1
     5     5     6    1
     6     6     7    1
     7     7     8   ar
     8     8     9   ar
     9     9    10   ar
    10    10    11   ar
    11    11    14    1
    12    14    16    1
    13    16    17    1
    14    16    18    2
    15    16    19    2
    16    11    12   ar
    17    12    13    1
    18     2    20    1
    19    20    27    1
    20    27    28    1
    21    28    29    1
    22    29    30    1
    23    30    31    1
    24    31    32    1
    25    31    33    1
    26    20    21    1
    27    21    22   ar
    28    22    23   ar
    29    23    24   ar
    30    24    25   ar
    31    25    26   ar
    32    13     5    1
    33    33    28    1
    34    26    21   ar
    35    12     7   ar
    36    14    15    1
    37    32    34    1
@<TRIPOS>MOLECULE
*****
 34 37 0 0 0
SMALL
GASTEIGER

@<TRIPOS>ATOM
      1 C           6.1826    0.7891   16.6726 C.3     1  UNL1        0.1153
      2 N           5.8261    0.4377   18.0866 N.am    1  UNL1       -0.2714
      3 C           6.4320    1.2036   19.2252 C.2     1  UNL1        0.2665
      4 O           7.3942    2.3208   18.9498 O.2     1  UNL1       -0.2710
      5 C           6.0755    0.8522   20.6393 C.3     1  UNL1        0.2457
      6 C           5.0811    1.5706   21.5024 C.3     1  UNL1        0.0826
      7 C           5.0419    0.8832   22.8350 C.ar    1  UNL1        0.0172
      8 C           4.2481    1.1505   24.0793 C.ar    1  UNL1       -0.0011
      9 C           4.4246    0.2746   25.2842 C.ar    1  UNL1        0.0012
     10 C           5.3948   -0.8686   25.2446 C.ar    1  UNL1        0.0189
     11 C           6.1886   -1.1360   24.0003 C.ar    1  UNL1        0.0980
     12 C           6.0122   -0.2601   22.7955 C.ar    1  UNL1        0.1496
     13 O           6.6510   -0.2792   21.4385 O.3     1  UNL1       -0.4686
     14 N           7.1589   -2.2793   23.9608 N.pl3   1  UNL1       -0.2158
     15 H           7.8994   -2.2742   23.3121 H       1  UNL1        0.1735
     16 S           7.0009   -3.4302   24.9097 S.O2    1  UNL1        0.0559
     17 C           6.8429   -4.5811   25.8586 C.3     1  UNL1        0.1996
     18 O           5.8981   -3.9825   24.0561 O.2     1  UNL1       -0.1544
     19 O           8.1037   -2.8778   25.7633 O.2     1  UNL1       -0.1544
     20 C           4.8638   -0.6795   18.3621 C.3     1  UNL1        0.1139
     21 C           3.4686   -0.3721   18.8189 C.ar    1  UNL1       -0.0029
     22 C           2.8857   -1.1020   19.9926 C.ar    1  UNL1       -0.0026
     23 C           1.4905   -0.7946   20.4494 C.ar    1  UNL1       -0.0003
     24 C           0.6780    0.2426   19.7325 C.ar    1  UNL1       -0.0000
     25 C           1.2608    0.9725   18.5588 C.ar    1  UNL1       -0.0003
     26 C           2.6561    0.6651   18.1019 C.ar    1  UNL1       -0.0026
     27 C           5.2969   -2.1042   18.1806 C.3     1  UNL1        0.0968
     28 N           6.3640   -2.6817   19.0624 N.3     1  UNL1       -0.2689
     29 C           7.8315   -2.3812   18.9831 C.3     1  UNL1        0.0748
     30 C           8.5255   -3.1750   20.0500 C.3     1  UNL1        0.0480
     31 C           7.4870   -3.9661   20.7886 C.3     1  UNL1        0.1278
     32 O           7.7399   -4.8984   21.9362 O.3     1  UNL1       -0.3830
     33 C           6.1511   -3.6612   20.1783 C.3     1  UNL1        0.1017
     34 H           6.8997   -5.2825   22.2320 H       1  UNL1        0.2104
@<TRIPOS>BOND
     1     1     2    1
     2     2     3   am
     3     3     4    2
     4     5     3    1
     5     5     6    1
     6     6     7    1
     7     7     8   ar
     8     8     9   ar
     9     9    10   ar
    10    10    11   ar
    11    11    14    1
    12    14    16    1
    13    16    17    1
    14    16    18    2
    15    16    19    2
    16    11    12   ar
    17    12    13    1
    18     2    20    1
    19    20    27    1
    20    27    28    1
    21    28    29    1
    22    29    30    1
    23    30    31    1
    24    31    32    1
    25    31    33    1
    26    20    21    1
    27    21    22   ar
    28    22    23   ar
    29    23    24   ar
    30    24    25   ar
    31    25    26   ar
    32    13     5    1
    33    33    28    1
    34    26    21   ar
    35    12     7   ar
    36    14    15    1
    37    32    34    1
@<TRIPOS>MOLECULE
*****
 34 37 0 0 0
SMALL
GASTEIGER

@<TRIPOS>ATOM
      1 C           7.3134   -4.0196   20.7801 C.3     1  UNL1        0.1153
      2 N           6.3470   -2.9326   21.1472 N.am    1  UNL1       -0.2714
      3 C           4.9008   -3.2598   21.3735 C.2     1  UNL1        0.2665
      4 O           4.4209   -4.6740   21.2327 O.2     1  UNL1       -0.2710
      5 C           3.9345   -2.1729   21.7406 C.3     1  UNL1        0.2457
      6 C           3.0221   -1.4482   20.7960 C.3     1  UNL1        0.0826
      7 C           2.2346   -0.4472   21.5884 C.ar    1  UNL1        0.0172
      8 C           1.1850    0.5471   21.1891 C.ar    1  UNL1       -0.0011
      9 C           0.5609    1.4354   22.2243 C.ar    1  UNL1        0.0012
     10 C           0.9865    1.3293   23.6587 C.ar    1  UNL1        0.0189
     11 C           2.0362    0.3349   24.0580 C.ar    1  UNL1        0.0980
     12 C           2.6602   -0.5533   23.0228 C.ar    1  UNL1        0.1496
     13 O           3.7108   -1.6198   23.1169 O.3     1  UNL1       -0.4686
     14 N           2.4618    0.2288   25.4924 N.pl3   1  UNL1       -0.2158
     15 H           2.7709   -0.6341   25.8516 H       1  UNL1        0.1735
     16 S           2.4165    1.4375   26.3795 S.O2    1  UNL1        0.0559
     17 C           2.3712    2.6462   27.2667 C.3     1  UNL1        0.1996
     18 O           3.7056    1.9220   25.7852 O.2     1  UNL1       -0.1544
     19 O           1.1273    0.9529   26.9738 O.2     1  UNL1       -0.1544
     20 C           6.8270   -1.5184   21.2880 C.3     1  UNL1        0.1139
     21 C           7.0425   -0.9318   22.6515 C.ar    1  UNL1       -0.0029
     22 C           6.6637    0.4940   22.9230 C.ar    1  UNL1       -0.0026
     23 C           6.8792    1.0807   24.2866 C.ar    1  UNL1       -0.0003
     24 C           7.4734    0.2416   25.3787 C.ar    1  UNL1       -0.0000
     25 C           7.8522   -1.1842   25.1073 C.ar    1  UNL1       -0.0003
     26 C           7.6367   -1.7709   23.7437 C.ar    1  UNL1       -0.0026
     27 C           7.0915   -0.6910   20.0651 C.3     1  UNL1        0.0968
     28 N           5.9910   -0.4389   19.0777 N.3     1  UNL1       -0.2689
     29 C           5.1660    0.8098   18.9766 C.3     1  UNL1        0.0748
     30 C           4.1873    0.6292   17.8543 C.3     1  UNL1        0.0480
     31 C           4.4074   -0.7311   17.2618 C.3     1  UNL1        0.1278
     32 O           3.6463   -1.3268   16.1146 O.3     1  UNL1       -0.3830
     33 C           5.5221   -1.3913   18.0178 C.3     1  UNL1        0.1017
     34 H           3.9853   -2.2165   15.9289 H       1  UNL1        0.2104
@<TRIPOS>BOND
     1     1     2    1
     2     2     3   am
     3     3     4    2
     4     5     3    1
     5     5     6    1
     6     6     7    1
     7     7     8   ar
     8     8     9   ar
     9     9    10   ar
    10    10    11   ar
    11    11    14    1
    12    14    16    1
    13    16    17    1
    14    16    18    2
    15    16    19    2
    16    11    12   ar
    17    12    13    1
    18     2    20    1
    19    20    27    1
    20    27    28    1
    21    28    29    1
    22    29    30    1
    23    30    31    1
    24    31    32    1
    25    31    33    1
    26    20    21    1
    27    21    22   ar
    28    22    23   ar
    29    23    24   ar
    30    24    25   ar
    31    25    26   ar
    32    13     5    1
    33    33    28    1
    34    26    21   ar
    35    12     7   ar
    36    14    15    1
    37    32    34    1
