@<TRIPOS>MOLECULE
*****
 21 21 0 0 0
SMALL
GASTEIGER

@<TRIPOS>ATOM
      1 O          -5.3397  -18.9940   20.0481 O.3     1  UNL1       -0.4728
      2 C          -9.7001  -19.3310   21.1080 C.ar    1  UNL1       -0.0195
      3 C          -8.6917  -19.0153   22.1726 C.ar    1  UNL1       -0.0011
      4 C          -7.2382  -18.9030   21.8193 C.ar    1  UNL1        0.0366
      5 C          -6.7932  -19.1063   20.4014 C.ar    1  UNL1        0.1387
      6 C          -7.8015  -19.4220   19.3368 C.ar    1  UNL1        0.0366
      7 C          -9.2550  -19.5344   19.6901 C.ar    1  UNL1       -0.0011
      8 C         -11.1536  -19.4434   21.4613 C.3     1  UNL1        0.0584
      9 C         -11.9614  -18.2054   21.7156 C.3     1  UNL1        0.1469
     10 C         -11.5587  -16.3236   19.9702 C.3     1  UNL1        0.1741
     11 O         -12.4470  -17.3768   20.5634 O.3     1  UNL1       -0.3507
     12 C          -4.3530  -19.9730   20.6119 C.3     1  UNL1        0.2358
     13 C          -3.1355  -19.4785   21.3352 C.3     1  UNL1        0.1697
     14 O          -1.9746  -20.3998   21.5663 O.3     1  UNL1       -0.3793
     15 H          -1.2759  -19.9260   22.0440 H       1  UNL1        0.2106
     16 C          -3.0790  -18.0627   21.8275 C.3     1  UNL1        0.1020
     17 N          -2.4233  -17.0037   20.9917 N.3     1  UNL1       -0.2964
     18 H          -1.8292  -16.4603   21.6179 H       1  UNL1        0.1233
     19 C          -1.5739  -17.3932   19.8185 C.3     1  UNL1        0.0541
     20 C          -2.1898  -17.5237   18.4570 C.3     1  UNL1        0.0171
     21 C          -0.1084  -17.6523   20.0067 C.3     1  UNL1        0.0171
@<TRIPOS>BOND
     1    10    11    1
     2    11     9    1
     3     9     8    1
     4     8     2    1
     5     2     3   ar
     6     3     4   ar
     7     4     5   ar
     8     5     1    1
     9     1    12    1
    10    12    13    1
    11    13    14    1
    12    13    16    1
    13    16    17    1
    14    17    19    1
    15    19    20    1
    16    19    21    1
    17     5     6   ar
    18     6     7   ar
    19     7     2   ar
    20    14    15    1
    21    17    18    1
@<TRIPOS>MOLECULE
*****
 21 21 0 0 0
SMALL
GASTEIGER

@<TRIPOS>ATOM
      1 O          -8.3097  -19.4038   21.9348 O.3     1  UNL1       -0.4728
      2 C          -3.8729  -19.7073   21.2472 C.ar    1  UNL1       -0.0195
      3 C          -4.8176  -20.5322   20.4244 C.ar    1  UNL1       -0.0011
      4 C          -6.2965  -20.4310   20.6536 C.ar    1  UNL1        0.0366
      5 C          -6.8308  -19.5050   21.7056 C.ar    1  UNL1        0.1387
      6 C          -5.8861  -18.6801   22.5285 C.ar    1  UNL1        0.0366
      7 C          -4.4072  -18.7812   22.2993 C.ar    1  UNL1       -0.0011
      8 C          -2.3940  -19.8085   21.0180 C.3     1  UNL1        0.0584
      9 C          -1.6144  -18.5956   20.6045 C.3     1  UNL1        0.1469
     10 C          -2.1929  -17.5143   18.3140 C.3     1  UNL1        0.1741
     11 O          -1.2928  -18.3682   19.1572 O.3     1  UNL1       -0.3507
     12 C          -8.9237  -20.0234   23.1551 C.3     1  UNL1        0.2358
     13 C          -9.5466  -19.1527   24.2057 C.3     1  UNL1        0.1697
     14 O          -9.9993  -19.7514   25.5044 O.3     1  UNL1       -0.3793
     15 H         -10.3761  -19.0567   26.0668 H       1  UNL1        0.2106
     16 C          -9.7169  -17.6831   23.9576 C.3     1  UNL1        0.1020
     17 N         -10.2989  -17.2039   22.6609 N.3     1  UNL1       -0.2964
     18 H          -9.6173  -17.4215   21.9339 H       1  UNL1        0.1233
     19 C         -11.6196  -17.7363   22.1894 C.3     1  UNL1        0.0541
     20 C         -11.7380  -18.3468   20.8244 C.3     1  UNL1        0.0171
     21 C         -12.8220  -17.6582   23.0829 C.3     1  UNL1        0.0171
@<TRIPOS>BOND
     1    10    11    1
     2    11     9    1
     3     9     8    1
     4     8     2    1
     5     2     3   ar
     6     3     4   ar
     7     4     5   ar
     8     5     1    1
     9     1    12    1
    10    12    13    1
    11    13    14    1
    12    13    16    1
    13    16    17    1
    14    17    19    1
    15    19    20    1
    16    19    21    1
    17     5     6   ar
    18     6     7   ar
    19     7     2   ar
    20    14    15    1
    21    17    18    1
@<TRIPOS>MOLECULE
*****
 21 21 0 0 0
SMALL
GASTEIGER

@<TRIPOS>ATOM
      1 O         -10.7842  -18.8758   20.7183 O.3     1  UNL1       -0.4728
      2 C          -6.4438  -20.0586   20.6118 C.ar    1  UNL1       -0.0195
      3 C          -7.1095  -19.7665   21.9238 C.ar    1  UNL1       -0.0011
      4 C          -8.5564  -19.3723   21.9593 C.ar    1  UNL1        0.0366
      5 C          -9.3374  -19.2701   20.6828 C.ar    1  UNL1        0.1387
      6 C          -8.6716  -19.5621   19.3708 C.ar    1  UNL1        0.0366
      7 C          -7.2248  -19.9564   19.3353 C.ar    1  UNL1       -0.0011
      8 C          -4.9969  -20.4529   20.5763 C.3     1  UNL1        0.0584
      9 C          -3.9336  -19.3976   20.5018 C.3     1  UNL1        0.1469
     10 C          -2.7636  -17.6007   19.0346 C.3     1  UNL1        0.1741
     11 O          -4.0060  -18.3330   19.4475 O.3     1  UNL1       -0.3507
     12 C         -11.2868  -17.7858   19.8187 C.3     1  UNL1        0.2358
     13 C         -11.2942  -16.3636   20.2954 C.3     1  UNL1        0.1697
     14 O         -10.9069  -15.2570   19.3598 O.3     1  UNL1       -0.3793
     15 H         -10.9649  -14.4068   19.8231 H       1  UNL1        0.2106
     16 C         -11.6887  -16.0480   21.7078 C.3     1  UNL1        0.1020
     17 N         -11.0967  -16.8281   22.8440 N.3     1  UNL1       -0.2964
     18 H         -10.7864  -16.1480   23.5380 H       1  UNL1        0.1233
     19 C         -11.9293  -17.8410   23.5726 C.3     1  UNL1        0.0541
     20 C         -13.4221  -17.8293   23.4270 C.3     1  UNL1        0.0171
     21 C         -11.2690  -18.8657   24.4468 C.3     1  UNL1        0.0171
@<TRIPOS>BOND
     1    10    11    1
     2    11     9    1
     3     9     8    1
     4     8     2    1
     5     2     3   ar
     6     3     4   ar
     7     4     5   ar
     8     5     1    1
     9     1    12    1
    10    12    13    1
    11    13    14    1
    12    13    16    1
    13    16    17    1
    14    17    19    1
    15    19    20    1
    16    19    21    1
    17     5     6   ar
    18     6     7   ar
    19     7     2   ar
    20    14    15    1
    21    17    18    1
@<TRIPOS>MOLECULE
*****
 21 21 0 0 0
SMALL
GASTEIGER

@<TRIPOS>ATOM
      1 O          -5.7129  -18.0114   22.0508 O.3     1  UNL1       -0.4728
      2 C         -10.0077  -18.0705   23.3931 C.ar    1  UNL1       -0.0195
      3 C          -9.3748  -19.3167   22.8488 C.ar    1  UNL1       -0.0011
      4 C          -7.9432  -19.2970   22.4014 C.ar    1  UNL1        0.0366
      5 C          -7.1445  -18.0311   22.4982 C.ar    1  UNL1        0.1387
      6 C          -7.7774  -16.7848   23.0425 C.ar    1  UNL1        0.0366
      7 C          -9.2090  -16.8045   23.4899 C.ar    1  UNL1       -0.0011
      8 C         -11.4392  -18.0902   23.8405 C.3     1  UNL1        0.0584
      9 C         -12.5408  -18.1814   22.8265 C.3     1  UNL1        0.1469
     10 C         -12.2714  -16.4160   20.9394 C.3     1  UNL1        0.1741
     11 O         -12.2675  -17.8468   21.3900 O.3     1  UNL1       -0.3507
     12 C          -4.9440  -19.2945   21.9402 C.3     1  UNL1        0.2358
     13 C          -4.6796  -19.8967   20.5921 C.3     1  UNL1        0.1697
     14 O          -5.4470  -21.1064   20.1475 O.3     1  UNL1       -0.3793
     15 H          -5.1562  -21.3653   19.2591 H       1  UNL1        0.2106
     16 C          -3.6479  -19.2890   19.6885 C.3     1  UNL1        0.1020
     17 N          -3.3432  -17.8230   19.7772 N.3     1  UNL1       -0.2964
     18 H          -4.0838  -17.4017   20.3381 H       1  UNL1        0.1233
     19 C          -2.0414  -17.3616   20.3622 C.3     1  UNL1        0.0541
     20 C          -0.7453  -17.8486   19.7850 C.3     1  UNL1        0.0171
     21 C          -2.0355  -16.4132   21.5243 C.3     1  UNL1        0.0171
@<TRIPOS>BOND
     1    10    11    1
     2    11     9    1
     3     9     8    1
     4     8     2    1
     5     2     3   ar
     6     3     4   ar
     7     4     5   ar
     8     5     1    1
     9     1    12    1
    10    12    13    1
    11    13    14    1
    12    13    16    1
    13    16    17    1
    14    17    19    1
    15    19    20    1
    16    19    21    1
    17     5     6   ar
    18     6     7   ar
    19     7     2   ar
    20    14    15    1
    21    17    18    1
@<TRIPOS>MOLECULE
*****
 21 21 0 0 0
SMALL
GASTEIGER

@<TRIPOS>ATOM
      1 O          -5.3078  -20.1087   20.2589 O.3     1  UNL1       -0.4728
      2 C          -9.6636  -19.3441   21.0907 C.ar    1  UNL1       -0.0195
      3 C          -8.6940  -19.4718   22.2280 C.ar    1  UNL1       -0.0011
      4 C          -7.2421  -19.7267   21.9508 C.ar    1  UNL1        0.0366
      5 C          -6.7597  -19.8539   20.5362 C.ar    1  UNL1        0.1387
      6 C          -7.7293  -19.7262   19.3989 C.ar    1  UNL1        0.0366
      7 C          -9.1812  -19.4713   19.6761 C.ar    1  UNL1       -0.0011
      8 C         -11.1156  -19.0893   21.3680 C.3     1  UNL1        0.0584
      9 C         -11.7828  -17.8678   20.8088 C.3     1  UNL1        0.1469
     10 C         -11.1200  -16.4642   22.8923 C.3     1  UNL1        0.1741
     11 O         -11.9691  -16.6541   21.6704 O.3     1  UNL1       -0.3507
     12 C          -4.4460  -19.0123   19.7065 C.3     1  UNL1        0.2358
     13 C          -2.9530  -19.1025   19.8201 C.3     1  UNL1        0.1697
     14 O          -2.0851  -18.6310   18.6913 O.3     1  UNL1       -0.3793
     15 H          -1.1525  -18.7588   18.9253 H       1  UNL1        0.2106
     16 C          -2.3279  -19.6643   21.0626 C.3     1  UNL1        0.1020
     17 N          -1.7869  -18.7407   22.1135 N.3     1  UNL1       -0.2964
     18 H          -0.8642  -18.4429   21.7969 H       1  UNL1        0.1233
     19 C          -2.5414  -17.4971   22.4795 C.3     1  UNL1        0.0541
     20 C          -2.1438  -16.1772   21.8880 C.3     1  UNL1        0.0171
     21 C          -3.6936  -17.5733   23.4370 C.3     1  UNL1        0.0171
@<TRIPOS>BOND
     1    10    11    1
     2    11     9    1
     3     9     8    1
     4     8     2    1
     5     2     3   ar
     6     3     4   ar
     7     4     5   ar
     8     5     1    1
     9     1    12    1
    10    12    13    1
    11    13    14    1
    12    13    16    1
    13    16    17    1
    14    17    19    1
    15    19    20    1
    16    19    21    1
    17     5     6   ar
    18     6     7   ar
    19     7     2   ar
    20    14    15    1
    21    17    18    1
@<TRIPOS>MOLECULE
*****
 21 21 0 0 0
SMALL
GASTEIGER

@<TRIPOS>ATOM
      1 O          -7.8974  -18.6797   22.3853 O.3     1  UNL1       -0.4728
      2 C          -3.5933  -19.4595   21.3289 C.ar    1  UNL1       -0.0195
      3 C          -3.9329  -18.5074   22.4370 C.ar    1  UNL1       -0.0011
      4 C          -5.3676  -18.2475   22.7892 C.ar    1  UNL1        0.0366
      5 C          -6.4627  -18.9397   22.0332 C.ar    1  UNL1        0.1387
      6 C          -6.1231  -19.8918   20.9250 C.ar    1  UNL1        0.0366
      7 C          -4.6883  -20.1517   20.5728 C.ar    1  UNL1       -0.0011
      8 C          -2.1585  -19.7194   20.9767 C.3     1  UNL1        0.0584
      9 C          -1.3380  -18.6428   20.3305 C.3     1  UNL1        0.1469
     10 C          -2.5311  -17.3169   18.4414 C.3     1  UNL1        0.1741
     11 O          -1.5179  -18.3353   18.8734 O.3     1  UNL1       -0.3507
     12 C          -8.5931  -17.4641   21.8486 C.3     1  UNL1        0.2358
     13 C          -8.3722  -16.1277   22.4931 C.3     1  UNL1        0.1697
     14 O          -8.0473  -14.9319   21.6479 O.3     1  UNL1       -0.3793
     15 H          -7.9362  -14.1543   22.2170 H       1  UNL1        0.2106
     16 C          -8.4764  -15.9872   23.9829 C.3     1  UNL1        0.1020
     17 N          -7.6725  -14.9404   24.6955 N.3     1  UNL1       -0.2964
     18 H          -8.3188  -14.1914   24.9440 H       1  UNL1        0.1233
     19 C          -6.9189  -15.2938   25.9434 C.3     1  UNL1        0.0541
     20 C          -7.6636  -15.5807   27.2134 C.3     1  UNL1        0.0171
     21 C          -5.4205  -15.3603   25.9212 C.3     1  UNL1        0.0171
@<TRIPOS>BOND
     1    10    11    1
     2    11     9    1
     3     9     8    1
     4     8     2    1
     5     2     3   ar
     6     3     4   ar
     7     4     5   ar
     8     5     1    1
     9     1    12    1
    10    12    13    1
    11    13    14    1
    12    13    16    1
    13    16    17    1
    14    17    19    1
    15    19    20    1
    16    19    21    1
    17     5     6   ar
    18     6     7   ar
    19     7     2   ar
    20    14    15    1
    21    17    18    1
@<TRIPOS>MOLECULE
*****
 21 21 0 0 0
SMALL
GASTEIGER

@<TRIPOS>ATOM
      1 O         -10.8587  -18.9279   21.6163 O.3     1  UNL1       -0.4728
      2 C          -6.5682  -19.9795   20.7589 C.ar    1  UNL1       -0.0195
      3 C          -7.0778  -19.9997   22.1695 C.ar    1  UNL1       -0.0011
      4 C          -8.5080  -19.6492   22.4553 C.ar    1  UNL1        0.0366
      5 C          -9.4285  -19.2784   21.3305 C.ar    1  UNL1        0.1387
      6 C          -8.9188  -19.2582   19.9200 C.ar    1  UNL1        0.0366
      7 C          -7.4886  -19.6087   19.6342 C.ar    1  UNL1       -0.0011
      8 C          -5.1380  -20.3300   20.4732 C.3     1  UNL1        0.0584
      9 C          -4.0351  -19.6712   21.2475 C.3     1  UNL1        0.1469
     10 C          -3.8120  -17.7968   23.0327 C.3     1  UNL1        0.1741
     11 O          -4.1506  -18.2270   21.6361 O.3     1  UNL1       -0.3507
     12 C         -11.6785  -18.2183   20.5799 C.3     1  UNL1        0.2358
     13 C         -11.6543  -16.7205   20.5007 C.3     1  UNL1        0.1697
     14 O         -12.2691  -16.0216   19.3245 O.3     1  UNL1       -0.3793
     15 H         -12.1682  -15.0626   19.4293 H       1  UNL1        0.2106
     16 C         -11.0153  -15.9217   21.5978 C.3     1  UNL1        0.1020
     17 N          -9.5212  -15.8111   21.6724 N.3     1  UNL1       -0.2964
     18 H          -9.2853  -14.8470   21.4373 H       1  UNL1        0.1233
     19 C          -8.8085  -16.1313   22.9528 C.3     1  UNL1        0.0541
     20 C          -9.5949  -16.4594   24.1872 C.3     1  UNL1        0.0171
     21 C          -7.3091  -16.1235   22.9987 C.3     1  UNL1        0.0171
@<TRIPOS>BOND
     1    10    11    1
     2    11     9    1
     3     9     8    1
     4     8     2    1
     5     2     3   ar
     6     3     4   ar
     7     4     5   ar
     8     5     1    1
     9     1    12    1
    10    12    13    1
    11    13    14    1
    12    13    16    1
    13    16    17    1
    14    17    19    1
    15    19    20    1
    16    19    21    1
    17     5     6   ar
    18     6     7   ar
    19     7     2   ar
    20    14    15    1
    21    17    18    1
@<TRIPOS>MOLECULE
*****
 21 21 0 0 0
SMALL
GASTEIGER

@<TRIPOS>ATOM
      1 O          -5.2900  -19.7396   22.3642 O.3     1  UNL1       -0.4728
      2 C          -9.3110  -19.1101   20.4445 C.ar    1  UNL1       -0.0195
      3 C          -9.1236  -18.8219   21.9046 C.ar    1  UNL1       -0.0011
      4 C          -7.7833  -19.0317   22.5445 C.ar    1  UNL1        0.0366
      5 C          -6.6304  -19.5298   21.7243 C.ar    1  UNL1        0.1387
      6 C          -6.8178  -19.8181   20.2643 C.ar    1  UNL1        0.0366
      7 C          -8.1581  -19.6082   19.6244 C.ar    1  UNL1       -0.0011
      8 C         -10.6514  -18.9003   19.8047 C.3     1  UNL1        0.0584
      9 C         -11.1948  -17.5120   19.6399 C.3     1  UNL1        0.1469
     10 C         -12.7811  -17.8920   21.6621 C.3     1  UNL1        0.1741
     11 O         -12.2775  -17.0172   20.5525 O.3     1  UNL1       -0.3507
     12 C          -4.0837  -19.0266   21.8292 C.3     1  UNL1        0.2358
     13 C          -3.2772  -18.1379   22.7292 C.3     1  UNL1        0.1697
     14 O          -1.7859  -18.0756   22.5814 O.3     1  UNL1       -0.3793
     15 H          -1.4217  -17.4585   23.2351 H       1  UNL1        0.2106
     16 C          -3.9623  -17.3115   23.7771 C.3     1  UNL1        0.1020
     17 N          -4.7995  -16.1338   23.3745 N.3     1  UNL1       -0.2964
     18 H          -5.2593  -16.3848   22.4994 H       1  UNL1        0.1233
     19 C          -5.8687  -15.6241   24.2948 C.3     1  UNL1        0.0541
     20 C          -7.2626  -15.4147   23.7818 C.3     1  UNL1        0.0171
     21 C          -5.5441  -15.3239   25.7282 C.3     1  UNL1        0.0171
@<TRIPOS>BOND
     1    10    11    1
     2    11     9    1
     3     9     8    1
     4     8     2    1
     5     2     3   ar
     6     3     4   ar
     7     4     5   ar
     8     5     1    1
     9     1    12    1
    10    12    13    1
    11    13    14    1
    12    13    16    1
    13    16    17    1
    14    17    19    1
    15    19    20    1
    16    19    21    1
    17     5     6   ar
    18     6     7   ar
    19     7     2   ar
    20    14    15    1
    21    17    18    1
@<TRIPOS>MOLECULE
*****
 21 21 0 0 0
SMALL
GASTEIGER

@<TRIPOS>ATOM
      1 O          -8.8969  -19.3084   21.6057 O.3     1  UNL1       -0.4728
      2 C          -4.4535  -19.7772   21.0703 C.ar    1  UNL1       -0.0195
      3 C          -4.9890  -18.9125   22.1728 C.ar    1  UNL1       -0.0011
      4 C          -6.4701  -18.7563   22.3512 C.ar    1  UNL1        0.0366
      5 C          -7.4157  -19.4647   21.4272 C.ar    1  UNL1        0.1387
      6 C          -6.8802  -20.3293   20.3247 C.ar    1  UNL1        0.0366
      7 C          -5.3991  -20.4856   20.1463 C.ar    1  UNL1       -0.0011
      8 C          -2.9724  -19.9334   20.8918 C.3     1  UNL1        0.0584
      9 C          -2.1730  -18.8332   20.2590 C.3     1  UNL1        0.1469
     10 C           0.1361  -17.6795   19.9637 C.3     1  UNL1        0.1741
     11 O          -0.8145  -18.4897   20.7943 O.3     1  UNL1       -0.3507
     12 C          -9.7427  -18.8243   20.4655 C.3     1  UNL1        0.2358
     13 C         -10.5475  -17.5667   20.6098 C.3     1  UNL1        0.1697
     14 O         -11.7653  -17.3540   19.7603 O.3     1  UNL1       -0.3793
     15 H         -12.1656  -16.4976   19.9778 H       1  UNL1        0.2106
     16 C         -10.1344  -16.5219   21.6036 C.3     1  UNL1        0.1020
     17 N          -9.8067  -16.9157   23.0134 N.3     1  UNL1       -0.2964
     18 H          -9.5335  -17.8981   22.9888 H       1  UNL1        0.1233
     19 C          -8.7333  -16.1864   23.7657 C.3     1  UNL1        0.0541
     20 C          -7.7145  -15.3755   23.0212 C.3     1  UNL1        0.0171
     21 C          -8.6787  -16.2681   25.2625 C.3     1  UNL1        0.0171
@<TRIPOS>BOND
     1    10    11    1
     2    11     9    1
     3     9     8    1
     4     8     2    1
     5     2     3   ar
     6     3     4   ar
     7     4     5   ar
     8     5     1    1
     9     1    12    1
    10    12    13    1
    11    13    14    1
    12    13    16    1
    13    16    17    1
    14    17    19    1
    15    19    20    1
    16    19    21    1
    17     5     6   ar
    18     6     7   ar
    19     7     2   ar
    20    14    15    1
    21    17    18    1
