@<TRIPOS>MOLECULE
*****
 24 27 0 0 0
SMALL
GASTEIGER

@<TRIPOS>ATOM
      1 C          -8.8401  -21.1759   24.0249 C.3     1  UNL1        0.0722
      2 C          -9.6976  -20.0835   23.4581 C.ar    1  UNL1        0.1250
      3 N         -11.0729  -19.7097   23.9258 N.ar    1  UNL1       -0.2299
      4 C         -11.5556  -18.5682   23.0807 C.ar    1  UNL1        0.1082
      5 C         -12.8367  -17.7880   23.0848 C.ar    1  UNL1        0.0875
      6 C         -13.0408  -16.6761   22.0989 C.ar    1  UNL1        0.0119
      7 C         -11.9638  -16.3445   21.1089 C.ar    1  UNL1        0.0023
      8 C         -10.6827  -17.1247   21.1048 C.ar    1  UNL1        0.0191
      9 C         -10.4786  -18.2366   22.0907 C.ar    1  UNL1        0.0837
     10 N          -9.3303  -19.1730   22.3240 N.ar    1  UNL1       -0.2882
     11 C          -8.0411  -19.1952   21.5576 C.ar    1  UNL1        0.0953
     12 C          -7.8749  -19.6013   20.1232 C.ar    1  UNL1        0.0250
     13 C          -6.4228  -19.4722   19.7701 C.ar    1  UNL1        0.0131
     14 C          -5.6914  -18.9863   20.9863 C.ar    1  UNL1        0.0841
     15 S          -6.6917  -18.8152   22.0910 S.2     1  UNL1       -0.0648
     16 C          -4.2186  -18.7187   21.0811 C.2     1  UNL1        0.2519
     17 O          -3.4712  -19.0718   22.3328 O.2     1  UNL1       -0.2696
     18 N          -3.4931  -18.0979   19.9243 N.am    1  UNL1       -0.3021
     19 H          -3.9836  -17.8661   19.1028 H       1  UNL1        0.1497
     20 C          -2.0202  -17.8303   20.0191 C.3     1  UNL1        0.0720
     21 C          -0.6052  -18.2338   19.7280 C.3     1  UNL1        0.0213
     22 C          -0.8842  -16.9631   20.4746 C.3     1  UNL1        0.0213
     23 C         -13.9137  -18.1196   24.0748 C.1     1  UNL1        0.1020
     24 N         -14.9907  -18.4513   25.0648 N.1     1  UNL1       -0.1908
@<TRIPOS>BOND
     1     1     2    1
     2     2     3   ar
     3     3     4   ar
     4     4     5   ar
     5     5    23    1
     6    23    24    3
     7     5     6   ar
     8     6     7   ar
     9     7     8   ar
    10     8     9   ar
    11     9    10   ar
    12    10    11    1
    13    11    12   ar
    14    12    13   ar
    15    13    14   ar
    16    14    16    1
    17    16    17    2
    18    16    18   am
    19    18    20    1
    20    20    21    1
    21    21    22    1
    22    14    15   ar
    23    10     2   ar
    24    15    11   ar
    25     9     4   ar
    26    22    20    1
    27    18    19    1
@<TRIPOS>MOLECULE
*****
 24 27 0 0 0
SMALL
GASTEIGER

@<TRIPOS>ATOM
      1 C          -8.9086  -20.6851   18.1475 C.3     1  UNL1        0.0722
      2 C          -9.1085  -19.9259   19.4256 C.ar    1  UNL1        0.1250
      3 N         -10.4012  -19.3388   19.9094 N.ar    1  UNL1       -0.2299
      4 C         -10.1425  -18.6705   21.2272 C.ar    1  UNL1        0.1082
      5 C         -11.0420  -17.9259   22.1687 C.ar    1  UNL1        0.0875
      6 C         -10.4887  -17.3554   23.4409 C.ar    1  UNL1        0.0119
      7 C          -9.0360  -17.5295   23.7715 C.ar    1  UNL1        0.0023
      8 C          -8.1365  -18.2740   22.8299 C.ar    1  UNL1        0.0191
      9 C          -8.6898  -18.8445   21.5578 C.ar    1  UNL1        0.0837
     10 N          -8.0507  -19.6204   20.4444 N.ar    1  UNL1       -0.2882
     11 C          -6.6073  -20.0206   20.3639 C.ar    1  UNL1        0.0953
     12 C          -6.0889  -21.3888   20.0334 C.ar    1  UNL1        0.0250
     13 C          -4.5901  -21.3366   20.0650 C.ar    1  UNL1        0.0131
     14 C          -4.1822  -19.9361   20.4150 C.ar    1  UNL1        0.0841
     15 S          -5.4290  -19.1229   20.5997 S.2     1  UNL1       -0.0648
     16 C          -2.7749  -19.4368   20.5556 C.2     1  UNL1        0.2519
     17 O          -1.8271  -20.1198   21.4965 O.2     1  UNL1       -0.2696
     18 N          -2.3152  -18.2543   19.7553 N.am    1  UNL1       -0.3021
     19 H          -2.9372  -17.8060   19.1378 H       1  UNL1        0.1497
     20 C          -0.9078  -17.7549   19.8959 C.3     1  UNL1        0.0720
     21 C           0.5648  -18.0272   19.9816 C.3     1  UNL1        0.0213
     22 C           0.0574  -16.6176   20.0538 C.3     1  UNL1        0.0213
     23 C         -12.4947  -17.7519   21.8381 C.1     1  UNL1        0.1020
     24 N         -13.9474  -17.5778   21.5075 N.1     1  UNL1       -0.1908
@<TRIPOS>BOND
     1     1     2    1
     2     2     3   ar
     3     3     4   ar
     4     4     5   ar
     5     5    23    1
     6    23    24    3
     7     5     6   ar
     8     6     7   ar
     9     7     8   ar
    10     8     9   ar
    11     9    10   ar
    12    10    11    1
    13    11    12   ar
    14    12    13   ar
    15    13    14   ar
    16    14    16    1
    17    16    17    2
    18    16    18   am
    19    18    20    1
    20    20    21    1
    21    21    22    1
    22    14    15   ar
    23    10     2   ar
    24    15    11   ar
    25     9     4   ar
    26    22    20    1
    27    18    19    1
@<TRIPOS>MOLECULE
*****
 24 27 0 0 0
SMALL
GASTEIGER

@<TRIPOS>ATOM
      1 C          -5.6447  -15.6781   23.9614 C.3     1  UNL1        0.0722
      2 C          -5.4888  -16.8537   23.0428 C.ar    1  UNL1        0.1250
      3 N          -4.1904  -17.4304   22.5615 N.ar    1  UNL1       -0.2299
      4 C          -4.5030  -18.5921   21.6655 C.ar    1  UNL1        0.1082
      5 C          -3.6222  -19.5395   20.9063 C.ar    1  UNL1        0.0875
      6 C          -4.2329  -20.6282   20.0746 C.ar    1  UNL1        0.0119
      7 C          -5.7245  -20.7695   20.0022 C.ar    1  UNL1        0.0023
      8 C          -6.6053  -19.8220   20.7614 C.ar    1  UNL1        0.0191
      9 C          -5.9946  -18.7334   21.5931 C.ar    1  UNL1        0.0837
     10 N          -6.6038  -17.6590   22.4443 N.ar    1  UNL1       -0.2882
     11 C          -8.0706  -17.4301   22.6592 C.ar    1  UNL1        0.0953
     12 C          -8.8756  -16.2917   22.1059 C.ar    1  UNL1        0.0250
     13 C         -10.2924  -16.4574   22.5699 C.ar    1  UNL1        0.0131
     14 C         -10.3630  -17.6981   23.4099 C.ar    1  UNL1        0.0841
     15 S          -8.9898  -18.2992   23.4651 S.2     1  UNL1       -0.0648
     16 C         -11.5911  -18.2421   24.0775 C.2     1  UNL1        0.2519
     17 O         -11.4773  -19.3898   25.0367 O.2     1  UNL1       -0.2696
     18 N         -12.9330  -17.6386   23.7861 N.am    1  UNL1       -0.3021
     19 H         -13.0077  -16.8853   23.1566 H       1  UNL1        0.1497
     20 C         -14.1611  -18.1827   24.4537 C.3     1  UNL1        0.0720
     21 C         -15.5848  -18.6480   24.3742 C.3     1  UNL1        0.0213
     22 C         -14.8644  -18.6597   25.6897 C.3     1  UNL1        0.0213
     23 C          -2.1306  -19.3983   20.9787 C.1     1  UNL1        0.1020
     24 N          -0.6390  -19.2570   21.0512 N.1     1  UNL1       -0.1908
@<TRIPOS>BOND
     1     1     2    1
     2     2     3   ar
     3     3     4   ar
     4     4     5   ar
     5     5    23    1
     6    23    24    3
     7     5     6   ar
     8     6     7   ar
     9     7     8   ar
    10     8     9   ar
    11     9    10   ar
    12    10    11    1
    13    11    12   ar
    14    12    13   ar
    15    13    14   ar
    16    14    16    1
    17    16    17    2
    18    16    18   am
    19    18    20    1
    20    20    21    1
    21    21    22    1
    22    14    15   ar
    23    10     2   ar
    24    15    11   ar
    25     9     4   ar
    26    22    20    1
    27    18    19    1
@<TRIPOS>MOLECULE
*****
 24 27 0 0 0
SMALL
GASTEIGER

@<TRIPOS>ATOM
      1 C          -8.1870  -15.9348   26.2781 C.3     1  UNL1        0.0722
      2 C          -8.7894  -16.5863   25.0687 C.ar    1  UNL1        0.1250
      3 N         -10.2290  -16.9722   24.9002 N.ar    1  UNL1       -0.2299
      4 C         -10.3873  -17.5908   23.5428 C.ar    1  UNL1        0.1082
      5 C         -11.5800  -18.1568   22.8307 C.ar    1  UNL1        0.0875
      6 C         -11.4307  -18.7193   21.4482 C.ar    1  UNL1        0.0119
      7 C         -10.0888  -18.7157   20.7779 C.ar    1  UNL1        0.0023
      8 C          -8.8962  -18.1497   21.4900 C.ar    1  UNL1        0.0191
      9 C          -9.0455  -17.5872   22.8725 C.ar    1  UNL1        0.0837
     10 N          -8.0579  -16.9664   23.8156 N.ar    1  UNL1       -0.2882
     11 C          -6.5955  -16.7617   23.5517 C.ar    1  UNL1        0.0953
     12 C          -5.7582  -15.6264   24.0615 C.ar    1  UNL1        0.0250
     13 C          -4.3589  -15.8193   23.5567 C.ar    1  UNL1        0.0131
     14 C          -4.3315  -17.0739   22.7348 C.ar    1  UNL1        0.0841
     15 S          -5.7138  -17.6562   22.7318 S.2     1  UNL1       -0.0648
     16 C          -3.1324  -17.6456   22.0383 C.2     1  UNL1        0.2519
     17 O          -2.6796  -19.0417   22.3484 O.2     1  UNL1       -0.2696
     18 N          -2.3859  -16.8213   21.0317 N.am    1  UNL1       -0.3021
     19 H          -2.6830  -15.9050   20.8282 H       1  UNL1        0.1497
     20 C          -1.1867  -17.3931   20.3352 C.3     1  UNL1        0.0720
     21 C          -0.5920  -18.3624   19.3571 C.3     1  UNL1        0.0213
     22 C           0.2957  -17.4140   20.1070 C.3     1  UNL1        0.0213
     23 C         -12.9218  -18.1604   23.5010 C.1     1  UNL1        0.1020
     24 N         -14.2637  -18.1640   24.1714 N.1     1  UNL1       -0.1908
@<TRIPOS>BOND
     1     1     2    1
     2     2     3   ar
     3     3     4   ar
     4     4     5   ar
     5     5    23    1
     6    23    24    3
     7     5     6   ar
     8     6     7   ar
     9     7     8   ar
    10     8     9   ar
    11     9    10   ar
    12    10    11    1
    13    11    12   ar
    14    12    13   ar
    15    13    14   ar
    16    14    16    1
    17    16    17    2
    18    16    18   am
    19    18    20    1
    20    20    21    1
    21    21    22    1
    22    14    15   ar
    23    10     2   ar
    24    15    11   ar
    25     9     4   ar
    26    22    20    1
    27    18    19    1
@<TRIPOS>MOLECULE
*****
 24 27 0 0 0
SMALL
GASTEIGER

@<TRIPOS>ATOM
      1 C         -11.7487   -7.1758   18.1033 C.3     1  UNL1        0.0722
      2 C         -13.2052   -7.2006   18.4610 C.ar    1  UNL1        0.1250
      3 N         -14.0630   -8.4253   18.5807 N.ar    1  UNL1       -0.2299
      4 C         -15.4476   -7.9867   18.9555 C.ar    1  UNL1        0.1082
      5 C         -16.7100   -8.7561   19.2093 C.ar    1  UNL1        0.0875
      6 C         -17.9703   -8.0296   19.5750 C.ar    1  UNL1        0.0119
      7 C         -17.9683   -6.5338   19.6869 C.ar    1  UNL1        0.0023
      8 C         -16.7059   -5.7644   19.4331 C.ar    1  UNL1        0.0191
      9 C         -15.4456   -6.4909   19.0674 C.ar    1  UNL1        0.0837
     10 N         -14.0597   -6.0051   18.7618 N.ar    1  UNL1       -0.2882
     11 C         -13.6077   -4.5748   18.7577 C.ar    1  UNL1        0.0953
     12 C         -12.6550   -3.9485   19.7324 C.ar    1  UNL1        0.0250
     13 C         -12.4876   -2.5063   19.3553 C.ar    1  UNL1        0.0131
     14 C         -13.3367   -2.2413   18.1475 C.ar    1  UNL1        0.0841
     15 S         -14.0290   -3.5198   17.7782 S.2     1  UNL1       -0.0648
     16 C         -13.4702   -0.9286   17.4344 C.2     1  UNL1        0.2519
     17 O         -13.8443   -0.8986   15.9820 O.2     1  UNL1       -0.2696
     18 N         -13.2296    0.3543   18.1734 N.am    1  UNL1       -0.3021
     19 H         -12.9841    0.3347   19.1266 H       1  UNL1        0.1497
     20 C         -13.3631    1.6672   17.4602 C.3     1  UNL1        0.0720
     21 C         -14.1659    2.8904   17.1299 C.3     1  UNL1        0.0213
     22 C         -12.7913    2.7178   16.5551 C.3     1  UNL1        0.0213
     23 C         -16.7120  -10.2519   19.0974 C.1     1  UNL1        0.1020
     24 N         -16.7140  -11.7477   18.9855 N.1     1  UNL1       -0.1908
@<TRIPOS>BOND
     1     1     2    1
     2     2     3   ar
     3     3     4   ar
     4     4     5   ar
     5     5    23    1
     6    23    24    3
     7     5     6   ar
     8     6     7   ar
     9     7     8   ar
    10     8     9   ar
    11     9    10   ar
    12    10    11    1
    13    11    12   ar
    14    12    13   ar
    15    13    14   ar
    16    14    16    1
    17    16    17    2
    18    16    18   am
    19    18    20    1
    20    20    21    1
    21    21    22    1
    22    14    15   ar
    23    10     2   ar
    24    15    11   ar
    25     9     4   ar
    26    22    20    1
    27    18    19    1
@<TRIPOS>MOLECULE
*****
 24 27 0 0 0
SMALL
GASTEIGER

@<TRIPOS>ATOM
      1 C           2.1315    0.1746   23.5865 C.3     1  UNL1        0.0722
      2 C           2.5624   -0.1434   22.1853 C.ar    1  UNL1        0.1250
      3 N           3.4993   -1.2420   21.7788 N.ar    1  UNL1       -0.2299
      4 C           3.6479   -1.1962   20.2869 C.ar    1  UNL1        0.1082
      5 C           4.4435   -2.0351   19.3313 C.ar    1  UNL1        0.0875
      6 C           4.3941   -1.7471   17.8601 C.ar    1  UNL1        0.0119
      7 C           3.5490   -0.6201   17.3445 C.ar    1  UNL1        0.0023
      8 C           2.7534    0.2187   18.3001 C.ar    1  UNL1        0.0191
      9 C           2.8028   -0.0693   19.7713 C.ar    1  UNL1        0.0837
     10 N           2.1319    0.5814   20.9446 N.ar    1  UNL1       -0.2882
     11 C           1.1951    1.7514   20.8871 C.ar    1  UNL1        0.0953
     12 C           1.5029    3.1500   21.3333 C.ar    1  UNL1        0.0250
     13 C           0.2840    3.9913   21.0954 C.ar    1  UNL1        0.0131
     14 C          -0.7772    3.1126   20.5021 C.ar    1  UNL1        0.0841
     15 S          -0.2140    1.7283   20.3735 S.2     1  UNL1       -0.0648
     16 C          -2.1587    3.5427   20.1070 C.2     1  UNL1        0.2519
     17 O          -2.3443    4.6796   19.1462 O.2     1  UNL1       -0.2696
     18 N          -3.3548    2.8360   20.6726 N.am    1  UNL1       -0.3021
     19 H          -3.2330    2.0898   21.3032 H       1  UNL1        0.1497
     20 C          -4.7364    3.2661   20.2774 C.3     1  UNL1        0.0720
     21 C          -5.8713    3.2499   19.2969 C.3     1  UNL1        0.0213
     22 C          -5.9944    4.0274   20.5736 C.3     1  UNL1        0.0213
     23 C           5.2886   -3.1620   19.8470 C.1     1  UNL1        0.1020
     24 N           6.1337   -4.2890   20.3626 N.1     1  UNL1       -0.1908
@<TRIPOS>BOND
     1     1     2    1
     2     2     3   ar
     3     3     4   ar
     4     4     5   ar
     5     5    23    1
     6    23    24    3
     7     5     6   ar
     8     6     7   ar
     9     7     8   ar
    10     8     9   ar
    11     9    10   ar
    12    10    11    1
    13    11    12   ar
    14    12    13   ar
    15    13    14   ar
    16    14    16    1
    17    16    17    2
    18    16    18   am
    19    18    20    1
    20    20    21    1
    21    21    22    1
    22    14    15   ar
    23    10     2   ar
    24    15    11   ar
    25     9     4   ar
    26    22    20    1
    27    18    19    1
@<TRIPOS>MOLECULE
*****
 24 27 0 0 0
SMALL
GASTEIGER

@<TRIPOS>ATOM
      1 C           4.8310    1.4015   22.7523 C.3     1  UNL1        0.0722
      2 C           4.6559    0.0909   22.0441 C.ar    1  UNL1        0.1250
      3 N           4.4993   -0.0976   20.5642 N.ar    1  UNL1       -0.2299
      4 C           4.3532   -1.5663   20.2968 C.ar    1  UNL1        0.1082
      5 C           4.1684   -2.3417   19.0262 C.ar    1  UNL1        0.0875
      6 C           4.0499   -3.8363   19.0701 C.ar    1  UNL1        0.0119
      7 C           4.1162   -4.5556   20.3848 C.ar    1  UNL1        0.0023
      8 C           4.3010   -3.7803   21.6554 C.ar    1  UNL1        0.0191
      9 C           4.4195   -2.2856   21.6115 C.ar    1  UNL1        0.0837
     10 N           4.6066   -1.2614   22.6913 N.ar    1  UNL1       -0.2882
     11 C           4.7238   -1.5405   24.1604 C.ar    1  UNL1        0.0953
     12 C           3.8157   -1.0155   25.2328 C.ar    1  UNL1        0.0250
     13 C           4.3003   -1.5442   26.5502 C.ar    1  UNL1        0.0131
     14 C           5.5078   -2.3959   26.2922 C.ar    1  UNL1        0.0841
     15 S           5.7694   -2.3936   24.8152 S.2     1  UNL1       -0.0648
     16 C           6.3122   -3.1223   27.3290 C.2     1  UNL1        0.2519
     17 O           7.5514   -2.4930   27.8935 O.2     1  UNL1       -0.2696
     18 N           5.8777   -4.4780   27.8015 N.am    1  UNL1       -0.3021
     19 H           5.0644   -4.8910   27.4310 H       1  UNL1        0.1497
     20 C           6.6822   -5.2044   28.8383 C.3     1  UNL1        0.0720
     21 C           7.8200   -6.1131   29.1981 C.3     1  UNL1        0.0213
     22 C           6.9377   -5.5538   30.2745 C.3     1  UNL1        0.0213
     23 C           4.1021   -1.6224   17.7116 C.1     1  UNL1        0.1020
     24 N           4.0358   -0.9031   16.3969 N.1     1  UNL1       -0.1908
@<TRIPOS>BOND
     1     1     2    1
     2     2     3   ar
     3     3     4   ar
     4     4     5   ar
     5     5    23    1
     6    23    24    3
     7     5     6   ar
     8     6     7   ar
     9     7     8   ar
    10     8     9   ar
    11     9    10   ar
    12    10    11    1
    13    11    12   ar
    14    12    13   ar
    15    13    14   ar
    16    14    16    1
    17    16    17    2
    18    16    18   am
    19    18    20    1
    20    20    21    1
    21    21    22    1
    22    14    15   ar
    23    10     2   ar
    24    15    11   ar
    25     9     4   ar
    26    22    20    1
    27    18    19    1
@<TRIPOS>MOLECULE
*****
 24 27 0 0 0
SMALL
GASTEIGER

@<TRIPOS>ATOM
      1 C           6.0196   -1.8009   25.5654 C.3     1  UNL1        0.0722
      2 C           6.5257   -3.2000   25.7558 C.ar    1  UNL1        0.1250
      3 N           6.7831   -3.8731   27.0713 N.ar    1  UNL1       -0.2299
      4 C           7.2797   -5.2609   26.7927 C.ar    1  UNL1        0.1082
      5 C           7.6931   -6.3803   27.7015 C.ar    1  UNL1        0.0875
      6 C           8.1561   -7.6842   27.1225 C.ar    1  UNL1        0.0119
      7 C           8.2056   -7.8688   25.6347 C.ar    1  UNL1        0.0023
      8 C           7.7921   -6.7494   24.7259 C.ar    1  UNL1        0.0191
      9 C           7.3292   -5.4454   25.3049 C.ar    1  UNL1        0.0837
     10 N           6.8632   -4.1718   24.6641 N.ar    1  UNL1       -0.2882
     11 C           6.7539   -3.9150   23.1903 C.ar    1  UNL1        0.0953
     12 C           7.8284   -4.1549   22.1715 C.ar    1  UNL1        0.0250
     13 C           7.2895   -3.7614   20.8281 C.ar    1  UNL1        0.0131
     14 C           5.8820   -3.2782   21.0166 C.ar    1  UNL1        0.0841
     15 S           5.5511   -3.3731   22.4765 S.2     1  UNL1       -0.0648
     16 C           4.9664   -2.7864   19.9351 C.2     1  UNL1        0.2519
     17 O           3.8902   -3.6830   19.3983 O.2     1  UNL1       -0.2696
     18 N           5.1267   -1.3981   19.3903 N.am    1  UNL1       -0.3021
     19 H           5.8330   -0.8096   19.7426 H       1  UNL1        0.1497
     20 C           4.2110   -0.9064   18.3088 C.3     1  UNL1        0.0720
     21 C           3.0269   -0.0915   17.8802 C.3     1  UNL1        0.0213
     22 C           3.8091   -0.8696   16.8641 C.3     1  UNL1        0.0213
     23 C           7.6436   -6.1957   29.1893 C.1     1  UNL1        0.1020
     24 N           7.5941   -6.0111   30.6771 N.1     1  UNL1       -0.1908
@<TRIPOS>BOND
     1     1     2    1
     2     2     3   ar
     3     3     4   ar
     4     4     5   ar
     5     5    23    1
     6    23    24    3
     7     5     6   ar
     8     6     7   ar
     9     7     8   ar
    10     8     9   ar
    11     9    10   ar
    12    10    11    1
    13    11    12   ar
    14    12    13   ar
    15    13    14   ar
    16    14    16    1
    17    16    17    2
    18    16    18   am
    19    18    20    1
    20    20    21    1
    21    21    22    1
    22    14    15   ar
    23    10     2   ar
    24    15    11   ar
    25     9     4   ar
    26    22    20    1
    27    18    19    1
@<TRIPOS>MOLECULE
*****
 24 27 0 0 0
SMALL
GASTEIGER

@<TRIPOS>ATOM
      1 C           3.8950   -0.8444   17.0296 C.3     1  UNL1        0.0722
      2 C           3.0630   -0.2352   18.1189 C.ar    1  UNL1        0.1250
      3 N           2.2252    1.0034   18.0004 N.ar    1  UNL1       -0.2299
      4 C           1.5671    1.2465   19.3262 C.ar    1  UNL1        0.1082
      5 C           0.6311    2.3182   19.8006 C.ar    1  UNL1        0.0875
      6 C           0.1260    2.3016   21.2129 C.ar    1  UNL1        0.0119
      7 C           0.5570    1.2133   22.1508 C.ar    1  UNL1        0.0023
      8 C           1.4931    0.1415   21.6764 C.ar    1  UNL1        0.0191
      9 C           1.9981    0.1581   20.2641 C.ar    1  UNL1        0.0837
     10 N           2.9226   -0.7576   19.5179 N.ar    1  UNL1       -0.2882
     11 C           3.5897   -1.9810   20.0734 C.ar    1  UNL1        0.0953
     12 C           3.4215   -3.3832   19.5679 C.ar    1  UNL1        0.0250
     13 C           4.2698   -4.2857   20.4138 C.ar    1  UNL1        0.0131
     14 C           4.9623   -3.4414   21.4422 C.ar    1  UNL1        0.0841
     15 S           4.5419   -2.0170   21.2317 S.2     1  UNL1       -0.0648
     16 C           5.9089   -3.9347   22.4959 C.2     1  UNL1        0.2519
     17 O           7.1384   -4.6983   22.1016 O.2     1  UNL1       -0.2696
     18 N           5.6261   -3.6647   23.9441 N.am    1  UNL1       -0.3021
     19 H           4.8192   -3.1636   24.2029 H       1  UNL1        0.1497
     20 C           6.5728   -4.1581   24.9978 C.3     1  UNL1        0.0720
     21 C           6.8956   -5.1098   26.1113 C.3     1  UNL1        0.0213
     22 C           7.8897   -4.0609   25.7094 C.3     1  UNL1        0.0213
     23 C           0.2001    3.4066   18.8627 C.1     1  UNL1        0.1020
     24 N          -0.2310    4.4950   17.9248 N.1     1  UNL1       -0.1908
@<TRIPOS>BOND
     1     1     2    1
     2     2     3   ar
     3     3     4   ar
     4     4     5   ar
     5     5    23    1
     6    23    24    3
     7     5     6   ar
     8     6     7   ar
     9     7     8   ar
    10     8     9   ar
    11     9    10   ar
    12    10    11    1
    13    11    12   ar
    14    12    13   ar
    15    13    14   ar
    16    14    16    1
    17    16    17    2
    18    16    18   am
    19    18    20    1
    20    20    21    1
    21    21    22    1
    22    14    15   ar
    23    10     2   ar
    24    15    11   ar
    25     9     4   ar
    26    22    20    1
    27    18    19    1
