@<TRIPOS>MOLECULE
*****
 31 33 0 0 0
SMALL
GASTEIGER

@<TRIPOS>ATOM
      1 C          -5.5993  -17.4481   22.8864 C.ar    1  UNL1        0.0942
      2 C          -5.7720  -16.2888   23.8226 C.ar    1  UNL1        0.1078
      3 N          -7.1477  -15.8579   24.2369 N.ar    1  UNL1       -0.2119
      4 C          -8.3508  -16.5863   23.7152 C.ar    1  UNL1        0.2206
      5 N          -8.1781  -17.7455   22.7791 N.ar    1  UNL1       -0.2094
      6 C          -6.8023  -18.1764   22.3647 C.ar    1  UNL1        0.1613
      7 O          -3.1285  -16.8630   22.3361 O.2     1  UNL1       -0.2700
      8 C          -4.2236  -17.8790   22.4721 C.2     1  UNL1        0.2488
      9 N          -3.9430  -19.3260   22.1936 N.am    1  UNL1       -0.3008
     10 H          -4.6617  -19.9929   22.2829 H       1  UNL1        0.1497
     11 C          -2.5673  -19.7570   21.7793 C.3     1  UNL1        0.0898
     12 C          -1.8730  -19.0615   20.6459 C.3     1  UNL1        0.0246
     13 C          -0.4496  -18.6142   20.7996 C.3     1  UNL1        0.0338
     14 C           0.2446  -17.9188   19.6663 C.3     1  UNL1        0.1422
     15 O          -0.4847  -17.6707   18.3792 O.3     1  UNL1       -0.3538
     16 C          -1.9081  -18.1180   18.2254 C.3     1  UNL1        0.1422
     17 C          -2.6023  -18.8134   19.3588 C.3     1  UNL1        0.0338
     18 C          -6.6296  -19.3357   21.4286 C.3     1  UNL1        0.4351
     19 F          -6.4570  -20.4949   20.4924 F       1  UNL1       -0.1644
     20 F          -6.8506  -20.2876   22.5666 F       1  UNL1       -0.1644
     21 F          -6.4087  -18.3838   20.2906 F       1  UNL1       -0.1644
     22 N          -9.7264  -16.1553   24.1296 N.pl3   1  UNL1       -0.2825
     23 H          -9.8519  -15.6402   24.9591 H       1  UNL1        0.1551
     24 C         -10.9110  -16.5092   23.2801 C.ar    1  UNL1        0.0521
     25 C         -10.9579  -16.0816   21.8431 C.ar    1  UNL1        0.0261
     26 C         -12.1425  -16.4355   20.9936 C.ar    1  UNL1        0.0597
     27 CL        -12.1894  -16.0078   19.5566 Cl      1  UNL1       -0.0822
     28 C         -13.2800  -17.2170   21.5810 C.ar    1  UNL1        0.0229
     29 C         -13.2330  -17.6447   23.0180 C.ar    1  UNL1        0.0597
     30 CL        -14.3706  -18.4262   23.6055 Cl      1  UNL1       -0.0822
     31 C         -12.0485  -17.2908   23.8675 C.ar    1  UNL1        0.0261
@<TRIPOS>BOND
     1     7     8    2
     2     8     9   am
     3     9    11    1
     4    11    12    1
     5    12    13    1
     6    13    14    1
     7    14    15    1
     8    15    16    1
     9    16    17    1
    10     8     1    1
    11     1     2   ar
    12     2     3   ar
    13     3     4   ar
    14     4    22    1
    15    22    24    1
    16    24    25   ar
    17    25    26   ar
    18    26    27    1
    19    26    28   ar
    20    28    29   ar
    21    29    30    1
    22    29    31   ar
    23     4     5   ar
    24     5     6   ar
    25     6    18    1
    26    18    19    1
    27    18    20    1
    28    18    21    1
    29    17    12    1
    30     6     1   ar
    31    31    24   ar
    32     9    10    1
    33    22    23    1
@<TRIPOS>MOLECULE
*****
 31 33 0 0 0
SMALL
GASTEIGER

@<TRIPOS>ATOM
      1 C          -5.6019  -17.4532   22.8965 C.ar    1  UNL1        0.0942
      2 C          -5.7755  -16.2950   23.8336 C.ar    1  UNL1        0.1078
      3 N          -7.1517  -15.8635   24.2459 N.ar    1  UNL1       -0.2119
      4 C          -8.3543  -16.5903   23.7210 C.ar    1  UNL1        0.2206
      5 N          -8.1807  -17.7486   22.7838 N.ar    1  UNL1       -0.2094
      6 C          -6.8045  -18.1800   22.3715 C.ar    1  UNL1        0.1613
      7 O          -3.1317  -16.8682   22.3438 O.2     1  UNL1       -0.2700
      8 C          -4.2258  -17.8847   22.4842 C.2     1  UNL1        0.2488
      9 N          -3.9437  -19.3326   22.2123 N.am    1  UNL1       -0.3008
     10 H          -4.6618  -19.9998   22.3044 H       1  UNL1        0.1497
     11 C          -2.5675  -19.7641   21.8000 C.3     1  UNL1        0.0898
     12 C          -1.8732  -19.0721   20.6646 C.3     1  UNL1        0.0246
     13 C          -2.6026  -18.8270   19.3770 C.3     1  UNL1        0.0338
     14 C          -1.9083  -18.1350   18.2417 C.3     1  UNL1        0.1422
     15 O          -0.4845  -17.6881   18.3940 O.3     1  UNL1       -0.3538
     16 C           0.2449  -17.9331   19.6815 C.3     1  UNL1        0.1422
     17 C          -0.4495  -18.6251   20.8168 C.3     1  UNL1        0.0338
     18 C          -6.6309  -19.3383   21.4344 C.3     1  UNL1        0.4351
     19 F          -6.4573  -20.4965   20.4972 F       1  UNL1       -0.1644
     20 F          -6.3997  -18.3852   20.2993 F       1  UNL1       -0.1644
     21 F          -6.8621  -20.2913   22.5694 F       1  UNL1       -0.1644
     22 N          -9.7305  -16.1589   24.1333 N.pl3   1  UNL1       -0.2825
     23 H          -9.8571  -15.6443   24.9630 H       1  UNL1        0.1551
     24 C         -10.9137  -16.5115   23.2814 C.ar    1  UNL1        0.0521
     25 C         -12.0496  -17.2987   23.8644 C.ar    1  UNL1        0.0261
     26 C         -13.2329  -17.6513   23.0126 C.ar    1  UNL1        0.0597
     27 CL        -14.3688  -18.4386   23.5957 Cl      1  UNL1       -0.0822
     28 C         -13.2802  -17.2167   21.5778 C.ar    1  UNL1        0.0229
     29 C         -12.1443  -16.4294   20.9948 C.ar    1  UNL1        0.0597
     30 CL        -12.1916  -15.9947   19.5598 Cl      1  UNL1       -0.0822
     31 C         -10.9611  -16.0768   21.8466 C.ar    1  UNL1        0.0261
@<TRIPOS>BOND
     1     7     8    2
     2     8     9   am
     3     9    11    1
     4    11    12    1
     5    12    13    1
     6    13    14    1
     7    14    15    1
     8    15    16    1
     9    16    17    1
    10     8     1    1
    11     1     2   ar
    12     2     3   ar
    13     3     4   ar
    14     4    22    1
    15    22    24    1
    16    24    25   ar
    17    25    26   ar
    18    26    27    1
    19    26    28   ar
    20    28    29   ar
    21    29    30    1
    22    29    31   ar
    23     4     5   ar
    24     5     6   ar
    25     6    18    1
    26    18    19    1
    27    18    20    1
    28    18    21    1
    29    17    12    1
    30     6     1   ar
    31    31    24   ar
    32     9    10    1
    33    22    23    1
@<TRIPOS>MOLECULE
*****
 31 33 0 0 0
SMALL
GASTEIGER

@<TRIPOS>ATOM
      1 C           6.0523   -2.4179   19.2837 C.ar    1  UNL1        0.0942
      2 C           7.4546   -1.9921   19.6036 C.ar    1  UNL1        0.1078
      3 N           8.3710   -2.9225   20.3415 N.ar    1  UNL1       -0.2119
      4 C           7.8851   -4.2787   20.7596 C.ar    1  UNL1        0.2206
      5 N           6.4829   -4.7045   20.4397 N.ar    1  UNL1       -0.2094
      6 C           5.5664   -3.7740   19.7017 C.ar    1  UNL1        0.1613
      7 O           4.8955   -1.6796   17.0777 O.2     1  UNL1       -0.2700
      8 C           5.1359   -1.4875   18.5457 C.2     1  UNL1        0.2488
      9 N           4.4599   -0.3650   19.2759 N.am    1  UNL1       -0.3008
     10 H           4.6177   -0.2390   20.2395 H       1  UNL1        0.1497
     11 C           3.5435    0.5653   18.5380 C.3     1  UNL1        0.0898
     12 C           2.1929    0.8924   19.1030 C.3     1  UNL1        0.0246
     13 C           1.5145    2.1768   18.7290 C.3     1  UNL1        0.0338
     14 C           0.1640    2.5038   19.2939 C.3     1  UNL1        0.1422
     15 O          -0.5081    1.5463   20.2329 O.3     1  UNL1       -0.3538
     16 C           0.1703    0.2619   20.6069 C.3     1  UNL1        0.1422
     17 C           1.5208   -0.0651   20.0419 C.3     1  UNL1        0.0338
     18 C           4.1642   -4.1998   19.3818 C.3     1  UNL1        0.4351
     19 F           2.7619   -4.6255   19.0619 F       1  UNL1       -0.1644
     20 F           4.6738   -5.0108   18.2274 F       1  UNL1       -0.1644
     21 F           3.6546   -3.3887   20.5361 F       1  UNL1       -0.1644
     22 N           8.8015   -5.2091   21.4975 N.pl3   1  UNL1       -0.2825
     23 H           9.5651   -5.6202   21.0315 H       1  UNL1        0.1551
     24 C           8.5546   -5.5130   22.9455 C.ar    1  UNL1        0.0521
     25 C           9.1562   -6.7380   23.5679 C.ar    1  UNL1        0.0261
     26 C           8.9093   -7.0419   25.0159 C.ar    1  UNL1        0.0597
     27 CL          9.5109   -8.2670   25.6382 Cl      1  UNL1       -0.0822
     28 C           8.0608   -6.1208   25.8414 C.ar    1  UNL1        0.0229
     29 C           7.4592   -4.8958   25.2191 C.ar    1  UNL1        0.0597
     30 CL          6.6107   -3.9747   26.0446 Cl      1  UNL1       -0.0822
     31 C           7.7061   -4.5919   23.7711 C.ar    1  UNL1        0.0261
@<TRIPOS>BOND
     1     7     8    2
     2     8     9   am
     3     9    11    1
     4    11    12    1
     5    12    13    1
     6    13    14    1
     7    14    15    1
     8    15    16    1
     9    16    17    1
    10     8     1    1
    11     1     2   ar
    12     2     3   ar
    13     3     4   ar
    14     4    22    1
    15    22    24    1
    16    24    25   ar
    17    25    26   ar
    18    26    27    1
    19    26    28   ar
    20    28    29   ar
    21    29    30    1
    22    29    31   ar
    23     4     5   ar
    24     5     6   ar
    25     6    18    1
    26    18    19    1
    27    18    20    1
    28    18    21    1
    29    17    12    1
    30     6     1   ar
    31    31    24   ar
    32     9    10    1
    33    22    23    1
@<TRIPOS>MOLECULE
*****
 31 33 0 0 0
SMALL
GASTEIGER

@<TRIPOS>ATOM
      1 C           6.0733   -2.4071   19.3266 C.ar    1  UNL1        0.0942
      2 C           7.4726   -1.9903   19.6701 C.ar    1  UNL1        0.1078
      3 N           8.3717   -2.9278   20.4202 N.ar    1  UNL1       -0.2119
      4 C           7.8714   -4.2822   20.8268 C.ar    1  UNL1        0.2206
      5 N           6.4720   -4.6991   20.4833 N.ar    1  UNL1       -0.2094
      6 C           5.5729   -3.7614   19.7332 C.ar    1  UNL1        0.1613
      7 O           4.9466   -1.6638   17.1067 O.2     1  UNL1       -0.2700
      8 C           5.1742   -1.4696   18.5765 C.2     1  UNL1        0.2488
      9 N           4.5026   -0.3377   19.2963 N.am    1  UNL1       -0.3008
     10 H           4.6520   -0.2102   20.2610 H       1  UNL1        0.1497
     11 C           3.6036    0.5998   18.5462 C.3     1  UNL1        0.0898
     12 C           2.2285    0.8975   19.0665 C.3     1  UNL1        0.0246
     13 C           1.5361   -0.0868   19.9618 C.3     1  UNL1        0.0338
     14 C           0.1611    0.2109   20.4821 C.3     1  UNL1        0.1422
     15 O          -0.5214    1.4929   20.1071 O.3     1  UNL1       -0.3538
     16 C           0.1710    2.4772   19.2118 C.3     1  UNL1        0.1422
     17 C           1.5460    2.1795   18.6915 C.3     1  UNL1        0.0338
     18 C           4.1736   -4.1783   19.3897 C.3     1  UNL1        0.4351
     19 F           2.7742   -4.5951   19.0462 F       1  UNL1       -0.1644
     20 F           4.6955   -4.9764   18.2319 F       1  UNL1       -0.1644
     21 F           3.6516   -3.3801   20.5475 F       1  UNL1       -0.1644
     22 N           8.7704   -5.2198   21.5769 N.pl3   1  UNL1       -0.2825
     23 H           9.5409   -5.6317   21.1230 H       1  UNL1        0.1551
     24 C           8.4957   -5.5297   23.0186 C.ar    1  UNL1        0.0521
     25 C           7.6535   -4.5981   23.8388 C.ar    1  UNL1        0.0261
     26 C           7.3788   -4.9081   25.2804 C.ar    1  UNL1        0.0597
     27 CL          6.5365   -3.9764   26.1006 Cl      1  UNL1       -0.0822
     28 C           7.9462   -6.1497   25.9020 C.ar    1  UNL1        0.0229
     29 C           8.7884   -7.0813   25.0818 C.ar    1  UNL1        0.0597
     30 CL          9.3560   -8.3230   25.7033 Cl      1  UNL1       -0.0822
     31 C           9.0632   -6.7714   23.6401 C.ar    1  UNL1        0.0261
@<TRIPOS>BOND
     1     7     8    2
     2     8     9   am
     3     9    11    1
     4    11    12    1
     5    12    13    1
     6    13    14    1
     7    14    15    1
     8    15    16    1
     9    16    17    1
    10     8     1    1
    11     1     2   ar
    12     2     3   ar
    13     3     4   ar
    14     4    22    1
    15    22    24    1
    16    24    25   ar
    17    25    26   ar
    18    26    27    1
    19    26    28   ar
    20    28    29   ar
    21    29    30    1
    22    29    31   ar
    23     4     5   ar
    24     5     6   ar
    25     6    18    1
    26    18    19    1
    27    18    20    1
    28    18    21    1
    29    17    12    1
    30     6     1   ar
    31    31    24   ar
    32     9    10    1
    33    22    23    1
@<TRIPOS>MOLECULE
*****
 31 33 0 0 0
SMALL
GASTEIGER

@<TRIPOS>ATOM
      1 C          -9.3075  -19.4939   21.0738 C.ar    1  UNL1        0.0942
      2 C          -8.8315  -19.6760   19.6630 C.ar    1  UNL1        0.1078
      3 N          -7.4054  -20.0564   19.3959 N.ar    1  UNL1       -0.2119
      4 C          -6.4552  -20.2548   20.5395 C.ar    1  UNL1        0.2206
      5 N          -6.9312  -20.0728   21.9503 N.ar    1  UNL1       -0.2094
      6 C          -8.3574  -19.6923   22.2174 C.ar    1  UNL1        0.1613
      7 O         -11.8119  -20.1544   21.2787 O.2     1  UNL1       -0.2700
      8 C         -10.7336  -19.1135   21.3409 C.2     1  UNL1        0.2488
      9 N         -11.0816  -17.6920   21.6704 N.am    1  UNL1       -0.3008
     10 H         -10.3740  -17.0088   21.7113 H       1  UNL1        0.1497
     11 C         -12.5077  -17.3116   21.9375 C.3     1  UNL1        0.0898
     12 C         -13.2038  -17.8245   23.1633 C.3     1  UNL1        0.0246
     13 C         -14.6970  -17.9674   23.1733 C.3     1  UNL1        0.0338
     14 C         -15.3930  -18.4804   24.3990 C.3     1  UNL1        0.1422
     15 O         -14.5959  -18.8504   25.6146 O.3     1  UNL1       -0.3538
     16 C         -13.1028  -18.7076   25.6046 C.3     1  UNL1        0.1422
     17 C         -12.4068  -18.1946   24.3789 C.3     1  UNL1        0.0338
     18 C          -8.8335  -19.5102   23.6282 C.3     1  UNL1        0.4351
     19 F          -9.3095  -19.3282   25.0389 F       1  UNL1       -0.1644
     20 F          -8.5108  -18.0475   23.5483 F       1  UNL1       -0.1644
     21 F          -9.1561  -20.9729   23.7081 F       1  UNL1       -0.1644
     22 N          -5.0291  -20.6353   20.2724 N.pl3   1  UNL1       -0.2825
     23 H          -4.8088  -21.5525   19.9906 H       1  UNL1        0.1551
     24 C          -3.9386  -19.6182   20.4346 C.ar    1  UNL1        0.0521
     25 C          -3.5786  -19.1159   21.8013 C.ar    1  UNL1        0.0261
     26 C          -2.4881  -18.0988   21.9635 C.ar    1  UNL1        0.0597
     27 CL         -2.1282  -17.5965   23.3303 Cl      1  UNL1       -0.0822
     28 C          -1.7574  -17.5841   20.7588 C.ar    1  UNL1        0.0229
     29 C          -2.1174  -18.0864   19.3921 C.ar    1  UNL1        0.0597
     30 CL         -1.3867  -17.5717   18.1874 Cl      1  UNL1       -0.0822
     31 C          -3.2079  -19.1035   19.2299 C.ar    1  UNL1        0.0261
@<TRIPOS>BOND
     1     7     8    2
     2     8     9   am
     3     9    11    1
     4    11    12    1
     5    12    13    1
     6    13    14    1
     7    14    15    1
     8    15    16    1
     9    16    17    1
    10     8     1    1
    11     1     2   ar
    12     2     3   ar
    13     3     4   ar
    14     4    22    1
    15    22    24    1
    16    24    25   ar
    17    25    26   ar
    18    26    27    1
    19    26    28   ar
    20    28    29   ar
    21    29    30    1
    22    29    31   ar
    23     4     5   ar
    24     5     6   ar
    25     6    18    1
    26    18    19    1
    27    18    20    1
    28    18    21    1
    29    17    12    1
    30     6     1   ar
    31    31    24   ar
    32     9    10    1
    33    22    23    1
@<TRIPOS>MOLECULE
*****
 31 33 0 0 0
SMALL
GASTEIGER

@<TRIPOS>ATOM
      1 C          -9.0678  -19.4982   21.0735 C.ar    1  UNL1        0.0942
      2 C          -8.5296  -19.6341   19.6800 C.ar    1  UNL1        0.1078
      3 N          -7.0789  -19.9481   19.4636 N.ar    1  UNL1       -0.2119
      4 C          -6.1664  -20.1263   20.6408 C.ar    1  UNL1        0.2206
      5 N          -6.7046  -19.9903   22.0343 N.ar    1  UNL1       -0.2094
      6 C          -8.1554  -19.6763   22.2506 C.ar    1  UNL1        0.1613
      7 O         -11.5409  -20.2798   21.2242 O.2     1  UNL1       -0.2700
      8 C         -10.5185  -19.1842   21.2899 C.2     1  UNL1        0.2488
      9 N         -10.9468  -17.7745   21.5719 N.am    1  UNL1       -0.3008
     10 H         -10.2758  -17.0555   21.6150 H       1  UNL1        0.1497
     11 C         -12.3975  -17.4605   21.7883 C.3     1  UNL1        0.0898
     12 C         -13.0807  -17.9023   23.0485 C.3     1  UNL1        0.0246
     13 C         -14.5776  -17.9809   23.1022 C.3     1  UNL1        0.0338
     14 C         -15.2607  -18.4226   24.3624 C.3     1  UNL1        0.1422
     15 O         -14.4469  -18.7858   25.5690 O.3     1  UNL1       -0.3538
     16 C         -12.9499  -18.7073   25.5153 C.3     1  UNL1        0.1422
     17 C         -12.2668  -18.2655   24.2551 C.3     1  UNL1        0.0338
     18 C          -8.6936  -19.5404   23.6441 C.3     1  UNL1        0.4351
     19 F          -9.2318  -19.4045   25.0376 F       1  UNL1       -0.1644
     20 F          -8.4796  -18.0570   23.5821 F       1  UNL1       -0.1644
     21 F          -8.9077  -21.0237   23.7061 F       1  UNL1       -0.1644
     22 N          -4.7157  -20.4403   20.4244 N.pl3   1  UNL1       -0.2825
     23 H          -4.4171  -21.3770   20.3732 H       1  UNL1        0.1551
     24 C          -3.7199  -19.3271   20.2861 C.ar    1  UNL1        0.0521
     25 C          -3.0404  -19.0878   18.9704 C.ar    1  UNL1        0.0261
     26 C          -2.0446  -17.9746   18.8321 C.ar    1  UNL1        0.0597
     27 CL         -1.3651  -17.7353   17.5163 Cl      1  UNL1       -0.0822
     28 C          -1.7282  -17.1007   20.0094 C.ar    1  UNL1        0.0229
     29 C          -2.4077  -17.3400   21.3250 C.ar    1  UNL1        0.0597
     30 CL         -2.0913  -16.4660   22.5025 Cl      1  UNL1       -0.0822
     31 C          -3.4035  -18.4532   21.4634 C.ar    1  UNL1        0.0261
@<TRIPOS>BOND
     1     7     8    2
     2     8     9   am
     3     9    11    1
     4    11    12    1
     5    12    13    1
     6    13    14    1
     7    14    15    1
     8    15    16    1
     9    16    17    1
    10     8     1    1
    11     1     2   ar
    12     2     3   ar
    13     3     4   ar
    14     4    22    1
    15    22    24    1
    16    24    25   ar
    17    25    26   ar
    18    26    27    1
    19    26    28   ar
    20    28    29   ar
    21    29    30    1
    22    29    31   ar
    23     4     5   ar
    24     5     6   ar
    25     6    18    1
    26    18    19    1
    27    18    20    1
    28    18    21    1
    29    17    12    1
    30     6     1   ar
    31    31    24   ar
    32     9    10    1
    33    22    23    1
@<TRIPOS>MOLECULE
*****
 31 33 0 0 0
SMALL
GASTEIGER

@<TRIPOS>ATOM
      1 C           4.8744   -2.0759   20.8303 C.ar    1  UNL1        0.0942
      2 C           5.4560   -1.2822   21.9624 C.ar    1  UNL1        0.1078
      3 N           6.4990   -1.8946   22.8495 N.ar    1  UNL1       -0.2119
      4 C           6.9603   -3.3008   22.6046 C.ar    1  UNL1        0.2206
      5 N           6.3787   -4.0945   21.4725 N.ar    1  UNL1       -0.2094
      6 C           5.3356   -3.4820   20.5853 C.ar    1  UNL1        0.1613
      7 O           2.3788   -1.5908   20.2948 O.2     1  UNL1       -0.2700
      8 C           3.8314   -1.4635   19.9431 C.2     1  UNL1        0.2488
      9 N           4.2410   -0.7237   18.7041 N.am    1  UNL1       -0.3008
     10 H           5.1944   -0.6401   18.4732 H       1  UNL1        0.1497
     11 C           3.1980   -0.1113   17.8169 C.3     1  UNL1        0.0898
     12 C           2.5150    1.1591   18.2287 C.3     1  UNL1        0.0246
     13 C           3.3197    2.4053   18.4509 C.3     1  UNL1        0.0338
     14 C           2.6366    3.6756   18.8627 C.3     1  UNL1        0.1422
     15 O           1.1489    3.6998   19.0523 O.3     1  UNL1       -0.3538
     16 C           0.3442    2.4536   18.8302 C.3     1  UNL1        0.1422
     17 C           1.0272    1.1832   18.4184 C.3     1  UNL1        0.0338
     18 C           4.7540   -4.2757   19.4532 C.3     1  UNL1        0.4351
     19 F           4.1723   -5.0694   18.3211 F       1  UNL1       -0.1644
     20 F           3.7657   -4.8960   20.3959 F       1  UNL1       -0.1644
     21 F           5.7422   -3.6554   18.5106 F       1  UNL1       -0.1644
     22 N           8.0033   -3.9132   23.4918 N.pl3   1  UNL1       -0.2825
     23 H           8.9509   -3.8906   23.2257 H       1  UNL1        0.1551
     24 C           7.6026   -4.5599   24.7845 C.ar    1  UNL1        0.0521
     25 C           7.1172   -3.7168   25.9262 C.ar    1  UNL1        0.0261
     26 C           6.7165   -4.3636   27.2189 C.ar    1  UNL1        0.0597
     27 CL          6.2312   -3.5203   28.3606 Cl      1  UNL1       -0.0822
     28 C           6.8011   -5.8535   27.3699 C.ar    1  UNL1        0.0229
     29 C           7.2864   -6.6967   26.2282 C.ar    1  UNL1        0.0597
     30 CL          7.3710   -8.1867   26.3792 Cl      1  UNL1       -0.0822
     31 C           7.6871   -6.0499   24.9355 C.ar    1  UNL1        0.0261
@<TRIPOS>BOND
     1     7     8    2
     2     8     9   am
     3     9    11    1
     4    11    12    1
     5    12    13    1
     6    13    14    1
     7    14    15    1
     8    15    16    1
     9    16    17    1
    10     8     1    1
    11     1     2   ar
    12     2     3   ar
    13     3     4   ar
    14     4    22    1
    15    22    24    1
    16    24    25   ar
    17    25    26   ar
    18    26    27    1
    19    26    28   ar
    20    28    29   ar
    21    29    30    1
    22    29    31   ar
    23     4     5   ar
    24     5     6   ar
    25     6    18    1
    26    18    19    1
    27    18    20    1
    28    18    21    1
    29    17    12    1
    30     6     1   ar
    31    31    24   ar
    32     9    10    1
    33    22    23    1
@<TRIPOS>MOLECULE
*****
 31 33 0 0 0
SMALL
GASTEIGER

@<TRIPOS>ATOM
      1 C           0.2121    2.3014   28.5925 C.ar    1  UNL1        0.0942
      2 C           0.9118    3.4747   29.2120 C.ar    1  UNL1        0.1078
      3 N           1.2612    3.4550   30.6706 N.ar    1  UNL1       -0.2119
      4 C           0.9107    2.2621   31.5098 C.ar    1  UNL1        0.2206
      5 N           0.2110    1.0888   30.8903 N.ar    1  UNL1       -0.2094
      6 C          -0.1384    1.1085   29.4316 C.ar    1  UNL1        0.1613
      7 O           0.7613    1.6492   26.1384 O.2     1  UNL1       -0.2700
      8 C          -0.1373    2.3211   27.1340 C.2     1  UNL1        0.2488
      9 N          -1.3852    3.0126   26.6709 N.am    1  UNL1       -0.3008
     10 H          -1.9750    3.4536   27.3243 H       1  UNL1        0.1497
     11 C          -1.7346    3.0323   25.2123 C.3     1  UNL1        0.0898
     12 C          -3.0927    3.4929   24.7724 C.3     1  UNL1        0.0246
     13 C          -4.1296    3.8539   25.7944 C.3     1  UNL1        0.0338
     14 C          -5.4876    4.3146   25.3546 C.3     1  UNL1        0.1422
     15 O          -5.8088    4.4141   23.8927 O.3     1  UNL1       -0.3538
     16 C          -4.7719    4.0531   22.8708 C.3     1  UNL1        0.1422
     17 C          -3.4139    3.5925   23.3106 C.3     1  UNL1        0.0338
     18 C          -0.8382   -0.0647   28.8121 C.3     1  UNL1        0.4351
     19 F          -1.5379   -1.2380   28.1926 F       1  UNL1       -0.1644
     20 F           0.4885   -0.6909   28.4994 F       1  UNL1       -0.1644
     21 F          -2.1648    0.5614   29.1249 F       1  UNL1       -0.1644
     22 N           1.2601    2.2424   32.9684 N.pl3   1  UNL1       -0.2825
     23 H           0.6531    2.6536   33.6255 H       1  UNL1        0.1551
     24 C           2.5342    1.5964   33.4258 C.ar    1  UNL1        0.0521
     25 C           3.1307    1.9694   34.7506 C.ar    1  UNL1        0.0261
     26 C           4.4048    1.3233   35.2080 C.ar    1  UNL1        0.0597
     27 CL          5.0013    1.6964   36.5328 Cl      1  UNL1       -0.0822
     28 C           5.0824    0.3042   34.3407 C.ar    1  UNL1        0.0229
     29 C           4.4859   -0.0688   33.0160 C.ar    1  UNL1        0.0597
     30 CL          5.1635   -1.0879   32.1486 Cl      1  UNL1       -0.0822
     31 C           3.2118    0.5773   32.5585 C.ar    1  UNL1        0.0261
@<TRIPOS>BOND
     1     7     8    2
     2     8     9   am
     3     9    11    1
     4    11    12    1
     5    12    13    1
     6    13    14    1
     7    14    15    1
     8    15    16    1
     9    16    17    1
    10     8     1    1
    11     1     2   ar
    12     2     3   ar
    13     3     4   ar
    14     4    22    1
    15    22    24    1
    16    24    25   ar
    17    25    26   ar
    18    26    27    1
    19    26    28   ar
    20    28    29   ar
    21    29    30    1
    22    29    31   ar
    23     4     5   ar
    24     5     6   ar
    25     6    18    1
    26    18    19    1
    27    18    20    1
    28    18    21    1
    29    17    12    1
    30     6     1   ar
    31    31    24   ar
    32     9    10    1
    33    22    23    1
@<TRIPOS>MOLECULE
*****
 31 33 0 0 0
SMALL
GASTEIGER

@<TRIPOS>ATOM
      1 C          -6.2405  -16.7808   23.5615 C.ar    1  UNL1        0.0942
      2 C          -6.9237  -17.8315   22.7374 C.ar    1  UNL1        0.1078
      3 N          -8.2384  -18.3984   23.1850 N.ar    1  UNL1       -0.2119
      4 C          -8.8698  -17.9146   24.4567 C.ar    1  UNL1        0.2206
      5 N          -8.1866  -16.8639   25.2808 N.ar    1  UNL1       -0.2094
      6 C          -6.8719  -16.2970   24.8332 C.ar    1  UNL1        0.1613
      7 O          -4.7448  -14.7282   23.0144 O.2     1  UNL1       -0.2700
      8 C          -4.9259  -16.2139   23.1140 C.2     1  UNL1        0.2488
      9 N          -3.7924  -17.1326   22.7660 N.am    1  UNL1       -0.3008
     10 H          -3.9113  -18.1077   22.8314 H       1  UNL1        0.1497
     11 C          -2.4778  -16.5657   22.3184 C.3     1  UNL1        0.0898
     12 C          -1.8375  -17.0625   21.0562 C.3     1  UNL1        0.0246
     13 C          -0.3437  -17.1601   20.9610 C.3     1  UNL1        0.0338
     14 C           0.2965  -17.6569   19.6988 C.3     1  UNL1        0.1422
     15 O          -0.5570  -18.0562   18.5317 O.3     1  UNL1       -0.3538
     16 C          -2.0508  -17.9586   18.6269 C.3     1  UNL1        0.1422
     17 C          -2.6910  -17.4617   19.8891 C.3     1  UNL1        0.0338
     18 C          -6.1887  -15.2462   25.6573 C.3     1  UNL1        0.4351
     19 F          -5.5055  -14.1955   26.4815 F       1  UNL1       -0.1644
     20 F          -7.0238  -14.1877   25.0000 F       1  UNL1       -0.1644
     21 F          -5.3537  -16.3048   26.3147 F       1  UNL1       -0.1644
     22 N         -10.1844  -18.4816   24.9043 N.pl3   1  UNL1       -0.2825
     23 H         -10.2271  -19.0532   25.7047 H       1  UNL1        0.1551
     24 C         -11.4341  -18.1776   24.1323 C.ar    1  UNL1        0.0521
     25 C         -11.3438  -17.5142   22.7901 C.ar    1  UNL1        0.0261
     26 C         -12.5935  -17.2102   22.0181 C.ar    1  UNL1        0.0597
     27 CL        -12.5032  -16.5468   20.6758 Cl      1  UNL1       -0.0822
     28 C         -13.9335  -17.5695   22.5885 C.ar    1  UNL1        0.0229
     29 C         -14.0237  -18.2329   23.9308 C.ar    1  UNL1        0.0597
     30 CL        -15.3638  -18.5922   24.5012 Cl      1  UNL1       -0.0822
     31 C         -12.7741  -18.5369   24.7027 C.ar    1  UNL1        0.0261
@<TRIPOS>BOND
     1     7     8    2
     2     8     9   am
     3     9    11    1
     4    11    12    1
     5    12    13    1
     6    13    14    1
     7    14    15    1
     8    15    16    1
     9    16    17    1
    10     8     1    1
    11     1     2   ar
    12     2     3   ar
    13     3     4   ar
    14     4    22    1
    15    22    24    1
    16    24    25   ar
    17    25    26   ar
    18    26    27    1
    19    26    28   ar
    20    28    29   ar
    21    29    30    1
    22    29    31   ar
    23     4     5   ar
    24     5     6   ar
    25     6    18    1
    26    18    19    1
    27    18    20    1
    28    18    21    1
    29    17    12    1
    30     6     1   ar
    31    31    24   ar
    32     9    10    1
    33    22    23    1
