@<TRIPOS>MOLECULE
*****
 36 40 0 0 0
SMALL
GASTEIGER

@<TRIPOS>ATOM
      1 C          -2.6919  -18.0551   23.2939 C.3     1  UNL1        0.0731
      2 N          -3.8855  -17.3967   23.9200 N.3     1  UNL1       -0.2712
      3 C          -3.9504  -16.8216   25.3038 C.3     1  UNL1        0.0738
      4 C          -5.3287  -16.2673   25.5112 C.3     1  UNL1        0.0372
      5 C          -6.2207  -15.5693   26.4946 C.3     1  UNL1        0.0245
      6 C          -7.5589  -15.3703   25.8467 C.3     1  UNL1        0.0909
      7 N          -7.4939  -15.9454   24.4628 N.pl3   1  UNL1       -0.3077
      8 C          -6.1156  -16.4997   24.2555 C.3     1  UNL1        0.0901
      9 C          -5.2236  -17.1977   23.2720 C.3     1  UNL1        0.0921
     10 C          -8.6111  -15.9630   23.4620 C.ar    1  UNL1        0.0478
     11 C          -8.3425  -15.5999   22.0317 C.ar    1  UNL1        0.0145
     12 C          -9.4597  -15.6175   21.0309 C.ar    1  UNL1        0.0051
     13 C         -10.8455  -15.9983   21.4604 C.ar    1  UNL1        0.0715
     14 C         -11.1141  -16.3614   22.8909 C.ar    1  UNL1        0.0051
     15 C          -9.9969  -16.3438   23.8916 C.ar    1  UNL1        0.0145
     16 C         -11.9627  -16.0159   20.4596 C.3     1  UNL1        0.4186
     17 F         -13.0798  -16.0335   19.4589 F       1  UNL1       -0.1659
     18 F         -11.1027  -15.2653   19.4865 F       1  UNL1       -0.1659
     19 F         -12.8226  -16.7665   21.4328 F       1  UNL1       -0.1659
     20 C          -2.6023  -18.1827   21.8021 C.3     1  UNL1        0.0294
     21 C          -2.3608  -19.5248   21.1772 C.3     1  UNL1        0.0666
     22 S          -3.4705  -20.2239   20.4494 S.3     1  UNL1       -0.0756
     23 C          -5.9100  -21.3843   22.2803 C.3     1  UNL1        0.1340
     24 N          -5.9876  -20.2110   21.3490 N.ar    1  UNL1       -0.2884
     25 C          -4.8663  -19.6776   20.5074 C.ar    1  UNL1        0.1932
     26 N          -5.3858  -18.5020   19.7340 N.ar    1  UNL1       -0.1221
     27 N          -6.8282  -18.3088   20.0976 N.ar    1  UNL1       -0.1282
     28 C          -7.2002  -19.3650   21.0957 C.ar    1  UNL1        0.1670
     29 C          -8.5480  -19.5439   21.7292 C.ar    1  UNL1        0.0422
     30 C          -9.7853  -19.5119   20.8818 C.ar    1  UNL1        0.0217
     31 C         -11.1331  -19.6907   21.5153 C.ar    1  UNL1        0.0748
     32 N         -11.2436  -19.9015   22.9964 N.ar    1  UNL1       -0.3199
     33 C         -10.0063  -19.9335   23.8438 C.ar    1  UNL1        0.2578
     34 O         -10.1169  -20.1443   25.3248 O.2     1  UNL1       -0.2672
     35 C          -8.6585  -19.7546   23.2102 C.ar    1  UNL1        0.0636
     36 H         -12.1282  -20.0189   23.4122 H       1  UNL1        0.1690
@<TRIPOS>BOND
     1    23    24    1
     2    24    25   ar
     3    25    22    1
     4    22    21    1
     5    21    20    1
     6    20     1    1
     7     1     2    1
     8     2     3    1
     9     3     4    1
    10     4     5    1
    11     5     6    1
    12     6     7    1
    13     7    10    1
    14    10    11   ar
    15    11    12   ar
    16    12    13   ar
    17    13    16    1
    18    16    17    1
    19    16    18    1
    20    16    19    1
    21    13    14   ar
    22    14    15   ar
    23     7     8    1
    24     8     9    1
    25    25    26   ar
    26    26    27   ar
    27    27    28   ar
    28    28    29    1
    29    29    30   ar
    30    30    31   ar
    31    31    32   ar
    32    32    33   ar
    33    33    34    2
    34    33    35   ar
    35    28    24   ar
    36    35    29   ar
    37     9     2    1
    38     8     4    1
    39    15    10   ar
    40    32    36    1
@<TRIPOS>MOLECULE
*****
 36 40 0 0 0
SMALL
GASTEIGER

@<TRIPOS>ATOM
      1 C          -2.7785  -18.6962   18.8040 C.3     1  UNL1        0.0731
      2 N          -3.9122  -19.1526   19.6739 N.3     1  UNL1       -0.2712
      3 C          -3.8542  -20.2515   20.6932 C.3     1  UNL1        0.0738
      4 C          -5.2090  -20.3683   21.3264 C.3     1  UNL1        0.0372
      5 C          -6.0105  -21.1196   22.3477 C.3     1  UNL1        0.0245
      6 C          -7.4011  -20.5572   22.3509 C.3     1  UNL1        0.0909
      7 N          -7.4590  -19.4583   21.3316 N.pl3   1  UNL1       -0.3077
      8 C          -6.1042  -19.3415   20.6984 C.3     1  UNL1        0.0901
      9 C          -5.3027  -18.5902   19.6771 C.3     1  UNL1        0.0921
     10 C          -8.6607  -18.6228   21.0031 C.ar    1  UNL1        0.0478
     11 C          -9.6284  -19.0811   19.9527 C.ar    1  UNL1        0.0145
     12 C         -10.8301  -18.2456   19.6242 C.ar    1  UNL1        0.0051
     13 C         -11.0641  -16.9518   20.3462 C.ar    1  UNL1        0.0715
     14 C         -10.0964  -16.4935   21.3967 C.ar    1  UNL1        0.0051
     15 C          -8.8947  -17.3289   21.7251 C.ar    1  UNL1        0.0145
     16 C         -12.2659  -16.1164   20.0177 C.3     1  UNL1        0.4186
     17 F         -13.4676  -15.2809   19.6893 F       1  UNL1       -0.1659
     18 F         -11.4595  -15.3529   19.0093 F       1  UNL1       -0.1659
     19 F         -13.0723  -16.8798   21.0261 F       1  UNL1       -0.1659
     20 C          -2.0588  -17.4184   19.1191 C.3     1  UNL1        0.0294
     21 C          -1.1633  -17.3384   20.3199 C.3     1  UNL1        0.0666
     22 S          -1.7249  -17.5712   21.6911 S.3     1  UNL1       -0.0756
     23 C          -3.8784  -18.2486   24.0476 C.3     1  UNL1        0.1340
     24 N          -3.7304  -16.9345   23.3396 N.ar    1  UNL1       -0.2884
     25 C          -2.7406  -16.6231   22.2564 C.ar    1  UNL1        0.1932
     26 N          -2.9447  -15.1973   21.8378 N.ar    1  UNL1       -0.1221
     27 N          -4.0607  -14.6274   22.6622 N.ar    1  UNL1       -0.1282
     28 C          -4.5464  -15.7010   23.5904 C.ar    1  UNL1        0.1670
     29 C          -5.6535  -15.5650   24.5933 C.ar    1  UNL1        0.0422
     30 C          -5.3307  -15.3732   26.0455 C.ar    1  UNL1        0.0217
     31 C          -6.4378  -15.2372   27.0484 C.ar    1  UNL1        0.0748
     32 N          -7.8679  -15.2931   26.5989 N.ar    1  UNL1       -0.3199
     33 C          -8.1907  -15.4850   25.1467 C.ar    1  UNL1        0.2578
     34 O          -9.6207  -15.5408   24.6974 O.2     1  UNL1       -0.2672
     35 C          -7.0835  -15.6209   24.1439 C.ar    1  UNL1        0.0636
     36 H          -8.5945  -15.2039   27.2571 H       1  UNL1        0.1690
@<TRIPOS>BOND
     1    23    24    1
     2    24    25   ar
     3    25    22    1
     4    22    21    1
     5    21    20    1
     6    20     1    1
     7     1     2    1
     8     2     3    1
     9     3     4    1
    10     4     5    1
    11     5     6    1
    12     6     7    1
    13     7    10    1
    14    10    11   ar
    15    11    12   ar
    16    12    13   ar
    17    13    16    1
    18    16    17    1
    19    16    18    1
    20    16    19    1
    21    13    14   ar
    22    14    15   ar
    23     7     8    1
    24     8     9    1
    25    25    26   ar
    26    26    27   ar
    27    27    28   ar
    28    28    29    1
    29    29    30   ar
    30    30    31   ar
    31    31    32   ar
    32    32    33   ar
    33    33    34    2
    34    33    35   ar
    35    28    24   ar
    36    35    29   ar
    37     9     2    1
    38     8     4    1
    39    15    10   ar
    40    32    36    1
@<TRIPOS>MOLECULE
*****
 36 40 0 0 0
SMALL
GASTEIGER

@<TRIPOS>ATOM
      1 C          -5.8424  -15.1685   24.8434 C.3     1  UNL1        0.0731
      2 N          -5.2749  -16.3190   24.0659 N.3     1  UNL1       -0.2712
      3 C          -3.8953  -16.8887   24.2149 C.3     1  UNL1        0.0738
      4 C          -3.7552  -18.0235   23.2440 C.3     1  UNL1        0.0372
      5 C          -2.8159  -19.0769   22.7361 C.3     1  UNL1        0.0245
      6 C          -3.5283  -19.8597   21.6731 C.3     1  UNL1        0.0909
      7 N          -4.9079  -19.2899   21.5241 N.pl3   1  UNL1       -0.3077
      8 C          -5.0481  -18.1551   22.4950 C.3     1  UNL1        0.0901
      9 C          -5.9873  -17.1016   23.0030 C.3     1  UNL1        0.0921
     10 C          -5.9622  -19.7706   20.5715 C.ar    1  UNL1        0.0478
     11 C          -5.9057  -21.1698   20.0340 C.ar    1  UNL1        0.0145
     12 C          -6.9600  -21.6504   19.0814 C.ar    1  UNL1        0.0051
     13 C          -8.0708  -20.7319   18.6663 C.ar    1  UNL1        0.0715
     14 C          -8.1273  -19.3326   19.2038 C.ar    1  UNL1        0.0051
     15 C          -7.0730  -18.8519   20.1564 C.ar    1  UNL1        0.0145
     16 C          -9.1251  -21.2125   17.7137 C.3     1  UNL1        0.4186
     17 F         -10.1793  -21.6932   16.7611 F       1  UNL1       -0.1659
     18 F          -8.1976  -22.2874   17.2296 F       1  UNL1       -0.1659
     19 F         -10.0525  -20.1376   18.1978 F       1  UNL1       -0.1659
     20 C          -5.6175  -15.0802   26.3238 C.3     1  UNL1        0.0294
     21 C          -6.5916  -15.7175   27.2698 C.3     1  UNL1        0.0666
     22 S          -8.0656  -15.6112   27.0129 S.3     1  UNL1       -0.0756
     23 C          -9.1093  -15.3608   23.9311 C.3     1  UNL1        0.1340
     24 N          -9.2493  -16.5651   24.8143 N.ar    1  UNL1       -0.2884
     25 C          -8.7696  -16.6802   26.2309 C.ar    1  UNL1        0.1932
     26 N          -9.1174  -18.0520   26.7281 N.ar    1  UNL1       -0.1221
     27 N          -9.8121  -18.7847   25.6188 N.ar    1  UNL1       -0.1282
     28 C          -9.8937  -17.8658   24.4360 C.ar    1  UNL1        0.1670
     29 C         -10.5112  -18.1906   23.1081 C.ar    1  UNL1        0.0422
     30 C         -10.4149  -19.5821   22.5565 C.ar    1  UNL1        0.0217
     31 C         -11.0324  -19.9069   21.2286 C.ar    1  UNL1        0.0748
     32 N         -11.7461  -18.8399   20.4524 N.ar    1  UNL1       -0.3199
     33 C         -11.8423  -17.4484   21.0040 C.ar    1  UNL1        0.2578
     34 O         -12.5560  -16.3816   20.2278 O.2     1  UNL1       -0.2672
     35 C         -11.2248  -17.1237   22.3319 C.ar    1  UNL1        0.0636
     36 H         -12.1514  -19.0530   19.5808 H       1  UNL1        0.1690
@<TRIPOS>BOND
     1    23    24    1
     2    24    25   ar
     3    25    22    1
     4    22    21    1
     5    21    20    1
     6    20     1    1
     7     1     2    1
     8     2     3    1
     9     3     4    1
    10     4     5    1
    11     5     6    1
    12     6     7    1
    13     7    10    1
    14    10    11   ar
    15    11    12   ar
    16    12    13   ar
    17    13    16    1
    18    16    17    1
    19    16    18    1
    20    16    19    1
    21    13    14   ar
    22    14    15   ar
    23     7     8    1
    24     8     9    1
    25    25    26   ar
    26    26    27   ar
    27    27    28   ar
    28    28    29    1
    29    29    30   ar
    30    30    31   ar
    31    31    32   ar
    32    32    33   ar
    33    33    34    2
    34    33    35   ar
    35    28    24   ar
    36    35    29   ar
    37     9     2    1
    38     8     4    1
    39    15    10   ar
    40    32    36    1
@<TRIPOS>MOLECULE
*****
 36 40 0 0 0
SMALL
GASTEIGER

@<TRIPOS>ATOM
      1 C          -2.8904  -17.4449   18.6334 C.3     1  UNL1        0.0731
      2 N          -3.8464  -18.4377   19.2254 N.3     1  UNL1       -0.2712
      3 C          -3.6060  -19.9104   19.3779 C.3     1  UNL1        0.0738
      4 C          -4.8217  -20.5149   20.0155 C.3     1  UNL1        0.0372
      5 C          -5.4245  -21.7987   20.5039 C.3     1  UNL1        0.0245
      6 C          -6.7888  -21.4931   21.0473 C.3     1  UNL1        0.0909
      7 N          -7.0292  -20.0203   20.8947 N.pl3   1  UNL1       -0.3077
      8 C          -5.8135  -19.4158   20.2571 C.3     1  UNL1        0.0901
      9 C          -5.2107  -18.1320   19.7687 C.3     1  UNL1        0.0921
     10 C          -8.2679  -19.2818   21.3073 C.ar    1  UNL1        0.0478
     11 C          -8.5029  -18.9608   22.7536 C.ar    1  UNL1        0.0145
     12 C          -9.7416  -18.2222   23.1662 C.ar    1  UNL1        0.0051
     13 C         -10.7452  -17.8047   22.1326 C.ar    1  UNL1        0.0715
     14 C         -10.5102  -18.1257   20.6863 C.ar    1  UNL1        0.0051
     15 C          -9.2715  -18.8642   20.2736 C.ar    1  UNL1        0.0145
     16 C         -11.9839  -17.0662   22.5452 C.3     1  UNL1        0.4186
     17 F         -13.2225  -16.3276   22.9579 F       1  UNL1       -0.1659
     18 F         -11.1437  -16.0776   23.2980 F       1  UNL1       -0.1659
     19 F         -12.8241  -18.0548   21.7925 F       1  UNL1       -0.1659
     20 C          -1.5276  -17.2659   19.2341 C.3     1  UNL1        0.0294
     21 C          -1.0053  -18.2676   20.2209 C.3     1  UNL1        0.0666
     22 S          -1.4688  -18.2276   21.6469 S.3     1  UNL1       -0.0756
     23 C          -4.1191  -18.6527   23.5029 C.3     1  UNL1        0.1340
     24 N          -3.6283  -17.3464   22.9527 N.ar    1  UNL1       -0.2884
     25 C          -2.4101  -17.1510   22.0996 C.ar    1  UNL1        0.1932
     26 N          -2.2984  -15.6900   21.7786 N.ar    1  UNL1       -0.1221
     27 N          -3.4476  -14.9825   22.4334 N.ar    1  UNL1       -0.1282
     28 C          -4.2696  -16.0061   23.1590 C.ar    1  UNL1        0.1670
     29 C          -5.5142  -15.7368   23.9517 C.ar    1  UNL1        0.0422
     30 C          -6.8322  -15.5888   23.2512 C.ar    1  UNL1        0.0217
     31 C          -8.0769  -15.3195   24.0439 C.ar    1  UNL1        0.0748
     32 N          -8.0033  -15.1982   25.5372 N.ar    1  UNL1       -0.3199
     33 C          -6.6853  -15.3463   26.2378 C.ar    1  UNL1        0.2578
     34 O          -6.6118  -15.2250   27.7311 O.2     1  UNL1       -0.2672
     35 C          -5.4407  -15.6156   25.4450 C.ar    1  UNL1        0.0636
     36 H          -8.8202  -15.0215   26.0575 H       1  UNL1        0.1690
@<TRIPOS>BOND
     1    23    24    1
     2    24    25   ar
     3    25    22    1
     4    22    21    1
     5    21    20    1
     6    20     1    1
     7     1     2    1
     8     2     3    1
     9     3     4    1
    10     4     5    1
    11     5     6    1
    12     6     7    1
    13     7    10    1
    14    10    11   ar
    15    11    12   ar
    16    12    13   ar
    17    13    16    1
    18    16    17    1
    19    16    18    1
    20    16    19    1
    21    13    14   ar
    22    14    15   ar
    23     7     8    1
    24     8     9    1
    25    25    26   ar
    26    26    27   ar
    27    27    28   ar
    28    28    29    1
    29    29    30   ar
    30    30    31   ar
    31    31    32   ar
    32    32    33   ar
    33    33    34    2
    34    33    35   ar
    35    28    24   ar
    36    35    29   ar
    37     9     2    1
    38     8     4    1
    39    15    10   ar
    40    32    36    1
@<TRIPOS>MOLECULE
*****
 36 40 0 0 0
SMALL
GASTEIGER

@<TRIPOS>ATOM
      1 C           6.1064   -2.3188   26.2147 C.3     1  UNL1        0.0731
      2 N           6.3037   -2.9866   27.5432 N.3     1  UNL1       -0.2712
      3 C           6.7931   -4.3876   27.7618 C.3     1  UNL1        0.0738
      4 C           6.8381   -4.6375   29.2402 C.3     1  UNL1        0.0372
      5 C           7.1684   -5.6578   30.2889 C.3     1  UNL1        0.0245
      6 C           6.9110   -5.0418   31.6322 C.3     1  UNL1        0.0909
      7 N           6.4217   -3.6408   31.4136 N.pl3   1  UNL1       -0.3077
      8 C           6.3766   -3.3909   29.9353 C.3     1  UNL1        0.0901
      9 C           6.0463   -2.3706   28.8865 C.3     1  UNL1        0.0921
     10 C           6.0437   -2.6616   32.4852 C.ar    1  UNL1        0.0478
     11 C           7.0252   -1.6165   32.9263 C.ar    1  UNL1        0.0145
     12 C           6.6473   -0.6373   33.9979 C.ar    1  UNL1        0.0051
     13 C           5.2879   -0.7032   34.6285 C.ar    1  UNL1        0.0715
     14 C           4.3063   -1.7483   34.1874 C.ar    1  UNL1        0.0051
     15 C           4.6843   -2.7275   33.1158 C.ar    1  UNL1        0.0145
     16 C           4.9100    0.2760   35.7001 C.3     1  UNL1        0.4186
     17 F           4.5320    1.2552   36.7717 F       1  UNL1       -0.1659
     18 F           3.9830    0.9654   34.7432 F       1  UNL1       -0.1659
     19 F           5.8369   -0.4134   36.6569 F       1  UNL1       -0.1659
     20 C           6.8665   -2.7986   25.0138 C.3     1  UNL1        0.0294
     21 C           6.2777   -3.8548   24.1262 C.3     1  UNL1        0.0666
     22 S           6.5914   -3.8621   22.6594 S.3     1  UNL1       -0.0756
     23 C           5.2374   -0.9472   22.0940 C.3     1  UNL1        0.1340
     24 N           4.8890   -2.2307   21.4003 N.ar    1  UNL1       -0.2884
     25 C           5.5114   -3.5705   21.6601 C.ar    1  UNL1        0.1932
     26 N           4.8641   -4.5676   20.7453 N.ar    1  UNL1       -0.1221
     27 N           3.8417   -3.8440   19.9200 N.ar    1  UNL1       -0.1282
     28 C           3.8571   -2.3997   20.3247 C.ar    1  UNL1        0.1670
     29 C           2.9923   -1.3149   19.7542 C.ar    1  UNL1        0.0422
     30 C           3.3969   -0.6218   18.4870 C.ar    1  UNL1        0.0217
     31 C           2.5322    0.4630   17.9165 C.ar    1  UNL1        0.0748
     32 N           1.2628    0.8546   18.6133 N.ar    1  UNL1       -0.3199
     33 C           0.8582    0.1615   19.8805 C.ar    1  UNL1        0.2578
     34 O          -0.4111    0.5531   20.5772 O.2     1  UNL1       -0.2672
     35 C           1.7230   -0.9233   20.4510 C.ar    1  UNL1        0.0636
     36 H           0.6953    1.5666   18.2388 H       1  UNL1        0.1690
@<TRIPOS>BOND
     1    23    24    1
     2    24    25   ar
     3    25    22    1
     4    22    21    1
     5    21    20    1
     6    20     1    1
     7     1     2    1
     8     2     3    1
     9     3     4    1
    10     4     5    1
    11     5     6    1
    12     6     7    1
    13     7    10    1
    14    10    11   ar
    15    11    12   ar
    16    12    13   ar
    17    13    16    1
    18    16    17    1
    19    16    18    1
    20    16    19    1
    21    13    14   ar
    22    14    15   ar
    23     7     8    1
    24     8     9    1
    25    25    26   ar
    26    26    27   ar
    27    27    28   ar
    28    28    29    1
    29    29    30   ar
    30    30    31   ar
    31    31    32   ar
    32    32    33   ar
    33    33    34    2
    34    33    35   ar
    35    28    24   ar
    36    35    29   ar
    37     9     2    1
    38     8     4    1
    39    15    10   ar
    40    32    36    1
@<TRIPOS>MOLECULE
*****
 36 40 0 0 0
SMALL
GASTEIGER

@<TRIPOS>ATOM
      1 C           5.1307   -1.5065   28.1557 C.3     1  UNL1        0.0731
      2 N           4.0522   -0.7461   27.4426 N.3     1  UNL1       -0.2712
      3 C           2.9740    0.0712   28.0903 C.3     1  UNL1        0.0738
      4 C           2.1180    0.6529   27.0046 C.3     1  UNL1        0.0372
      5 C           0.9225    1.5175   26.7338 C.3     1  UNL1        0.0245
      6 C           0.7328    1.5941   25.2478 C.3     1  UNL1        0.0909
      7 N           1.8110    0.7767   24.6002 N.pl3   1  UNL1       -0.3077
      8 C           2.6671    0.1951   25.6859 C.3     1  UNL1        0.0901
      9 C           3.8625   -0.6696   25.9566 C.3     1  UNL1        0.0921
     10 C           2.0000    0.5763   23.1257 C.ar    1  UNL1        0.0478
     11 C           2.8115   -0.5812   22.6240 C.ar    1  UNL1        0.0145
     12 C           3.0004   -0.7816   21.1495 C.ar    1  UNL1        0.0051
     13 C           2.3779    0.1754   20.1767 C.ar    1  UNL1        0.0715
     14 C           1.5663    1.3329   20.6783 C.ar    1  UNL1        0.0051
     15 C           1.3774    1.5334   22.1528 C.ar    1  UNL1        0.0145
     16 C           2.5668   -0.0251   18.7022 C.3     1  UNL1        0.4186
     17 F           2.7558   -0.2255   17.2277 F       1  UNL1       -0.1659
     18 F           1.1144    0.2731   18.4755 F       1  UNL1       -0.1659
     19 F           4.0193   -0.3233   18.9289 F       1  UNL1       -0.1659
     20 C           5.8176   -2.6521   27.4731 C.3     1  UNL1        0.0294
     21 C           7.2487   -2.5202   27.0435 C.3     1  UNL1        0.0666
     22 S           7.5753   -2.0459   25.6584 S.3     1  UNL1       -0.0756
     23 C           6.3158   -0.9149   22.8685 C.3     1  UNL1        0.1340
     24 N           6.6019   -2.3523   23.1879 N.ar    1  UNL1       -0.2884
     25 C           7.1809   -2.8722   24.4703 C.ar    1  UNL1        0.1932
     26 N           7.2961   -4.3634   24.3560 N.ar    1  UNL1       -0.1221
     27 N           6.7884   -4.7652   23.0029 N.ar    1  UNL1       -0.1282
     28 C           6.3593   -3.5223   22.2809 C.ar    1  UNL1        0.1670
     29 C           5.7880   -3.4602   20.8954 C.ar    1  UNL1        0.0422
     30 C           4.4117   -3.9929   20.6271 C.ar    1  UNL1        0.0217
     31 C           3.8404   -3.9308   19.2415 C.ar    1  UNL1        0.0748
     32 N           4.6456   -3.3361   18.1243 N.ar    1  UNL1       -0.3199
     33 C           6.0219   -2.8035   18.3926 C.ar    1  UNL1        0.2578
     34 O           6.8269   -2.2089   17.2753 O.2     1  UNL1       -0.2672
     35 C           6.5931   -2.8656   19.7782 C.ar    1  UNL1        0.0636
     36 H           4.2706   -3.2954   17.2149 H       1  UNL1        0.1690
@<TRIPOS>BOND
     1    23    24    1
     2    24    25   ar
     3    25    22    1
     4    22    21    1
     5    21    20    1
     6    20     1    1
     7     1     2    1
     8     2     3    1
     9     3     4    1
    10     4     5    1
    11     5     6    1
    12     6     7    1
    13     7    10    1
    14    10    11   ar
    15    11    12   ar
    16    12    13   ar
    17    13    16    1
    18    16    17    1
    19    16    18    1
    20    16    19    1
    21    13    14   ar
    22    14    15   ar
    23     7     8    1
    24     8     9    1
    25    25    26   ar
    26    26    27   ar
    27    27    28   ar
    28    28    29    1
    29    29    30   ar
    30    30    31   ar
    31    31    32   ar
    32    32    33   ar
    33    33    34    2
    34    33    35   ar
    35    28    24   ar
    36    35    29   ar
    37     9     2    1
    38     8     4    1
    39    15    10   ar
    40    32    36    1
@<TRIPOS>MOLECULE
*****
 36 40 0 0 0
SMALL
GASTEIGER

@<TRIPOS>ATOM
      1 C          -3.9211  -14.8719   22.9330 C.3     1  UNL1        0.0731
      2 N          -4.9972  -15.2407   23.9108 N.3     1  UNL1       -0.2712
      3 C          -4.8774  -15.2128   25.4058 C.3     1  UNL1        0.0738
      4 C          -6.1882  -15.6571   25.9841 C.3     1  UNL1        0.0372
      5 C          -6.9242  -15.9144   27.2655 C.3     1  UNL1        0.0245
      6 C          -8.3090  -16.3760   26.9200 C.3     1  UNL1        0.0909
      7 N          -8.4288  -16.4040   25.4250 N.pl3   1  UNL1       -0.3077
      8 C          -7.1180  -15.9596   24.8467 C.3     1  UNL1        0.0901
      9 C          -6.3819  -15.7023   23.5653 C.3     1  UNL1        0.0921
     10 C          -9.6456  -16.8057   24.6453 C.ar    1  UNL1        0.0478
     11 C         -10.3268  -18.1097   24.9375 C.ar    1  UNL1        0.0145
     12 C         -11.5437  -18.5114   24.1578 C.ar    1  UNL1        0.0051
     13 C         -12.0793  -17.6091   23.0860 C.ar    1  UNL1        0.0715
     14 C         -11.3981  -16.3050   22.7938 C.ar    1  UNL1        0.0051
     15 C         -10.1813  -15.9033   23.5735 C.ar    1  UNL1        0.0145
     16 C         -13.2962  -18.0108   22.3063 C.3     1  UNL1        0.4186
     17 F         -14.5130  -18.4126   21.5267 F       1  UNL1       -0.1659
     18 F         -14.0199  -18.3041   23.5870 F       1  UNL1       -0.1659
     19 F         -12.5724  -17.7176   21.0256 F       1  UNL1       -0.1659
     20 C          -3.1178  -15.9459   22.2614 C.3     1  UNL1        0.0294
     21 C          -2.6362  -17.1269   23.0508 C.3     1  UNL1        0.0666
     22 S          -2.5892  -18.4849   22.4155 S.3     1  UNL1       -0.0756
     23 C          -5.8239  -18.5929   22.8332 C.3     1  UNL1        0.1340
     24 N          -5.0875  -18.9105   21.5656 N.ar    1  UNL1       -0.2884
     25 C          -3.6007  -18.8608   21.3736 C.ar    1  UNL1        0.1932
     26 N          -3.3029  -19.2531   19.9568 N.ar    1  UNL1       -0.1221
     27 N          -4.6057  -19.5452   19.2731 N.ar    1  UNL1       -0.1282
     28 C          -5.7087  -19.3334   20.2674 C.ar    1  UNL1        0.1670
     29 C          -7.1753  -19.5131   20.0089 C.ar    1  UNL1        0.0422
     30 C          -8.1805  -18.9601   20.9752 C.ar    1  UNL1        0.0217
     31 C          -9.6471  -19.1398   20.7167 C.ar    1  UNL1        0.0748
     32 N         -10.1084  -19.8725   19.4917 N.ar    1  UNL1       -0.3199
     33 C          -9.1032  -20.4255   18.5254 C.ar    1  UNL1        0.2578
     34 O          -9.5647  -21.1582   17.3006 O.2     1  UNL1       -0.2672
     35 C          -7.6366  -20.2458   18.7840 C.ar    1  UNL1        0.0636
     36 H         -11.0710  -19.9905   19.3220 H       1  UNL1        0.1690
@<TRIPOS>BOND
     1    23    24    1
     2    24    25   ar
     3    25    22    1
     4    22    21    1
     5    21    20    1
     6    20     1    1
     7     1     2    1
     8     2     3    1
     9     3     4    1
    10     4     5    1
    11     5     6    1
    12     6     7    1
    13     7    10    1
    14    10    11   ar
    15    11    12   ar
    16    12    13   ar
    17    13    16    1
    18    16    17    1
    19    16    18    1
    20    16    19    1
    21    13    14   ar
    22    14    15   ar
    23     7     8    1
    24     8     9    1
    25    25    26   ar
    26    26    27   ar
    27    27    28   ar
    28    28    29    1
    29    29    30   ar
    30    30    31   ar
    31    31    32   ar
    32    32    33   ar
    33    33    34    2
    34    33    35   ar
    35    28    24   ar
    36    35    29   ar
    37     9     2    1
    38     8     4    1
    39    15    10   ar
    40    32    36    1
@<TRIPOS>MOLECULE
*****
 36 40 0 0 0
SMALL
GASTEIGER

@<TRIPOS>ATOM
      1 C          -0.9936    4.1796   16.7284 C.3     1  UNL1        0.0731
      2 N          -2.3418    4.0409   17.3713 N.3     1  UNL1       -0.2712
      3 C          -3.6492    3.8847   16.6528 C.3     1  UNL1        0.0738
      4 C          -4.7346    3.7813   17.6830 C.3     1  UNL1        0.0372
      5 C          -6.2135    3.6209   17.8757 C.3     1  UNL1        0.0245
      6 C          -6.4910    3.6141   19.3498 C.3     1  UNL1        0.0909
      7 N          -5.1834    3.7704   20.0682 N.pl3   1  UNL1       -0.3077
      8 C          -4.0980    3.8737   19.0381 C.3     1  UNL1        0.0901
      9 C          -2.6191    4.0341   18.8454 C.3     1  UNL1        0.0921
     10 C          -4.9945    3.8153   21.5556 C.ar    1  UNL1        0.0478
     11 C          -6.1644    4.0939   22.4521 C.ar    1  UNL1        0.0145
     12 C          -5.9755    4.1388   23.9395 C.ar    1  UNL1        0.0051
     13 C          -4.6167    3.9053   24.5303 C.ar    1  UNL1        0.0715
     14 C          -3.4468    3.6268   23.6338 C.ar    1  UNL1        0.0051
     15 C          -3.6357    3.5818   22.1464 C.ar    1  UNL1        0.0145
     16 C          -4.4278    3.9503   26.0177 C.3     1  UNL1        0.4186
     17 F          -4.2389    3.9953   27.5051 F       1  UNL1       -0.1659
     18 F          -3.1001    3.2682   25.8697 F       1  UNL1       -0.1659
     19 F          -5.7556    4.6324   26.1657 F       1  UNL1       -0.1659
     20 C          -0.0372    5.2296   17.2107 C.3     1  UNL1        0.0294
     21 C           1.3725    4.8559   17.5619 C.3     1  UNL1        0.0666
     22 S           1.6501    4.0571   18.8008 S.3     1  UNL1       -0.0756
     23 C           4.2984    2.1924   19.2000 C.3     1  UNL1        0.1340
     24 N           2.9093    1.7021   18.9171 N.ar    1  UNL1       -0.2884
     25 C           1.6921    2.5592   18.7335 C.ar    1  UNL1        0.1932
     26 N           0.5240    1.6554   18.4710 N.ar    1  UNL1       -0.1221
     27 N           1.0194    0.2397   18.4922 N.ar    1  UNL1       -0.1282
     28 C           2.4936    0.2685   18.7679 C.ar    1  UNL1        0.1670
     29 C           3.3940   -0.9264   18.8756 C.ar    1  UNL1        0.0422
     30 C           3.0563   -2.0368   19.8258 C.ar    1  UNL1        0.0217
     31 C           3.9567   -3.2317   19.9334 C.ar    1  UNL1        0.0748
     32 N           5.1948   -3.3160   19.0908 N.ar    1  UNL1       -0.3199
     33 C           5.5325   -2.2056   18.1406 C.ar    1  UNL1        0.2578
     34 O           6.7706   -2.2901   17.2980 O.2     1  UNL1       -0.2672
     35 C           4.6321   -1.0108   18.0330 C.ar    1  UNL1        0.0636
     36 H           5.7858   -4.1003   19.1614 H       1  UNL1        0.1690
@<TRIPOS>BOND
     1    23    24    1
     2    24    25   ar
     3    25    22    1
     4    22    21    1
     5    21    20    1
     6    20     1    1
     7     1     2    1
     8     2     3    1
     9     3     4    1
    10     4     5    1
    11     5     6    1
    12     6     7    1
    13     7    10    1
    14    10    11   ar
    15    11    12   ar
    16    12    13   ar
    17    13    16    1
    18    16    17    1
    19    16    18    1
    20    16    19    1
    21    13    14   ar
    22    14    15   ar
    23     7     8    1
    24     8     9    1
    25    25    26   ar
    26    26    27   ar
    27    27    28   ar
    28    28    29    1
    29    29    30   ar
    30    30    31   ar
    31    31    32   ar
    32    32    33   ar
    33    33    34    2
    34    33    35   ar
    35    28    24   ar
    36    35    29   ar
    37     9     2    1
    38     8     4    1
    39    15    10   ar
    40    32    36    1
@<TRIPOS>MOLECULE
*****
 36 40 0 0 0
SMALL
GASTEIGER

@<TRIPOS>ATOM
      1 C          -1.6271    3.6278   18.4396 C.3     1  UNL1        0.0731
      2 N          -0.1460    3.3908   18.4494 N.3     1  UNL1       -0.2712
      3 C           0.9164    4.4474   18.3781 C.3     1  UNL1        0.0738
      4 C           2.2517    3.7652   18.4168 C.3     1  UNL1        0.0372
      5 C           3.7336    3.9965   18.3967 C.3     1  UNL1        0.0245
      6 C           4.4125    2.6614   18.4794 C.3     1  UNL1        0.0909
      7 N           3.3499    1.6049   18.5506 N.pl3   1  UNL1       -0.3077
      8 C           2.0146    2.2871   18.5119 C.3     1  UNL1        0.0901
      9 C           0.5327    2.0557   18.5321 C.3     1  UNL1        0.0921
     10 C           3.5821    0.1259   18.6441 C.ar    1  UNL1        0.0478
     11 C           2.8229   -0.6905   19.6476 C.ar    1  UNL1        0.0145
     12 C           3.0551   -2.1694   19.7411 C.ar    1  UNL1        0.0051
     13 C           4.0464   -2.8320   18.8311 C.ar    1  UNL1        0.0715
     14 C           4.8057   -2.0156   17.8275 C.ar    1  UNL1        0.0051
     15 C           4.5735   -0.5366   17.7340 C.ar    1  UNL1        0.0145
     16 C           4.2786   -4.3110   18.9246 C.3     1  UNL1        0.4186
     17 F           4.5108   -5.7900   19.0181 F       1  UNL1       -0.1659
     18 F           2.7992   -4.5478   18.8525 F       1  UNL1       -0.1659
     19 F           5.7580   -4.0742   18.9967 F       1  UNL1       -0.1659
     20 C          -2.3342    4.0081   19.7067 C.3     1  UNL1        0.0294
     21 C          -2.0327    3.2782   20.9820 C.3     1  UNL1        0.0666
     22 S          -1.1191    3.8933   22.0002 S.3     1  UNL1       -0.0756
     23 C          -1.5266    4.3320   25.2082 C.3     1  UNL1        0.1340
     24 N          -0.7166    3.2470   24.5625 N.ar    1  UNL1       -0.2884
     25 C          -0.5293    3.0454   23.0880 C.ar    1  UNL1        0.1932
     26 N           0.3512    1.8469   22.8921 N.ar    1  UNL1       -0.1221
     27 N           0.7082    1.3079   24.2457 N.ar    1  UNL1       -0.1282
     28 C           0.0482    2.1732   25.2781 C.ar    1  UNL1        0.1670
     29 C           0.1374    1.9958   26.7649 C.ar    1  UNL1        0.0422
     30 C           1.1002    2.8244   27.5626 C.ar    1  UNL1        0.0217
     31 C           1.1894    2.6470   29.0494 C.ar    1  UNL1        0.0748
     32 N           0.3158    1.6409   29.7384 N.ar    1  UNL1       -0.3199
     33 C          -0.6470    0.8123   28.9406 C.ar    1  UNL1        0.2578
     34 O          -1.5206   -0.1938   29.6297 O.2     1  UNL1       -0.2672
     35 C          -0.7362    0.9897   27.4538 C.ar    1  UNL1        0.0636
     36 H           0.3743    1.5244   30.7142 H       1  UNL1        0.1690
@<TRIPOS>BOND
     1    23    24    1
     2    24    25   ar
     3    25    22    1
     4    22    21    1
     5    21    20    1
     6    20     1    1
     7     1     2    1
     8     2     3    1
     9     3     4    1
    10     4     5    1
    11     5     6    1
    12     6     7    1
    13     7    10    1
    14    10    11   ar
    15    11    12   ar
    16    12    13   ar
    17    13    16    1
    18    16    17    1
    19    16    18    1
    20    16    19    1
    21    13    14   ar
    22    14    15   ar
    23     7     8    1
    24     8     9    1
    25    25    26   ar
    26    26    27   ar
    27    27    28   ar
    28    28    29    1
    29    29    30   ar
    30    30    31   ar
    31    31    32   ar
    32    32    33   ar
    33    33    34    2
    34    33    35   ar
    35    28    24   ar
    36    35    29   ar
    37     9     2    1
    38     8     4    1
    39    15    10   ar
    40    32    36    1
