@<TRIPOS>MOLECULE
*****
 30 33 0 0 0
SMALL
GASTEIGER

@<TRIPOS>ATOM
      1 C          -1.2021    2.6800   25.9026 C.3     1  UNL1        0.0719
      2 C          -0.3019    2.3119   24.7605 C.ar    1  UNL1        0.1229
      3 N           0.6769    1.1852   24.9100 N.ar    1  UNL1       -0.2322
      4 C           1.5771    0.8171   23.7679 C.ar    1  UNL1        0.0874
      5 C           2.5558   -0.3096   23.9174 C.ar    1  UNL1        0.0224
      6 C           3.4560   -0.6776   22.7753 C.ar    1  UNL1        0.0390
      7 C           3.3774    0.0812   21.4838 C.ar    1  UNL1        0.1455
      8 C           2.3986    1.2080   21.3343 C.ar    1  UNL1        0.0437
      9 C           1.4985    1.5760   22.4764 C.ar    1  UNL1        0.0769
     10 C           0.5197    2.7028   22.3269 C.ar    1  UNL1        0.2632
     11 O           0.4411    3.4616   21.0354 O.2     1  UNL1       -0.2669
     12 N          -0.3805    3.0708   23.4690 N.ar    1  UNL1       -0.2840
     13 O           4.2776   -0.2868   20.3417 O.3     1  UNL1       -0.4535
     14 C           4.4311   -1.7240   19.9408 C.ar    1  UNL1        0.1454
     15 C           5.7805   -2.3770   19.9922 C.ar    1  UNL1        0.0398
     16 C           5.9340   -3.8143   19.5912 C.ar    1  UNL1        0.0328
     17 C           4.7381   -4.5985   19.1389 C.ar    1  UNL1        0.1403
     18 F           4.8916   -6.0357   18.7379 F       1  UNL1       -0.2042
     19 C           3.3887   -3.9456   19.0875 C.ar    1  UNL1        0.0328
     20 C           3.2351   -2.5084   19.4884 C.ar    1  UNL1        0.0398
     21 C          -1.3593    4.1976   23.3195 C.3     1  UNL1        0.1115
     22 C          -2.7475    3.9240   22.8216 C.3     1  UNL1        0.0388
     23 C          -3.8572    3.6668   23.7976 C.3     1  UNL1        0.0048
     24 C          -5.2455    3.3932   23.2997 C.3     1  UNL1        0.0174
     25 C          -5.5241    3.3769   21.8259 C.3     1  UNL1        0.0720
     26 N          -4.4144    3.6341   20.8500 N.3     1  UNL1       -0.2739
     27 C          -3.0261    3.9077   21.3479 C.3     1  UNL1        0.0739
     28 C          -4.6930    3.6178   19.3762 C.3     1  UNL1        0.0576
     29 C          -6.0554    3.2407   18.8746 C.3     1  UNL1        0.0173
     30 C          -3.6091    3.9785   18.4039 C.3     1  UNL1        0.0173
@<TRIPOS>BOND
     1     1     2    1
     2     2     3   ar
     3     3     4   ar
     4     4     5   ar
     5     5     6   ar
     6     6     7   ar
     7     7    13    1
     8    13    14    1
     9    14    15   ar
    10    15    16   ar
    11    16    17   ar
    12    17    18    1
    13    17    19   ar
    14    19    20   ar
    15     7     8   ar
    16     8     9   ar
    17     9    10   ar
    18    10    11    2
    19    10    12   ar
    20    12    21    1
    21    22    21    1
    22    22    23    1
    23    23    24    1
    24    24    25    1
    25    25    26    1
    26    26    28    1
    27    28    29    1
    28    28    30    1
    29    26    27    1
    30    12     2   ar
    31    27    22    1
    32     9     4   ar
    33    20    14   ar
@<TRIPOS>MOLECULE
*****
 30 33 0 0 0
SMALL
GASTEIGER

@<TRIPOS>ATOM
      1 C           6.3648    2.1157   33.3955 C.3     1  UNL1        0.0719
      2 C           6.4072    0.6624   33.0261 C.ar    1  UNL1        0.1229
      3 N           7.6687    0.0647   32.4771 N.ar    1  UNL1       -0.2322
      4 C           7.7111   -1.3885   32.1076 C.ar    1  UNL1        0.0874
      5 C           8.9725   -1.9863   31.5586 C.ar    1  UNL1        0.0224
      6 C           9.0149   -3.4394   31.1892 C.ar    1  UNL1        0.0390
      7 C           7.7959   -4.2948   31.3688 C.ar    1  UNL1        0.1455
      8 C           6.5345   -3.6971   31.9178 C.ar    1  UNL1        0.0437
      9 C           6.4921   -2.2439   32.2872 C.ar    1  UNL1        0.0769
     10 C           5.2306   -1.6461   32.8362 C.ar    1  UNL1        0.2632
     11 O           4.0116   -2.5015   33.0158 O.2     1  UNL1       -0.2669
     12 N           5.1882   -0.1930   33.2056 N.ar    1  UNL1       -0.2840
     13 O           7.8383   -5.7481   30.9994 O.3     1  UNL1       -0.4535
     14 C           7.7345   -6.1595   29.5607 C.ar    1  UNL1        0.1454
     15 C           8.6444   -7.2206   29.0165 C.ar    1  UNL1        0.0398
     16 C           8.5406   -7.6320   27.5777 C.ar    1  UNL1        0.0328
     17 C           7.5268   -6.9824   26.6832 C.ar    1  UNL1        0.1403
     18 F           7.4230   -7.3938   25.2445 F       1  UNL1       -0.2042
     19 C           6.6169   -5.9213   27.2273 C.ar    1  UNL1        0.0328
     20 C           6.7208   -5.5098   28.6660 C.ar    1  UNL1        0.0398
     21 C           3.9267    0.4049   33.7547 C.3     1  UNL1        0.1115
     22 C           2.8758    0.9271   32.8204 C.3     1  UNL1        0.0388
     23 C           2.1059    2.1649   33.1743 C.3     1  UNL1        0.0048
     24 C           1.0549    2.6872   32.2400 C.3     1  UNL1        0.0174
     25 C           0.7740    1.9717   30.9519 C.3     1  UNL1        0.0720
     26 N           1.5439    0.7340   30.5981 N.3     1  UNL1       -0.2739
     27 C           2.5948    0.2117   31.5324 C.3     1  UNL1        0.0739
     28 C           1.2629    0.0185   29.3100 C.3     1  UNL1        0.0576
     29 C          -0.1504   -0.1414   28.8338 C.3     1  UNL1        0.0173
     30 C           2.3954   -0.5370   28.4982 C.3     1  UNL1        0.0173
@<TRIPOS>BOND
     1     1     2    1
     2     2     3   ar
     3     3     4   ar
     4     4     5   ar
     5     5     6   ar
     6     6     7   ar
     7     7    13    1
     8    13    14    1
     9    14    15   ar
    10    15    16   ar
    11    16    17   ar
    12    17    18    1
    13    17    19   ar
    14    19    20   ar
    15     7     8   ar
    16     8     9   ar
    17     9    10   ar
    18    10    11    2
    19    10    12   ar
    20    12    21    1
    21    22    21    1
    22    22    23    1
    23    23    24    1
    24    24    25    1
    25    25    26    1
    26    26    28    1
    27    28    29    1
    28    28    30    1
    29    26    27    1
    30    12     2   ar
    31    27    22    1
    32     9     4   ar
    33    20    14   ar
@<TRIPOS>MOLECULE
*****
 30 33 0 0 0
SMALL
GASTEIGER

@<TRIPOS>ATOM
      1 C           4.3777   -0.2764   17.5290 C.3     1  UNL1        0.0719
      2 C           5.0982   -1.2685   18.3931 C.ar    1  UNL1        0.1229
      3 N           6.5941   -1.3644   18.3376 N.ar    1  UNL1       -0.2322
      4 C           7.3146   -2.3566   19.2017 C.ar    1  UNL1        0.0874
      5 C           8.8105   -2.4525   19.1461 C.ar    1  UNL1        0.0224
      6 C           9.5310   -3.4446   20.0102 C.ar    1  UNL1        0.0390
      7 C           8.7556   -4.3407   20.9298 C.ar    1  UNL1        0.1455
      8 C           7.2597   -4.2448   20.9853 C.ar    1  UNL1        0.0437
      9 C           6.5392   -3.2527   20.1213 C.ar    1  UNL1        0.0769
     10 C           5.0433   -3.1567   20.1768 C.ar    1  UNL1        0.2632
     11 O           4.2679   -4.0529   21.0964 O.2     1  UNL1       -0.2669
     12 N           4.3228   -2.1646   19.3127 N.ar    1  UNL1       -0.2840
     13 O           9.4761   -5.3328   21.7939 O.3     1  UNL1       -0.4535
     14 C           8.8850   -5.7523   23.1071 C.ar    1  UNL1        0.1454
     15 C           8.4129   -4.7152   24.0826 C.ar    1  UNL1        0.0398
     16 C           7.8217   -5.1348   25.3958 C.ar    1  UNL1        0.0328
     17 C           7.7028   -6.5914   25.7336 C.ar    1  UNL1        0.1403
     18 F           7.1117   -7.0109   27.0468 F       1  UNL1       -0.2042
     19 C           8.1750   -7.6285   24.7582 C.ar    1  UNL1        0.0328
     20 C           8.7661   -7.2090   23.4450 C.ar    1  UNL1        0.0398
     21 C           2.8269   -2.0687   19.3682 C.3     1  UNL1        0.1115
     22 C           2.1729   -1.0596   20.2648 C.3     1  UNL1        0.0388
     23 C           1.0708   -0.1896   19.7367 C.3     1  UNL1        0.0048
     24 C           0.4168    0.8195   20.6333 C.3     1  UNL1        0.0174
     25 C           0.8648    0.9587   22.0581 C.3     1  UNL1        0.0720
     26 N           1.9668    0.0888   22.5862 N.3     1  UNL1       -0.2739
     27 C           2.6208   -0.9203   21.6896 C.3     1  UNL1        0.0739
     28 C           2.4147    0.2280   24.0109 C.3     1  UNL1        0.0576
     29 C           1.6403    1.0945   24.9594 C.3     1  UNL1        0.0173
     30 C           3.6371   -0.4992   24.4873 C.3     1  UNL1        0.0173
@<TRIPOS>BOND
     1     1     2    1
     2     2     3   ar
     3     3     4   ar
     4     4     5   ar
     5     5     6   ar
     6     6     7   ar
     7     7    13    1
     8    13    14    1
     9    14    15   ar
    10    15    16   ar
    11    16    17   ar
    12    17    18    1
    13    17    19   ar
    14    19    20   ar
    15     7     8   ar
    16     8     9   ar
    17     9    10   ar
    18    10    11    2
    19    10    12   ar
    20    12    21    1
    21    22    21    1
    22    22    23    1
    23    23    24    1
    24    24    25    1
    25    25    26    1
    26    26    28    1
    27    28    29    1
    28    28    30    1
    29    26    27    1
    30    12     2   ar
    31    27    22    1
    32     9     4   ar
    33    20    14   ar
@<TRIPOS>MOLECULE
*****
 30 33 0 0 0
SMALL
GASTEIGER

@<TRIPOS>ATOM
      1 C           6.6552   -2.0077   27.5883 C.3     1  UNL1        0.0719
      2 C           5.9360   -1.8914   26.2771 C.ar    1  UNL1        0.1229
      3 N           6.1447   -2.9274   25.2127 N.ar    1  UNL1       -0.2322
      4 C           5.4255   -2.8110   23.9014 C.ar    1  UNL1        0.0874
      5 C           5.6342   -3.8470   22.8370 C.ar    1  UNL1        0.0224
      6 C           4.9150   -3.7306   21.5258 C.ar    1  UNL1        0.0390
      7 C           3.9871   -2.5782   21.2791 C.ar    1  UNL1        0.1455
      8 C           3.7784   -1.5421   22.3435 C.ar    1  UNL1        0.0437
      9 C           4.4976   -1.6586   23.6547 C.ar    1  UNL1        0.0769
     10 C           4.2889   -0.6225   24.7192 C.ar    1  UNL1        0.2632
     11 O           3.3609    0.5299   24.4725 O.2     1  UNL1       -0.2669
     12 N           5.0080   -0.7389   26.0304 N.ar    1  UNL1       -0.2840
     13 O           3.2679   -2.4618   19.9679 O.3     1  UNL1       -0.4535
     14 C           2.6141   -1.1677   19.5833 C.ar    1  UNL1        0.1454
     15 C           3.3141   -0.2208   18.6542 C.ar    1  UNL1        0.0398
     16 C           2.6602    1.0733   18.2696 C.ar    1  UNL1        0.0328
     17 C           1.3064    1.4205   18.8143 C.ar    1  UNL1        0.1403
     18 F           0.6526    2.7145   18.4298 F       1  UNL1       -0.2042
     19 C           0.6064    0.4735   19.7435 C.ar    1  UNL1        0.0328
     20 C           1.2602   -0.8205   20.1280 C.ar    1  UNL1        0.0398
     21 C           4.7993    0.2971   27.0949 C.3     1  UNL1        0.1115
     22 C           3.7001    0.1274   28.1013 C.3     1  UNL1        0.0388
     23 C           4.0289   -0.2594   29.5129 C.3     1  UNL1        0.0048
     24 C           2.9297   -0.4291   30.5193 C.3     1  UNL1        0.0174
     25 C           1.5018   -0.2120   30.1143 C.3     1  UNL1        0.0720
     26 N           1.1731    0.1749   28.7028 N.3     1  UNL1       -0.2739
     27 C           2.2723    0.3446   27.6963 C.3     1  UNL1        0.0739
     28 C          -0.2547    0.3920   28.2978 C.3     1  UNL1        0.0576
     29 C          -0.6112    1.5285   27.3860 C.3     1  UNL1        0.0173
     30 C          -1.3262   -0.5273   28.8046 C.3     1  UNL1        0.0173
@<TRIPOS>BOND
     1     1     2    1
     2     2     3   ar
     3     3     4   ar
     4     4     5   ar
     5     5     6   ar
     6     6     7   ar
     7     7    13    1
     8    13    14    1
     9    14    15   ar
    10    15    16   ar
    11    16    17   ar
    12    17    18    1
    13    17    19   ar
    14    19    20   ar
    15     7     8   ar
    16     8     9   ar
    17     9    10   ar
    18    10    11    2
    19    10    12   ar
    20    12    21    1
    21    22    21    1
    22    22    23    1
    23    23    24    1
    24    24    25    1
    25    25    26    1
    26    26    28    1
    27    28    29    1
    28    28    30    1
    29    26    27    1
    30    12     2   ar
    31    27    22    1
    32     9     4   ar
    33    20    14   ar
@<TRIPOS>MOLECULE
*****
 30 33 0 0 0
SMALL
GASTEIGER

@<TRIPOS>ATOM
      1 C           6.0594    1.0559   17.8555 C.3     1  UNL1        0.0719
      2 C           6.2809   -0.2651   18.5309 C.ar    1  UNL1        0.1229
      3 N           7.5920   -0.5551   19.1993 N.ar    1  UNL1       -0.2322
      4 C           7.8135   -1.8761   19.8747 C.ar    1  UNL1        0.0874
      5 C           9.1246   -2.1661   20.5432 C.ar    1  UNL1        0.0224
      6 C           9.3461   -3.4870   21.2185 C.ar    1  UNL1        0.0390
      7 C           8.2565   -4.5179   21.2254 C.ar    1  UNL1        0.1455
      8 C           6.9454   -4.2279   20.5569 C.ar    1  UNL1        0.0437
      9 C           6.7239   -2.9070   19.8816 C.ar    1  UNL1        0.0769
     10 C           5.4128   -2.6169   19.2131 C.ar    1  UNL1        0.2632
     11 O           4.3232   -3.6478   19.2199 O.2     1  UNL1       -0.2669
     12 N           5.1913   -1.2960   18.5377 N.ar    1  UNL1       -0.2840
     13 O           8.4780   -5.8389   21.9007 O.3     1  UNL1       -0.4535
     14 C           8.1017   -6.0169   23.3418 C.ar    1  UNL1        0.1454
     15 C           7.4596   -4.8892   24.0941 C.ar    1  UNL1        0.0398
     16 C           7.0833   -5.0672   25.5352 C.ar    1  UNL1        0.0328
     17 C           7.3490   -6.3730   26.2239 C.ar    1  UNL1        0.1403
     18 F           6.9727   -6.5510   27.6650 F       1  UNL1       -0.2042
     19 C           7.9910   -7.5007   25.4716 C.ar    1  UNL1        0.0328
     20 C           8.3674   -7.3227   24.0306 C.ar    1  UNL1        0.0398
     21 C           3.8802   -1.0059   17.8692 C.3     1  UNL1        0.1115
     22 C           2.7822   -0.3278   18.6339 C.3     1  UNL1        0.0388
     23 C           2.1162   -1.0358   19.7765 C.3     1  UNL1        0.0048
     24 C           1.0182   -0.3577   20.5412 C.3     1  UNL1        0.0174
     25 C           0.5864    1.0282   20.1634 C.3     1  UNL1        0.0720
     26 N           1.2524    1.7361   19.0209 N.3     1  UNL1       -0.2739
     27 C           2.3504    1.0581   18.2562 C.3     1  UNL1        0.0739
     28 C           0.8206    3.1220   18.6432 C.3     1  UNL1        0.0576
     29 C           1.8340    4.1193   18.1653 C.3     1  UNL1        0.0173
     30 C          -0.6248    3.5107   18.7434 C.3     1  UNL1        0.0173
@<TRIPOS>BOND
     1     1     2    1
     2     2     3   ar
     3     3     4   ar
     4     4     5   ar
     5     5     6   ar
     6     6     7   ar
     7     7    13    1
     8    13    14    1
     9    14    15   ar
    10    15    16   ar
    11    16    17   ar
    12    17    18    1
    13    17    19   ar
    14    19    20   ar
    15     7     8   ar
    16     8     9   ar
    17     9    10   ar
    18    10    11    2
    19    10    12   ar
    20    12    21    1
    21    22    21    1
    22    22    23    1
    23    23    24    1
    24    24    25    1
    25    25    26    1
    26    26    28    1
    27    28    29    1
    28    28    30    1
    29    26    27    1
    30    12     2   ar
    31    27    22    1
    32     9     4   ar
    33    20    14   ar
@<TRIPOS>MOLECULE
*****
 30 33 0 0 0
SMALL
GASTEIGER

@<TRIPOS>ATOM
      1 C           9.0238   -5.3832   20.5913 C.3     1  UNL1        0.0719
      2 C           8.4018   -5.2584   21.9506 C.ar    1  UNL1        0.1229
      3 N           8.6796   -6.2931   23.0004 N.ar    1  UNL1       -0.2322
      4 C           8.0576   -6.1683   24.3597 C.ar    1  UNL1        0.0874
      5 C           8.3353   -7.2030   25.4095 C.ar    1  UNL1        0.0224
      6 C           7.7134   -7.0781   26.7687 C.ar    1  UNL1        0.0390
      7 C           6.8137   -5.9185   27.0781 C.ar    1  UNL1        0.1455
      8 C           6.5359   -4.8838   26.0283 C.ar    1  UNL1        0.0437
      9 C           7.1579   -5.0086   24.6691 C.ar    1  UNL1        0.0769
     10 C           6.8802   -3.9739   23.6193 C.ar    1  UNL1        0.2632
     11 O           5.9804   -2.8142   23.9287 O.2     1  UNL1       -0.2669
     12 N           7.5021   -4.0987   22.2600 N.ar    1  UNL1       -0.2840
     13 O           6.1917   -5.7936   28.4374 O.3     1  UNL1       -0.4535
     14 C           6.9257   -5.0831   29.5357 C.ar    1  UNL1        0.1454
     15 C           8.0430   -5.7737   30.2601 C.ar    1  UNL1        0.0398
     16 C           8.7771   -5.0631   31.3584 C.ar    1  UNL1        0.0328
     17 C           8.3938   -3.6619   31.7323 C.ar    1  UNL1        0.1403
     18 F           9.1279   -2.9514   32.8306 F       1  UNL1       -0.2042
     19 C           7.2766   -2.9713   31.0079 C.ar    1  UNL1        0.0328
     20 C           6.5425   -3.6819   29.9096 C.ar    1  UNL1        0.0398
     21 C           7.2244   -3.0640   21.2102 C.3     1  UNL1        0.1115
     22 C           5.9266   -3.0879   20.4583 C.3     1  UNL1        0.0388
     23 C           5.5036   -4.3302   19.7317 C.3     1  UNL1        0.0048
     24 C           4.2059   -4.3541   18.9799 C.3     1  UNL1        0.0174
     25 C           3.3311   -3.1358   18.9547 C.3     1  UNL1        0.0720
     26 N           3.7542   -1.8936   19.6813 N.3     1  UNL1       -0.2739
     27 C           5.0519   -1.8697   20.4331 C.3     1  UNL1        0.0739
     28 C           2.8794   -0.6753   19.6560 C.3     1  UNL1        0.0576
     29 C           1.8566   -0.4640   20.7327 C.3     1  UNL1        0.0173
     30 C           3.0275    0.3316   18.5541 C.3     1  UNL1        0.0173
@<TRIPOS>BOND
     1     1     2    1
     2     2     3   ar
     3     3     4   ar
     4     4     5   ar
     5     5     6   ar
     6     6     7   ar
     7     7    13    1
     8    13    14    1
     9    14    15   ar
    10    15    16   ar
    11    16    17   ar
    12    17    18    1
    13    17    19   ar
    14    19    20   ar
    15     7     8   ar
    16     8     9   ar
    17     9    10   ar
    18    10    11    2
    19    10    12   ar
    20    12    21    1
    21    22    21    1
    22    22    23    1
    23    23    24    1
    24    24    25    1
    25    25    26    1
    26    26    28    1
    27    28    29    1
    28    28    30    1
    29    26    27    1
    30    12     2   ar
    31    27    22    1
    32     9     4   ar
    33    20    14   ar
@<TRIPOS>MOLECULE
*****
 30 33 0 0 0
SMALL
GASTEIGER

@<TRIPOS>ATOM
      1 C           7.8370   -3.5625   20.4590 C.3     1  UNL1        0.0719
      2 C           7.7268   -4.0097   21.8865 C.ar    1  UNL1        0.1229
      3 N           8.0689   -5.4220   22.2586 N.ar    1  UNL1       -0.2322
      4 C           7.9587   -5.8692   23.6862 C.ar    1  UNL1        0.0874
      5 C           8.3008   -7.2815   24.0582 C.ar    1  UNL1        0.0224
      6 C           8.1905   -7.7286   25.4857 C.ar    1  UNL1        0.0390
      7 C           7.7382   -6.7635   26.5412 C.ar    1  UNL1        0.1455
      8 C           7.3961   -5.3513   26.1692 C.ar    1  UNL1        0.0437
      9 C           7.5064   -4.9041   24.7416 C.ar    1  UNL1        0.0769
     10 C           7.1643   -3.4918   24.3695 C.ar    1  UNL1        0.2632
     11 O           6.7119   -2.5267   25.4250 O.2     1  UNL1       -0.2669
     12 N           7.2745   -3.0446   22.9420 N.ar    1  UNL1       -0.2840
     13 O           7.6280   -7.2108   27.9688 O.3     1  UNL1       -0.4535
     14 C           7.8855   -6.2383   29.0814 C.ar    1  UNL1        0.1454
     15 C           6.7526   -5.4431   29.6597 C.ar    1  UNL1        0.0398
     16 C           7.0102   -4.4706   30.7724 C.ar    1  UNL1        0.0328
     17 C           8.4005   -4.2933   31.3067 C.ar    1  UNL1        0.1403
     18 F           8.6580   -3.3208   32.4193 F       1  UNL1       -0.2042
     19 C           9.5333   -5.0884   30.7283 C.ar    1  UNL1        0.0328
     20 C           9.2759   -6.0609   29.6157 C.ar    1  UNL1        0.0398
     21 C           6.9324   -1.6323   22.5699 C.3     1  UNL1        0.1115
     22 C           5.6350   -1.3319   21.8797 C.3     1  UNL1        0.0388
     23 C           4.3347   -1.5885   22.5823 C.3     1  UNL1        0.0048
     24 C           3.0373   -1.2880   21.8921 C.3     1  UNL1        0.0174
     25 C           3.0401   -0.7310   20.4993 C.3     1  UNL1        0.0720
     26 N           4.3403   -0.4744   19.7968 N.3     1  UNL1       -0.2739
     27 C           5.6377   -0.7748   20.4870 C.3     1  UNL1        0.0739
     28 C           4.3430    0.0826   18.4041 C.3     1  UNL1        0.0576
     29 C           4.8921    1.4545   18.1461 C.3     1  UNL1        0.0173
     30 C           3.7967   -0.7322   17.2693 C.3     1  UNL1        0.0173
@<TRIPOS>BOND
     1     1     2    1
     2     2     3   ar
     3     3     4   ar
     4     4     5   ar
     5     5     6   ar
     6     6     7   ar
     7     7    13    1
     8    13    14    1
     9    14    15   ar
    10    15    16   ar
    11    16    17   ar
    12    17    18    1
    13    17    19   ar
    14    19    20   ar
    15     7     8   ar
    16     8     9   ar
    17     9    10   ar
    18    10    11    2
    19    10    12   ar
    20    12    21    1
    21    22    21    1
    22    22    23    1
    23    23    24    1
    24    24    25    1
    25    25    26    1
    26    26    28    1
    27    28    29    1
    28    28    30    1
    29    26    27    1
    30    12     2   ar
    31    27    22    1
    32     9     4   ar
    33    20    14   ar
@<TRIPOS>MOLECULE
*****
 30 33 0 0 0
SMALL
GASTEIGER

@<TRIPOS>ATOM
      1 C           2.8620    3.5354   18.5025 C.3     1  UNL1        0.0719
      2 C           2.1247    3.0805   19.7271 C.ar    1  UNL1        0.1229
      3 N           2.0047    3.9921   20.9122 N.ar    1  UNL1       -0.2322
      4 C           1.2674    3.5372   22.1367 C.ar    1  UNL1        0.0874
      5 C           1.1473    4.4489   23.3218 C.ar    1  UNL1        0.0224
      6 C           0.4100    3.9939   24.5463 C.ar    1  UNL1        0.0390
      7 C          -0.2072    2.6273   24.5857 C.ar    1  UNL1        0.1455
      8 C          -0.0871    1.7157   23.4006 C.ar    1  UNL1        0.0437
      9 C           0.6502    2.1707   22.1761 C.ar    1  UNL1        0.0769
     10 C           0.7703    1.2590   20.9910 C.ar    1  UNL1        0.2632
     11 O           0.1531   -0.1076   21.0304 O.2     1  UNL1       -0.2669
     12 N           1.5075    1.7140   19.7665 N.ar    1  UNL1       -0.2840
     13 O          -0.9444    2.1724   25.8103 O.3     1  UNL1       -0.4535
     14 C          -0.2234    1.4038   26.8776 C.ar    1  UNL1        0.1454
     15 C           1.2651    1.2336   26.8035 C.ar    1  UNL1        0.0398
     16 C           1.9862    0.4650   27.8709 C.ar    1  UNL1        0.0328
     17 C           1.2188   -0.1335   29.0123 C.ar    1  UNL1        0.1403
     18 F           1.9399   -0.9022   30.0796 F       1  UNL1       -0.2042
     19 C          -0.2697    0.0366   29.0864 C.ar    1  UNL1        0.0328
     20 C          -0.9908    0.8052   28.0191 C.ar    1  UNL1        0.0398
     21 C           1.6276    0.8023   18.5813 C.3     1  UNL1        0.1115
     22 C           2.7953   -0.1326   18.4696 C.3     1  UNL1        0.0388
     23 C           3.9159    0.1770   17.5217 C.3     1  UNL1        0.0048
     24 C           5.0836   -0.7580   17.4100 C.3     1  UNL1        0.0174
     25 C           5.1306   -2.0025   18.2461 C.3     1  UNL1        0.0720
     26 N           4.0099   -2.3120   19.1938 N.3     1  UNL1       -0.2739
     27 C           2.8423   -1.3771   19.3056 C.3     1  UNL1        0.0739
     28 C           4.0570   -3.5565   20.0299 C.3     1  UNL1        0.0576
     29 C           4.5696   -3.4950   21.4382 C.3     1  UNL1        0.0173
     30 C           3.5914   -4.8626   19.4576 C.3     1  UNL1        0.0173
@<TRIPOS>BOND
     1     1     2    1
     2     2     3   ar
     3     3     4   ar
     4     4     5   ar
     5     5     6   ar
     6     6     7   ar
     7     7    13    1
     8    13    14    1
     9    14    15   ar
    10    15    16   ar
    11    16    17   ar
    12    17    18    1
    13    17    19   ar
    14    19    20   ar
    15     7     8   ar
    16     8     9   ar
    17     9    10   ar
    18    10    11    2
    19    10    12   ar
    20    12    21    1
    21    22    21    1
    22    22    23    1
    23    23    24    1
    24    24    25    1
    25    25    26    1
    26    26    28    1
    27    28    29    1
    28    28    30    1
    29    26    27    1
    30    12     2   ar
    31    27    22    1
    32     9     4   ar
    33    20    14   ar
@<TRIPOS>MOLECULE
*****
 30 33 0 0 0
SMALL
GASTEIGER

@<TRIPOS>ATOM
      1 C           1.5641    5.3295   18.1348 C.3     1  UNL1        0.0719
      2 C           1.6771    3.8924   18.5497 C.ar    1  UNL1        0.1229
      3 N           2.8753    3.0865   18.1438 N.ar    1  UNL1       -0.2322
      4 C           2.9882    1.6494   18.5587 C.ar    1  UNL1        0.0874
      5 C           4.1864    0.8435   18.1528 C.ar    1  UNL1        0.0224
      6 C           4.2993   -0.5935   18.5677 C.ar    1  UNL1        0.0390
      7 C           3.2141   -1.2246   19.3886 C.ar    1  UNL1        0.1455
      8 C           2.0159   -0.4187   19.7946 C.ar    1  UNL1        0.0437
      9 C           1.9030    1.0183   19.3796 C.ar    1  UNL1        0.0769
     10 C           0.7047    1.8243   19.7856 C.ar    1  UNL1        0.2632
     11 O          -0.3806    1.1932   20.6065 O.2     1  UNL1       -0.2669
     12 N           0.5918    3.2613   19.3706 N.ar    1  UNL1       -0.2840
     13 O           3.3270   -2.6617   19.8036 O.3     1  UNL1       -0.4535
     14 C           4.4207   -3.0891   20.7368 C.ar    1  UNL1        0.1454
     15 C           4.2140   -3.0107   22.2205 C.ar    1  UNL1        0.0398
     16 C           5.3079   -3.4382   23.1537 C.ar    1  UNL1        0.0328
     17 C           6.6083   -3.9440   22.6034 C.ar    1  UNL1        0.1403
     18 F           7.7021   -4.3714   23.5366 F       1  UNL1       -0.2042
     19 C           6.8150   -4.0223   21.1197 C.ar    1  UNL1        0.0328
     20 C           5.7213   -3.5949   20.1865 C.ar    1  UNL1        0.0398
     21 C          -0.6064    4.0672   19.7765 C.3     1  UNL1        0.1115
     22 C          -1.8730    3.9826   18.9773 C.3     1  UNL1        0.0388
     23 C          -1.8144    3.9674   17.4785 C.3     1  UNL1        0.0048
     24 C          -3.0810    3.8828   16.6793 C.3     1  UNL1        0.0174
     25 C          -4.4060    3.8134   17.3790 C.3     1  UNL1        0.0720
     26 N          -4.4645    3.8286   18.8777 N.3     1  UNL1       -0.2739
     27 C          -3.1980    3.9132   19.6769 C.3     1  UNL1        0.0739
     28 C          -5.7896    3.7592   19.5773 C.3     1  UNL1        0.0576
     29 C          -5.8490    3.7881   21.0758 C.3     1  UNL1        0.0173
     30 C          -7.0553    3.6609   18.7783 C.3     1  UNL1        0.0173
@<TRIPOS>BOND
     1     1     2    1
     2     2     3   ar
     3     3     4   ar
     4     4     5   ar
     5     5     6   ar
     6     6     7   ar
     7     7    13    1
     8    13    14    1
     9    14    15   ar
    10    15    16   ar
    11    16    17   ar
    12    17    18    1
    13    17    19   ar
    14    19    20   ar
    15     7     8   ar
    16     8     9   ar
    17     9    10   ar
    18    10    11    2
    19    10    12   ar
    20    12    21    1
    21    22    21    1
    22    22    23    1
    23    23    24    1
    24    24    25    1
    25    25    26    1
    26    26    28    1
    27    28    29    1
    28    28    30    1
    29    26    27    1
    30    12     2   ar
    31    27    22    1
    32     9     4   ar
    33    20    14   ar
