@<TRIPOS>MOLECULE
*****
 30 32 0 0 0
SMALL
GASTEIGER

@<TRIPOS>ATOM
      1 N          -8.1052  -17.3580   22.5372 N.pl3   1  UNL1       -0.3034
      2 C          -4.2163  -20.1531   20.3137 C.2     1  UNL1        0.2526
      3 O          -4.0740  -21.3376   19.4044 O.2     1  UNL1       -0.2723
      4 N          -5.5804  -19.6725   20.7112 N.am    1  UNL1       -0.2758
      5 C          -6.8865  -20.2719   20.2812 C.3     1  UNL1        0.0953
      6 C          -7.9913  -19.4778   20.9129 C.3     1  UNL1        0.0430
      7 C          -7.3679  -18.3877   21.7333 C.3     1  UNL1        0.0946
      8 C          -5.8780  -18.5080   21.6087 C.3     1  UNL1        0.1131
      9 C          -2.6121  -18.1099   20.2691 C.3     1  UNL1        0.0417
     10 C          -2.9944  -19.4494   20.8253 C.3     1  UNL1        0.1869
     11 O          -2.1548  -20.0854   21.8933 O.3     1  UNL1       -0.3758
     12 H          -2.5386  -20.9416   22.1392 H       1  UNL1        0.2110
     13 C          -9.5103  -17.6247   22.9896 C.ar    1  UNL1        0.0490
     14 C          -9.7886  -18.7380   23.9555 C.ar    1  UNL1        0.0153
     15 C         -11.1937  -19.0047   24.4079 C.ar    1  UNL1        0.0124
     16 C         -12.3204  -18.1581   23.8944 C.ar    1  UNL1        0.0791
     17 C         -12.0421  -17.0448   22.9284 C.ar    1  UNL1        0.0685
     18 CL        -13.1688  -16.1982   22.4149 Cl      1  UNL1       -0.0815
     19 C         -10.6370  -16.7780   22.4760 C.ar    1  UNL1        0.0266
     20 C         -13.7254  -18.4249   24.3468 C.1     1  UNL1        0.1013
     21 N         -15.1305  -18.6916   24.7992 N.1     1  UNL1       -0.1908
     22 C          -7.4375  -16.0616   22.8887 C.3     1  UNL1        0.1186
     23 C          -7.0492  -15.7791   24.3097 C.ar    1  UNL1        0.0090
     24 C          -8.1093  -15.5362   25.3427 C.ar    1  UNL1        0.0096
     25 C          -7.7211  -15.2536   26.7638 C.ar    1  UNL1        0.0575
     26 CL         -8.7813  -15.0107   27.7968 Cl      1  UNL1       -0.0823
     27 C          -6.2727  -15.2139   27.1518 C.ar    1  UNL1        0.0122
     28 C          -5.2125  -15.4568   26.1188 C.ar    1  UNL1        0.0120
     29 C          -5.6008  -15.7394   24.6978 C.ar    1  UNL1        0.0553
     30 CL         -4.5407  -15.9823   23.6648 Cl      1  UNL1       -0.0825
@<TRIPOS>BOND
     1    10     9    1
     2    10    11    1
     3    10     2    1
     4     2     3    2
     5     2     4   am
     6     4     5    1
     7     5     6    1
     8     6     7    1
     9     7     1    1
    10     1    22    1
    11    22    23    1
    12    23    24   ar
    13    24    25   ar
    14    25    26    1
    15    25    27   ar
    16    27    28   ar
    17    28    29   ar
    18    29    30    1
    19     1    13    1
    20    13    14   ar
    21    14    15   ar
    22    15    16   ar
    23    16    20    1
    24    20    21    3
    25    16    17   ar
    26    17    18    1
    27    17    19   ar
    28     7     8    1
    29     8     4    1
    30    29    23   ar
    31    19    13   ar
    32    11    12    1
@<TRIPOS>MOLECULE
*****
 30 32 0 0 0
SMALL
GASTEIGER

@<TRIPOS>ATOM
      1 N          -7.8027  -18.9902   21.7516 N.pl3   1  UNL1       -0.3034
      2 C          -2.5510  -19.1800   21.2385 C.2     1  UNL1        0.2526
      3 O          -1.5262  -20.0553   20.5800 O.2     1  UNL1       -0.2723
      4 N          -4.0086  -19.5144   21.1230 N.am    1  UNL1       -0.2758
      5 C          -4.5889  -20.6851   20.3861 C.3     1  UNL1        0.0953
      6 C          -6.0809  -20.6311   20.5319 C.3     1  UNL1        0.0430
      7 C          -6.4225  -19.4272   21.3589 C.3     1  UNL1        0.0946
      8 C          -5.1418  -18.7371   21.7242 C.3     1  UNL1        0.1131
      9 C          -2.0332  -16.6357   21.3326 C.3     1  UNL1        0.0417
     10 C          -2.1180  -17.9701   22.0123 C.3     1  UNL1        0.1869
     11 O          -1.7698  -18.0948   23.4660 O.3     1  UNL1       -0.3758
     12 H          -1.8770  -19.0172   23.7462 H       1  UNL1        0.2110
     13 C          -7.9999  -18.1260   22.9617 C.ar    1  UNL1        0.0490
     14 C          -8.9479  -18.5540   24.0425 C.ar    1  UNL1        0.0153
     15 C          -9.1450  -17.6899   25.2526 C.ar    1  UNL1        0.0124
     16 C          -8.3943  -16.3978   25.3819 C.ar    1  UNL1        0.0791
     17 C          -7.4463  -15.9697   24.3011 C.ar    1  UNL1        0.0685
     18 CL         -6.6955  -14.6776   24.4304 Cl      1  UNL1       -0.0815
     19 C          -7.2491  -16.8339   23.0910 C.ar    1  UNL1        0.0266
     20 C          -8.5914  -15.5336   26.5921 C.1     1  UNL1        0.1013
     21 N          -8.7886  -14.6695   27.8022 N.1     1  UNL1       -0.1908
     22 C          -8.9857  -19.4173   20.9342 C.3     1  UNL1        0.1186
     23 C         -10.2270  -18.5755   20.9145 C.ar    1  UNL1        0.0090
     24 C         -10.3111  -17.3843   20.0068 C.ar    1  UNL1        0.0096
     25 C         -11.5525  -16.5425   19.9871 C.ar    1  UNL1        0.0575
     26 CL        -11.6365  -15.3513   19.0793 Cl      1  UNL1       -0.0823
     27 C         -12.7098  -16.8919   20.8751 C.ar    1  UNL1        0.0122
     28 C         -12.6257  -18.0831   21.7829 C.ar    1  UNL1        0.0120
     29 C         -11.3843  -18.9249   21.8026 C.ar    1  UNL1        0.0553
     30 CL        -11.3002  -20.1161   22.7102 Cl      1  UNL1       -0.0825
@<TRIPOS>BOND
     1    10     9    1
     2    10    11    1
     3    10     2    1
     4     2     3    2
     5     2     4   am
     6     4     5    1
     7     5     6    1
     8     6     7    1
     9     7     1    1
    10     1    22    1
    11    22    23    1
    12    23    24   ar
    13    24    25   ar
    14    25    26    1
    15    25    27   ar
    16    27    28   ar
    17    28    29   ar
    18    29    30    1
    19     1    13    1
    20    13    14   ar
    21    14    15   ar
    22    15    16   ar
    23    16    20    1
    24    20    21    3
    25    16    17   ar
    26    17    18    1
    27    17    19   ar
    28     7     8    1
    29     8     4    1
    30    29    23   ar
    31    19    13   ar
    32    11    12    1
@<TRIPOS>MOLECULE
*****
 30 32 0 0 0
SMALL
GASTEIGER

@<TRIPOS>ATOM
      1 N          -8.4078  -19.0653   22.4409 N.pl3   1  UNL1       -0.3034
      2 C          -3.3312  -18.9713   20.9919 C.2     1  UNL1        0.2526
      3 O          -2.4092  -19.7590   20.1091 O.2     1  UNL1       -0.2723
      4 N          -4.7719  -19.3696   21.1170 N.am    1  UNL1       -0.2758
      5 C          -5.4303  -20.5257   20.4241 C.3     1  UNL1        0.0953
      6 C          -6.8726  -20.5524   20.8357 C.3     1  UNL1        0.0430
      7 C          -7.1053  -19.4128   21.7830 C.3     1  UNL1        0.0946
      8 C          -5.8071  -18.6818   21.9568 C.3     1  UNL1        0.1131
      9 C          -2.5133  -17.9035   23.2147 C.3     1  UNL1        0.0417
     10 C          -2.8124  -17.7853   21.7497 C.3     1  UNL1        0.1869
     11 O          -2.5928  -16.4809   21.0423 O.3     1  UNL1       -0.3758
     12 H          -2.8334  -16.5756   20.1074 H       1  UNL1        0.2110
     13 C          -8.4313  -18.1188   23.6044 C.ar    1  UNL1        0.0490
     14 C          -9.0561  -18.5400   24.9013 C.ar    1  UNL1        0.0153
     15 C          -9.0796  -17.5935   26.0648 C.ar    1  UNL1        0.0124
     16 C          -8.4783  -16.2259   25.9313 C.ar    1  UNL1        0.0791
     17 C          -7.8535  -15.8046   24.6342 C.ar    1  UNL1        0.0685
     18 CL         -7.2522  -14.4369   24.5007 Cl      1  UNL1       -0.0815
     19 C          -7.8300  -16.7511   23.4708 C.ar    1  UNL1        0.0266
     20 C          -8.5018  -15.2794   27.0947 C.1     1  UNL1        0.1013
     21 N          -8.5253  -14.3329   28.2582 N.1     1  UNL1       -0.1908
     22 C          -9.6867  -19.6642   21.9354 C.3     1  UNL1        0.1186
     23 C         -10.9489  -18.8537   21.9428 C.ar    1  UNL1        0.0090
     24 C         -11.8452  -18.8726   23.1454 C.ar    1  UNL1        0.0096
     25 C         -13.1074  -18.0621   23.1528 C.ar    1  UNL1        0.0575
     26 CL        -14.0038  -18.0810   24.3555 Cl      1  UNL1       -0.0823
     27 C         -13.4732  -17.2327   21.9577 C.ar    1  UNL1        0.0122
     28 C         -12.5769  -17.2138   20.7551 C.ar    1  UNL1        0.0120
     29 C         -11.3147  -18.0243   20.7476 C.ar    1  UNL1        0.0553
     30 CL        -10.4184  -18.0055   19.5451 Cl      1  UNL1       -0.0825
@<TRIPOS>BOND
     1    10     9    1
     2    10    11    1
     3    10     2    1
     4     2     3    2
     5     2     4   am
     6     4     5    1
     7     5     6    1
     8     6     7    1
     9     7     1    1
    10     1    22    1
    11    22    23    1
    12    23    24   ar
    13    24    25   ar
    14    25    26    1
    15    25    27   ar
    16    27    28   ar
    17    28    29   ar
    18    29    30    1
    19     1    13    1
    20    13    14   ar
    21    14    15   ar
    22    15    16   ar
    23    16    20    1
    24    20    21    3
    25    16    17   ar
    26    17    18    1
    27    17    19   ar
    28     7     8    1
    29     8     4    1
    30    29    23   ar
    31    19    13   ar
    32    11    12    1
@<TRIPOS>MOLECULE
*****
 30 32 0 0 0
SMALL
GASTEIGER

@<TRIPOS>ATOM
      1 N          -8.3424  -16.7110   22.2905 N.pl3   1  UNL1       -0.3034
      2 C         -13.2952  -18.1597   23.4094 C.2     1  UNL1        0.2526
      3 O         -14.6296  -18.1890   22.7250 O.2     1  UNL1       -0.2723
      4 N         -12.0905  -17.6406   22.6820 N.am    1  UNL1       -0.2758
      5 C         -12.0663  -17.1204   21.2752 C.3     1  UNL1        0.0953
      6 C         -10.6592  -16.7088   20.9574 C.3     1  UNL1        0.0430
      7 C          -9.8140  -16.9747   22.1677 C.3     1  UNL1        0.0946
      8 C         -10.6985  -17.5505   23.2335 C.3     1  UNL1        0.1131
      9 C         -14.3045  -18.4783   25.7821 C.3     1  UNL1        0.0417
     10 C         -13.1655  -18.6495   24.8213 C.3     1  UNL1        0.1869
     11 O         -11.8968  -19.3105   25.2722 O.3     1  UNL1       -0.3758
     12 H         -11.2680  -19.3408   24.5342 H       1  UNL1        0.2110
     13 C          -7.3550  -17.7069   21.7583 C.ar    1  UNL1        0.0490
     14 C          -7.6558  -18.4605   20.4968 C.ar    1  UNL1        0.0153
     15 C          -6.6684  -19.4564   19.9645 C.ar    1  UNL1        0.0124
     16 C          -5.3802  -19.6986   20.6938 C.ar    1  UNL1        0.0791
     17 C          -5.0794  -18.9450   21.9554 C.ar    1  UNL1        0.0685
     18 CL         -3.7913  -19.1872   22.6847 Cl      1  UNL1       -0.0815
     19 C          -6.0668  -17.9491   22.4877 C.ar    1  UNL1        0.0266
     20 C          -4.3929  -20.6945   20.1616 C.1     1  UNL1        0.1013
     21 N          -3.4055  -21.6904   19.6294 N.1     1  UNL1       -0.1908
     22 C          -7.8583  -15.4514   22.9456 C.3     1  UNL1        0.1186
     23 C          -7.3759  -15.4821   24.3655 C.ar    1  UNL1        0.0090
     24 C          -8.3447  -15.7394   25.4814 C.ar    1  UNL1        0.0096
     25 C          -7.8622  -15.7701   26.9014 C.ar    1  UNL1        0.0575
     26 CL         -8.8311  -16.0274   28.0173 Cl      1  UNL1       -0.0823
     27 C          -6.4110  -15.5436   27.2055 C.ar    1  UNL1        0.0122
     28 C          -5.4421  -15.2863   26.0896 C.ar    1  UNL1        0.0120
     29 C          -5.9245  -15.2556   24.6696 C.ar    1  UNL1        0.0553
     30 CL         -4.9557  -14.9983   23.5537 Cl      1  UNL1       -0.0825
@<TRIPOS>BOND
     1    10     9    1
     2    10    11    1
     3    10     2    1
     4     2     3    2
     5     2     4   am
     6     4     5    1
     7     5     6    1
     8     6     7    1
     9     7     1    1
    10     1    22    1
    11    22    23    1
    12    23    24   ar
    13    24    25   ar
    14    25    26    1
    15    25    27   ar
    16    27    28   ar
    17    28    29   ar
    18    29    30    1
    19     1    13    1
    20    13    14   ar
    21    14    15   ar
    22    15    16   ar
    23    16    20    1
    24    20    21    3
    25    16    17   ar
    26    17    18    1
    27    17    19   ar
    28     7     8    1
    29     8     4    1
    30    29    23   ar
    31    19    13   ar
    32    11    12    1
@<TRIPOS>MOLECULE
*****
 30 32 0 0 0
SMALL
GASTEIGER

@<TRIPOS>ATOM
      1 N          -7.5631  -18.4952   21.9089 N.pl3   1  UNL1       -0.3034
      2 C          -7.2306  -15.5237   26.2609 C.2     1  UNL1        0.2526
      3 O          -8.1496  -14.9918   27.3204 O.2     1  UNL1       -0.2723
      4 N          -7.7773  -16.3706   25.1501 N.am    1  UNL1       -0.2758
      5 C          -9.2125  -16.7671   24.9681 C.3     1  UNL1        0.0953
      6 C          -9.3069  -17.6113   23.7318 C.3     1  UNL1        0.0430
      7 C          -7.9301  -17.7364   23.1497 C.3     1  UNL1        0.0946
      8 C          -6.9848  -16.9697   24.0263 C.3     1  UNL1        0.1131
      9 C          -4.7557  -16.3048   26.1406 C.3     1  UNL1        0.0417
     10 C          -5.7650  -15.2086   26.3123 C.3     1  UNL1        0.1869
     11 O          -5.3088  -13.7972   26.5354 O.3     1  UNL1       -0.3758
     12 H          -6.0816  -13.2181   26.6258 H       1  UNL1        0.2110
     13 C          -6.1277  -18.5878   21.4833 C.ar    1  UNL1        0.0490
     14 C          -5.7857  -19.0099   20.0852 C.ar    1  UNL1        0.0153
     15 C          -4.3503  -19.1024   19.6597 C.ar    1  UNL1        0.0124
     16 C          -3.2569  -18.7728   20.6323 C.ar    1  UNL1        0.0791
     17 C          -3.5990  -18.3506   22.0305 C.ar    1  UNL1        0.0685
     18 CL         -2.5056  -18.0210   23.0030 Cl      1  UNL1       -0.0815
     19 C          -5.0344  -18.2581   22.4560 C.ar    1  UNL1        0.0266
     20 C          -1.8215  -18.8653   20.2067 C.1     1  UNL1        0.1013
     21 N          -0.3861  -18.9579   19.7812 N.1     1  UNL1       -0.1908
     22 C          -8.6315  -19.1614   21.0936 C.3     1  UNL1        0.1186
     23 C          -9.9958  -18.5453   20.9982 C.ar    1  UNL1        0.0090
     24 C         -10.2134  -17.3341   20.1406 C.ar    1  UNL1        0.0096
     25 C         -11.5777  -16.7180   20.0451 C.ar    1  UNL1        0.0575
     26 CL        -11.7953  -15.5067   19.1875 Cl      1  UNL1       -0.0823
     27 C         -12.7244  -17.3132   20.8072 C.ar    1  UNL1        0.0122
     28 C         -12.5068  -18.5245   21.6649 C.ar    1  UNL1        0.0120
     29 C         -11.1425  -19.1406   21.7603 C.ar    1  UNL1        0.0553
     30 CL        -10.9249  -20.3518   22.6179 Cl      1  UNL1       -0.0825
@<TRIPOS>BOND
     1    10     9    1
     2    10    11    1
     3    10     2    1
     4     2     3    2
     5     2     4   am
     6     4     5    1
     7     5     6    1
     8     6     7    1
     9     7     1    1
    10     1    22    1
    11    22    23    1
    12    23    24   ar
    13    24    25   ar
    14    25    26    1
    15    25    27   ar
    16    27    28   ar
    17    28    29   ar
    18    29    30    1
    19     1    13    1
    20    13    14   ar
    21    14    15   ar
    22    15    16   ar
    23    16    20    1
    24    20    21    3
    25    16    17   ar
    26    17    18    1
    27    17    19   ar
    28     7     8    1
    29     8     4    1
    30    29    23   ar
    31    19    13   ar
    32    11    12    1
