@<TRIPOS>MOLECULE
*****
 29 33 0 0 0
SMALL
GASTEIGER

@<TRIPOS>ATOM
      1 C           6.8506   -4.1014   24.4834 C.2     1  UNL1        0.0020
      2 C           6.4597   -3.3506   25.7218 C.2     1  UNL1        0.0130
      3 C           6.9028   -3.8419   27.0680 C.3     1  UNL1        0.1542
      4 C           6.0688   -2.5999   26.9601 C.3     1  UNL1        0.0614
      5 C           5.6779   -1.8492   28.1985 C.3     1  UNL1        0.0725
      6 N           6.1211   -2.3405   29.5447 N.3     1  UNL1       -0.2972
      7 C           6.9551   -3.5825   29.6525 C.3     1  UNL1        0.0725
      8 C           7.3460   -4.3332   28.4141 C.3     1  UNL1        0.0614
      9 O           7.7369   -5.0840   27.1757 O.3     1  UNL1       -0.4785
     10 C           8.1278   -5.8347   25.9374 C.ar    1  UNL1        0.1386
     11 C           8.9619   -7.0768   26.0451 C.ar    1  UNL1        0.0369
     12 C           9.3528   -7.8275   24.8068 C.ar    1  UNL1        0.0031
     13 C           8.9097   -7.3362   23.4606 C.ar    1  UNL1        0.0002
     14 C           8.0756   -6.0942   23.3528 C.ar    1  UNL1        0.0030
     15 C           7.6847   -5.3434   24.5912 C.ar    1  UNL1        0.0338
     16 H           5.2756   -2.5052   30.0910 H       1  UNL1        0.1233
     17 C           5.5211   -2.6274   20.4448 C.ar    1  UNL1        0.0536
     18 C           6.8952   -2.2979   20.9484 C.ar    1  UNL1        0.0045
     19 C           7.3383   -2.7893   22.2946 C.ar    1  UNL1        0.0001
     20 C           6.4074   -3.6100   23.1372 C.ar    1  UNL1       -0.0001
     21 C           5.0335   -3.9394   22.6336 C.ar    1  UNL1        0.0001
     22 C           4.5903   -3.4481   21.2874 C.ar    1  UNL1        0.0045
     23 O           5.5829   -2.8028   17.8534 O.2     1  UNL1       -0.2699
     24 C           5.0780   -2.1361   19.0986 C.2     1  UNL1        0.2490
     25 N           4.1299   -0.9781   18.9977 N.am    1  UNL1       -0.2761
     26 C           3.6014   -0.3794   17.7279 C.3     1  UNL1        0.0938
     27 C           2.6887    0.7532   18.0942 C.3     1  UNL1        0.0233
     28 C           2.6530    0.8544   19.5904 C.3     1  UNL1        0.0233
     29 C           3.5437   -0.2156   20.1487 C.3     1  UNL1        0.0938
@<TRIPOS>BOND
     1    23    24    2
     2    24    17    1
     3    17    18   ar
     4    18    19   ar
     5    19    20   ar
     6    20     1    1
     7     1     2    2
     8     2     3    1
     9     3     4    1
    10     4     5    1
    11     5     6    1
    12     6     7    1
    13     7     8    1
    14     3     9    1
    15     9    10    1
    16    10    11   ar
    17    11    12   ar
    18    12    13   ar
    19    13    14   ar
    20    14    15   ar
    21    20    21   ar
    22    21    22   ar
    23    24    25   am
    24    25    26    1
    25    26    27    1
    26    27    28    1
    27    28    29    1
    28    22    17   ar
    29    29    25    1
    30    15     1    1
    31     8     3    1
    32    15    10   ar
    33     6    16    1
@<TRIPOS>MOLECULE
*****
 29 33 0 0 0
SMALL
GASTEIGER

@<TRIPOS>ATOM
      1 C          -7.5746  -17.2286   23.0206 C.2     1  UNL1        0.0020
      2 C          -8.7922  -17.4430   22.1711 C.2     1  UNL1        0.0130
      3 C         -10.1261  -16.9329   22.6299 C.3     1  UNL1        0.1542
      4 C         -10.0097  -17.6574   21.3217 C.3     1  UNL1        0.0614
      5 C         -11.2272  -17.8719   20.4722 C.3     1  UNL1        0.0725
      6 N         -12.5611  -17.3618   20.9310 N.3     1  UNL1       -0.2972
      7 C         -12.6775  -16.6373   22.2393 C.3     1  UNL1        0.0725
      8 C         -11.4600  -16.4229   23.0887 C.3     1  UNL1        0.0614
      9 O         -10.2424  -16.2084   23.9382 O.3     1  UNL1       -0.4785
     10 C          -9.0249  -15.9940   24.7877 C.ar    1  UNL1        0.1386
     11 C          -9.1412  -15.2695   26.0960 C.ar    1  UNL1        0.0369
     12 C          -7.9237  -15.0550   26.9454 C.ar    1  UNL1        0.0031
     13 C          -6.5898  -15.5651   26.4866 C.ar    1  UNL1        0.0002
     14 C          -6.4734  -16.2896   25.1784 C.ar    1  UNL1        0.0030
     15 C          -7.6910  -16.5041   24.3289 C.ar    1  UNL1        0.0338
     16 H         -13.1823  -18.1690   20.9852 H       1  UNL1        0.1233
     17 C          -3.5728  -18.7588   21.6442 C.ar    1  UNL1        0.0536
     18 C          -4.8269  -19.2195   20.9623 C.ar    1  UNL1        0.0045
     19 C          -6.1609  -18.7094   21.4211 C.ar    1  UNL1        0.0001
     20 C          -6.2407  -17.7386   22.5618 C.ar    1  UNL1       -0.0001
     21 C          -4.9866  -17.2779   23.2437 C.ar    1  UNL1        0.0001
     22 C          -3.6527  -17.7880   22.7849 C.ar    1  UNL1        0.0045
     23 O          -1.9524  -20.7412   21.2032 O.2     1  UNL1       -0.2699
     24 C          -2.2389  -19.2688   21.1854 C.2     1  UNL1        0.2490
     25 N          -1.1915  -18.3067   20.7089 N.am    1  UNL1       -0.2761
     26 C           0.1810  -18.6670   20.2228 C.3     1  UNL1        0.0938
     27 C           0.8881  -17.3983   19.8482 C.3     1  UNL1        0.0233
     28 C          -0.0475  -16.2537   20.1028 C.3     1  UNL1        0.0233
     29 C          -1.3328  -16.8152   20.6348 C.3     1  UNL1        0.0938
@<TRIPOS>BOND
     1    23    24    2
     2    24    17    1
     3    17    18   ar
     4    18    19   ar
     5    19    20   ar
     6    20     1    1
     7     1     2    2
     8     2     3    1
     9     3     4    1
    10     4     5    1
    11     5     6    1
    12     6     7    1
    13     7     8    1
    14     3     9    1
    15     9    10    1
    16    10    11   ar
    17    11    12   ar
    18    12    13   ar
    19    13    14   ar
    20    14    15   ar
    21    20    21   ar
    22    21    22   ar
    23    24    25   am
    24    25    26    1
    25    26    27    1
    26    27    28    1
    27    28    29    1
    28    22    17   ar
    29    29    25    1
    30    15     1    1
    31     8     3    1
    32    15    10   ar
    33     6    16    1
@<TRIPOS>MOLECULE
*****
 29 33 0 0 0
SMALL
GASTEIGER

@<TRIPOS>ATOM
      1 C           3.3509   -1.1603   21.9072 C.2     1  UNL1        0.0020
      2 C           3.7674   -1.3333   23.3378 C.2     1  UNL1        0.0130
      3 C           4.8496   -2.3101   23.6910 C.3     1  UNL1        0.1542
      4 C           4.1839   -1.5063   24.7684 C.3     1  UNL1        0.0614
      5 C           4.6004   -1.6794   26.1989 C.3     1  UNL1        0.0725
      6 N           5.6826   -2.6561   26.5521 N.3     1  UNL1       -0.2972
      7 C           6.3483   -3.4598   25.4747 C.3     1  UNL1        0.0725
      8 C           5.9318   -3.2868   24.0442 C.3     1  UNL1        0.0614
      9 O           5.5153   -3.1138   22.6135 O.3     1  UNL1       -0.4785
     10 C           5.0988   -2.9408   21.1830 C.ar    1  UNL1        0.1386
     11 C           5.7645   -3.7445   20.1055 C.ar    1  UNL1        0.0369
     12 C           5.3480   -3.5715   18.6749 C.ar    1  UNL1        0.0031
     13 C           4.2658   -2.5947   18.3218 C.ar    1  UNL1        0.0002
     14 C           3.6001   -1.7910   19.3991 C.ar    1  UNL1        0.0030
     15 C           4.0166   -1.9640   20.8298 C.ar    1  UNL1        0.0338
     16 H           5.2750   -3.3229   27.2076 H       1  UNL1        0.1233
     17 C           0.1042    1.7700   20.8476 C.ar    1  UNL1        0.0536
     18 C           1.2154    2.1819   21.7673 C.ar    1  UNL1        0.0045
     19 C           2.2976    1.2051   22.1205 C.ar    1  UNL1        0.0001
     20 C           2.2686   -0.1835   21.5540 C.ar    1  UNL1       -0.0001
     21 C           1.1575   -0.5953   20.6344 C.ar    1  UNL1        0.0001
     22 C           0.0753    0.3814   20.2812 C.ar    1  UNL1        0.0045
     23 O          -2.1562    2.9228   21.4061 O.2     1  UNL1       -0.2699
     24 C          -0.9780    2.7468   20.4945 C.2     1  UNL1        0.2490
     25 N          -0.8821    3.5474   19.2297 N.am    1  UNL1       -0.2761
     26 C          -1.8816    4.5566   18.7471 C.3     1  UNL1        0.0938
     27 C          -1.3871    5.1124   17.4446 C.3     1  UNL1        0.0233
     28 C          -0.0821    4.4468   17.1222 C.3     1  UNL1        0.0233
     29 C           0.2300    3.4796   18.2254 C.3     1  UNL1        0.0938
@<TRIPOS>BOND
     1    23    24    2
     2    24    17    1
     3    17    18   ar
     4    18    19   ar
     5    19    20   ar
     6    20     1    1
     7     1     2    2
     8     2     3    1
     9     3     4    1
    10     4     5    1
    11     5     6    1
    12     6     7    1
    13     7     8    1
    14     3     9    1
    15     9    10    1
    16    10    11   ar
    17    11    12   ar
    18    12    13   ar
    19    13    14   ar
    20    14    15   ar
    21    20    21   ar
    22    21    22   ar
    23    24    25   am
    24    25    26    1
    25    26    27    1
    26    27    28    1
    27    28    29    1
    28    22    17   ar
    29    29    25    1
    30    15     1    1
    31     8     3    1
    32    15    10   ar
    33     6    16    1
@<TRIPOS>MOLECULE
*****
 29 33 0 0 0
SMALL
GASTEIGER

@<TRIPOS>ATOM
      1 C          -0.0885    2.1346   21.0596 C.2     1  UNL1        0.0020
      2 C          -1.2075    2.8534   20.3658 C.2     1  UNL1        0.0130
      3 C          -2.2428    3.5826   21.1698 C.3     1  UNL1        0.1542
      4 C          -2.3265    3.5723   19.6722 C.3     1  UNL1        0.0614
      5 C          -3.4454    4.2911   18.9785 C.3     1  UNL1        0.0725
      6 N          -4.4807    5.0203   19.7825 N.3     1  UNL1       -0.2972
      7 C          -4.3971    5.0307   21.2801 C.3     1  UNL1        0.0725
      8 C          -3.2782    4.3119   21.9737 C.3     1  UNL1        0.0614
      9 O          -2.1592    3.5930   22.6675 O.3     1  UNL1       -0.4785
     10 C          -1.0402    2.8742   23.3611 C.ar    1  UNL1        0.1386
     11 C          -0.9566    2.8845   24.8588 C.ar    1  UNL1        0.0369
     12 C           0.1624    2.1657   25.5525 C.ar    1  UNL1        0.0031
     13 C           1.1977    1.4365   24.7485 C.ar    1  UNL1        0.0002
     14 C           1.1141    1.4261   23.2509 C.ar    1  UNL1        0.0030
     15 C          -0.0049    2.1450   22.5572 C.ar    1  UNL1        0.0338
     16 H          -5.3832    4.6111   19.5408 H       1  UNL1        0.1233
     17 C           3.0175   -0.0531   18.6477 C.ar    1  UNL1        0.0536
     18 C           1.9865   -0.8236   19.4183 C.ar    1  UNL1        0.0045
     19 C           0.9512   -0.0943   20.2223 C.ar    1  UNL1        0.0001
     20 C           0.9468    1.4053   20.2556 C.ar    1  UNL1       -0.0001
     21 C           1.9777    2.1757   19.4851 C.ar    1  UNL1        0.0001
     22 C           3.0130    1.4465   18.6811 C.ar    1  UNL1        0.0045
     23 O           3.8426   -1.0044   16.3752 O.2     1  UNL1       -0.2699
     24 C           4.0528   -0.7823   17.8438 C.2     1  UNL1        0.2490
     25 N           5.2982   -1.2895   18.5083 N.am    1  UNL1       -0.2761
     26 C           6.4157   -2.0320   17.8375 C.3     1  UNL1        0.0938
     27 C           7.4530   -2.3446   18.8750 C.3     1  UNL1        0.0233
     28 C           6.9765   -1.7954   20.1870 C.3     1  UNL1        0.0233
     29 C           5.6448   -1.1433   19.9604 C.3     1  UNL1        0.0938
@<TRIPOS>BOND
     1    23    24    2
     2    24    17    1
     3    17    18   ar
     4    18    19   ar
     5    19    20   ar
     6    20     1    1
     7     1     2    2
     8     2     3    1
     9     3     4    1
    10     4     5    1
    11     5     6    1
    12     6     7    1
    13     7     8    1
    14     3     9    1
    15     9    10    1
    16    10    11   ar
    17    11    12   ar
    18    12    13   ar
    19    13    14   ar
    20    14    15   ar
    21    20    21   ar
    22    21    22   ar
    23    24    25   am
    24    25    26    1
    25    26    27    1
    26    27    28    1
    27    28    29    1
    28    22    17   ar
    29    29    25    1
    30    15     1    1
    31     8     3    1
    32    15    10   ar
    33     6    16    1
@<TRIPOS>MOLECULE
*****
 29 33 0 0 0
SMALL
GASTEIGER

@<TRIPOS>ATOM
      1 C           1.6026    1.8443   31.1126 C.2     1  UNL1        0.0020
      2 C           2.5073    0.6703   31.3442 C.2     1  UNL1        0.0130
      3 C           3.1816    0.4937   32.6724 C.3     1  UNL1        0.1542
      4 C           3.4118   -0.5035   31.5758 C.3     1  UNL1        0.0614
      5 C           4.3164   -1.6774   31.8074 C.3     1  UNL1        0.0725
      6 N           4.9907   -1.8541   33.1356 N.3     1  UNL1       -0.2972
      7 C           4.7605   -0.8569   34.2322 C.3     1  UNL1        0.0725
      8 C           3.8559    0.3170   34.0006 C.3     1  UNL1        0.0614
      9 O           2.9513    1.4909   33.7690 O.3     1  UNL1       -0.4785
     10 C           2.0467    2.6648   33.5374 C.ar    1  UNL1        0.1386
     11 C           1.8164    3.6621   34.6340 C.ar    1  UNL1        0.0369
     12 C           0.9118    4.8360   34.4024 C.ar    1  UNL1        0.0031
     13 C           0.2375    5.0127   33.0742 C.ar    1  UNL1        0.0002
     14 C           0.4678    4.0155   31.9777 C.ar    1  UNL1        0.0030
     15 C           1.3724    2.8415   32.2092 C.ar    1  UNL1        0.0338
     16 H           5.9948   -1.8682   32.9565 H       1  UNL1        0.1233
     17 C          -0.4203    2.3744   27.1281 C.ar    1  UNL1        0.0536
     18 C          -0.8257    1.2471   28.0309 C.ar    1  UNL1        0.0045
     19 C          -0.1513    1.0704   29.3591 C.ar    1  UNL1        0.0001
     20 C           0.9283    2.0210   29.7845 C.ar    1  UNL1       -0.0001
     21 C           1.3336    3.1482   28.8816 C.ar    1  UNL1        0.0001
     22 C           0.6592    3.3249   27.5535 C.ar    1  UNL1        0.0045
     23 O          -0.4205    2.0750   24.5473 O.2     1  UNL1       -0.2699
     24 C          -1.0947    2.5511   25.7999 C.2     1  UNL1        0.2490
     25 N          -2.4431    3.2038   25.7243 N.am    1  UNL1       -0.2761
     26 C          -3.2358    3.4476   24.4744 C.3     1  UNL1        0.0938
     27 C          -4.5181    4.1218   24.8629 C.3     1  UNL1        0.0233
     28 C          -4.5180    4.2946   26.3530 C.3     1  UNL1        0.0233
     29 C          -3.2355    3.7273   26.8853 C.3     1  UNL1        0.0938
@<TRIPOS>BOND
     1    23    24    2
     2    24    17    1
     3    17    18   ar
     4    18    19   ar
     5    19    20   ar
     6    20     1    1
     7     1     2    2
     8     2     3    1
     9     3     4    1
    10     4     5    1
    11     5     6    1
    12     6     7    1
    13     7     8    1
    14     3     9    1
    15     9    10    1
    16    10    11   ar
    17    11    12   ar
    18    12    13   ar
    19    13    14   ar
    20    14    15   ar
    21    20    21   ar
    22    21    22   ar
    23    24    25   am
    24    25    26    1
    25    26    27    1
    26    27    28    1
    27    28    29    1
    28    22    17   ar
    29    29    25    1
    30    15     1    1
    31     8     3    1
    32    15    10   ar
    33     6    16    1
@<TRIPOS>MOLECULE
*****
 29 33 0 0 0
SMALL
GASTEIGER

@<TRIPOS>ATOM
      1 C           2.2701    0.2809   22.4065 C.2     1  UNL1        0.0020
      2 C           3.1049   -0.9618   22.5010 C.2     1  UNL1        0.0130
      3 C           3.4418   -1.7352   21.2607 C.3     1  UNL1        0.1542
      4 C           3.9397   -2.2044   22.5956 C.3     1  UNL1        0.0614
      5 C           4.7745   -3.4470   22.6901 C.3     1  UNL1        0.0725
      6 N           5.1113   -4.2204   21.4498 N.3     1  UNL1       -0.2972
      7 C           4.6134   -3.7512   20.1149 C.3     1  UNL1        0.0725
      8 C           3.7786   -2.5086   20.0204 C.3     1  UNL1        0.0614
      9 O           2.9438   -1.2659   19.9258 O.3     1  UNL1       -0.4785
     10 C           2.1090   -0.0233   19.8313 C.ar    1  UNL1        0.1386
     11 C           1.6110    0.4460   18.4964 C.ar    1  UNL1        0.0369
     12 C           0.7762    1.6886   18.4019 C.ar    1  UNL1        0.0031
     13 C           0.4394    2.4620   19.6422 C.ar    1  UNL1        0.0002
     14 C           0.9373    1.9928   20.9771 C.ar    1  UNL1        0.0030
     15 C           1.7722    0.7501   21.0716 C.ar    1  UNL1        0.0338
     16 H           4.7491   -5.1645   21.5839 H       1  UNL1        0.1233
     17 C           1.2596    2.6011   26.1274 C.ar    1  UNL1        0.0536
     18 C           0.2424    1.6836   25.5163 C.ar    1  UNL1        0.0045
     19 C           0.5792    0.9102   24.2760 C.ar    1  UNL1        0.0001
     20 C           1.9333    1.0543   23.6468 C.ar    1  UNL1       -0.0001
     21 C           2.9504    1.9718   24.2580 C.ar    1  UNL1        0.0001
     22 C           2.6136    2.7452   25.4983 C.ar    1  UNL1        0.0045
     23 O           0.4126    4.7809   27.2592 O.2     1  UNL1       -0.2699
     24 C           0.9228    3.3745   27.3678 C.2     1  UNL1        0.2490
     25 N           1.0961    2.7415   28.7165 N.am    1  UNL1       -0.2761
     26 C           0.8024    3.3876   30.0380 C.3     1  UNL1        0.0938
     27 C           1.1184    2.3968   31.1189 C.3     1  UNL1        0.0233
     28 C           1.6074    1.1382   30.4654 C.3     1  UNL1        0.0233
     29 C           1.5937    1.3514   28.9807 C.3     1  UNL1        0.0938
@<TRIPOS>BOND
     1    23    24    2
     2    24    17    1
     3    17    18   ar
     4    18    19   ar
     5    19    20   ar
     6    20     1    1
     7     1     2    2
     8     2     3    1
     9     3     4    1
    10     4     5    1
    11     5     6    1
    12     6     7    1
    13     7     8    1
    14     3     9    1
    15     9    10    1
    16    10    11   ar
    17    11    12   ar
    18    12    13   ar
    19    13    14   ar
    20    14    15   ar
    21    20    21   ar
    22    21    22   ar
    23    24    25   am
    24    25    26    1
    25    26    27    1
    26    27    28    1
    27    28    29    1
    28    22    17   ar
    29    29    25    1
    30    15     1    1
    31     8     3    1
    32    15    10   ar
    33     6    16    1
@<TRIPOS>MOLECULE
*****
 29 33 0 0 0
SMALL
GASTEIGER

@<TRIPOS>ATOM
      1 C          -1.2702    2.9783   25.4950 C.2     1  UNL1        0.0020
      2 C          -0.5381    2.7573   24.2044 C.2     1  UNL1        0.0130
      3 C          -1.1749    3.1500   22.9043 C.3     1  UNL1        0.1542
      4 C           0.1938    2.5364   22.9139 C.3     1  UNL1        0.0614
      5 C           0.9257    2.3155   21.6234 C.3     1  UNL1        0.0725
      6 N           0.2889    2.7082   20.3233 N.3     1  UNL1       -0.2972
      7 C          -1.0797    3.3218   20.3137 C.3     1  UNL1        0.0725
      8 C          -1.8117    3.5427   21.6042 C.3     1  UNL1        0.0614
      9 O          -2.5437    3.7637   22.8947 O.3     1  UNL1       -0.4785
     10 C          -3.2756    3.9846   24.1852 C.ar    1  UNL1        0.1386
     11 C          -4.6443    4.5983   24.1756 C.ar    1  UNL1        0.0369
     12 C          -5.3763    4.8192   25.4661 C.ar    1  UNL1        0.0031
     13 C          -4.7395    4.4265   26.7662 C.ar    1  UNL1        0.0002
     14 C          -3.3708    3.8129   26.7759 C.ar    1  UNL1        0.0030
     15 C          -2.6388    3.5919   25.4853 C.ar    1  UNL1        0.0338
     16 H           0.2369    1.8635   19.7539 H       1  UNL1        0.1233
     17 C           0.6401    1.8003   29.3954 C.ar    1  UNL1        0.0536
     18 C           0.8783    3.1676   28.8264 C.ar    1  UNL1        0.0045
     19 C           0.2416    3.5603   27.5263 C.ar    1  UNL1        0.0001
     20 C          -0.6334    2.5856   26.7951 C.ar    1  UNL1       -0.0001
     21 C          -0.8716    1.2184   27.3641 C.ar    1  UNL1        0.0001
     22 C          -0.2348    0.8257   28.6642 C.ar    1  UNL1        0.0045
     23 O           0.6758    1.8622   31.9925 O.2     1  UNL1       -0.2699
     24 C           1.2769    1.4076   30.6955 C.2     1  UNL1        0.2490
     25 N           2.5146    0.5603   30.6987 N.am    1  UNL1       -0.2761
     26 C           3.2589    0.0912   31.9136 C.3     1  UNL1        0.0938
     27 C           4.4297   -0.7257   31.4533 C.3     1  UNL1        0.0233
     28 C           4.4090   -0.7614   29.9539 C.3     1  UNL1        0.0233
     29 C           3.2255    0.0334   29.4875 C.3     1  UNL1        0.0938
@<TRIPOS>BOND
     1    23    24    2
     2    24    17    1
     3    17    18   ar
     4    18    19   ar
     5    19    20   ar
     6    20     1    1
     7     1     2    2
     8     2     3    1
     9     3     4    1
    10     4     5    1
    11     5     6    1
    12     6     7    1
    13     7     8    1
    14     3     9    1
    15     9    10    1
    16    10    11   ar
    17    11    12   ar
    18    12    13   ar
    19    13    14   ar
    20    14    15   ar
    21    20    21   ar
    22    21    22   ar
    23    24    25   am
    24    25    26    1
    25    26    27    1
    26    27    28    1
    27    28    29    1
    28    22    17   ar
    29    29    25    1
    30    15     1    1
    31     8     3    1
    32    15    10   ar
    33     6    16    1
@<TRIPOS>MOLECULE
*****
 29 33 0 0 0
SMALL
GASTEIGER

@<TRIPOS>ATOM
      1 C           4.3888    0.0717   33.6040 C.2     1  UNL1        0.0020
      2 C           4.5195    0.5004   35.0356 C.2     1  UNL1        0.0130
      3 C           3.5710    1.5135   35.6046 C.3     1  UNL1        0.1542
      4 C           4.6502    0.9292   36.4670 C.3     1  UNL1        0.0614
      5 C           4.7808    1.3579   37.8984 C.3     1  UNL1        0.0725
      6 N           3.8323    2.3710   38.4675 N.3     1  UNL1       -0.2972
      7 C           2.7530    2.9554   37.6051 C.3     1  UNL1        0.0725
      8 C           2.6224    2.5266   36.1737 C.3     1  UNL1        0.0614
      9 O           2.4917    2.0979   34.7422 O.3     1  UNL1       -0.4785
     10 C           2.3610    1.6691   33.3107 C.ar    1  UNL1        0.1386
     11 C           1.2817    2.2535   32.4483 C.ar    1  UNL1        0.0369
     12 C           1.1511    1.8247   31.0168 C.ar    1  UNL1        0.0031
     13 C           2.0997    0.8116   30.4478 C.ar    1  UNL1        0.0002
     14 C           3.1789    0.2273   31.3101 C.ar    1  UNL1        0.0030
     15 C           3.3096    0.6560   32.7417 C.ar    1  UNL1        0.0338
     16 H           4.3991    3.1515   38.7991 H       1  UNL1        0.1233
     17 C           7.2346   -2.9676   31.8969 C.ar    1  UNL1        0.0536
     18 C           7.5601   -1.5057   31.8137 C.ar    1  UNL1        0.0045
     19 C           6.6115   -0.4926   32.3828 C.ar    1  UNL1        0.0001
     20 C           5.3374   -0.9414   33.0350 C.ar    1  UNL1       -0.0001
     21 C           5.0120   -2.4033   33.1181 C.ar    1  UNL1        0.0001
     22 C           5.9605   -3.4164   32.5490 C.ar    1  UNL1        0.0045
     23 O           9.4954   -4.2432   32.0056 O.2     1  UNL1       -0.2699
     24 C           8.1832   -3.9807   31.3278 C.2     1  UNL1        0.2490
     25 N           7.8196   -4.7313   30.0810 N.am    1  UNL1       -0.2761
     26 C           8.6619   -5.7683   29.3989 C.3     1  UNL1        0.0938
     27 C           7.9128   -6.2545   28.1938 C.3     1  UNL1        0.0233
     28 C           6.6075   -5.5180   28.1311 C.3     1  UNL1        0.0233
     29 C           6.5500   -4.5766   29.2975 C.3     1  UNL1        0.0938
@<TRIPOS>BOND
     1    23    24    2
     2    24    17    1
     3    17    18   ar
     4    18    19   ar
     5    19    20   ar
     6    20     1    1
     7     1     2    2
     8     2     3    1
     9     3     4    1
    10     4     5    1
    11     5     6    1
    12     6     7    1
    13     7     8    1
    14     3     9    1
    15     9    10    1
    16    10    11   ar
    17    11    12   ar
    18    12    13   ar
    19    13    14   ar
    20    14    15   ar
    21    20    21   ar
    22    21    22   ar
    23    24    25   am
    24    25    26    1
    25    26    27    1
    26    27    28    1
    27    28    29    1
    28    22    17   ar
    29    29    25    1
    30    15     1    1
    31     8     3    1
    32    15    10   ar
    33     6    16    1
@<TRIPOS>MOLECULE
*****
 29 33 0 0 0
SMALL
GASTEIGER

@<TRIPOS>ATOM
      1 C           1.9646    3.9980   35.3942 C.2     1  UNL1        0.0020
      2 C           2.2354    2.9080   34.3998 C.2     1  UNL1        0.0130
      3 C           1.5113    2.8943   33.0862 C.3     1  UNL1        0.1542
      4 C           2.5062    1.8182   33.4054 C.3     1  UNL1        0.0614
      5 C           2.7770    0.7283   32.4111 C.3     1  UNL1        0.0725
      6 N           2.0529    0.7146   31.0975 N.3     1  UNL1       -0.2972
      7 C           1.0579    1.7907   30.7783 C.3     1  UNL1        0.0725
      8 C           0.7871    2.8806   31.7727 C.3     1  UNL1        0.0614
      9 O           0.5163    3.9706   32.7671 O.3     1  UNL1       -0.4785
     10 C           0.2455    5.0604   33.7614 C.ar    1  UNL1        0.1386
     11 C          -0.7495    6.1367   33.4422 C.ar    1  UNL1        0.0369
     12 C          -1.0203    7.2265   34.4366 C.ar    1  UNL1        0.0031
     13 C          -0.2961    7.2403   35.7502 C.ar    1  UNL1        0.0002
     14 C           0.6988    6.1641   36.0693 C.ar    1  UNL1        0.0030
     15 C           0.9697    5.0742   35.0750 C.ar    1  UNL1        0.0338
     16 H           1.5531   -0.1731   31.0460 H       1  UNL1        0.1233
     17 C           4.1371    4.0392   39.3348 C.ar    1  UNL1        0.0536
     18 C           2.8423    3.2938   39.1999 C.ar    1  UNL1        0.0045
     19 C           2.1181    3.2801   37.8864 C.ar    1  UNL1        0.0001
     20 C           2.6888    4.0117   36.7077 C.ar    1  UNL1       -0.0001
     21 C           3.9835    4.7570   36.8426 C.ar    1  UNL1        0.0001
     22 C           4.7076    4.7707   38.1562 C.ar    1  UNL1        0.0045
     23 O           5.7996    2.9364   40.9992 O.2     1  UNL1       -0.2699
     24 C           4.8612    4.0529   40.6484 C.2     1  UNL1        0.2490
     25 N           4.6471    5.1830   41.6111 N.am    1  UNL1       -0.2761
     26 C           5.2977    5.3323   42.9544 C.3     1  UNL1        0.0938
     27 C           4.7974    6.6038   43.5730 C.3     1  UNL1        0.0233
     28 C           3.8376    7.2405   42.6121 C.3     1  UNL1        0.0233
     29 C           3.7447    6.3624   41.3995 C.3     1  UNL1        0.0938
@<TRIPOS>BOND
     1    23    24    2
     2    24    17    1
     3    17    18   ar
     4    18    19   ar
     5    19    20   ar
     6    20     1    1
     7     1     2    2
     8     2     3    1
     9     3     4    1
    10     4     5    1
    11     5     6    1
    12     6     7    1
    13     7     8    1
    14     3     9    1
    15     9    10    1
    16    10    11   ar
    17    11    12   ar
    18    12    13   ar
    19    13    14   ar
    20    14    15   ar
    21    20    21   ar
    22    21    22   ar
    23    24    25   am
    24    25    26    1
    25    26    27    1
    26    27    28    1
    27    28    29    1
    28    22    17   ar
    29    29    25    1
    30    15     1    1
    31     8     3    1
    32    15    10   ar
    33     6    16    1
