@<TRIPOS>MOLECULE
*****
 31 35 0 0 0
SMALL
GASTEIGER

@<TRIPOS>ATOM
      1 N           6.6975   -4.0888   22.2844 N.3     1  UNL1       -0.1471
      2 C           6.0283   -3.3469   23.4032 C.3     1  UNL1        0.1237
      3 C           4.9545   -2.3025   23.3224 C.ar    1  UNL1        0.0126
      4 C           4.5626   -1.8129   24.6849 C.ar    1  UNL1        0.0100
      5 C           3.5009   -0.7630   24.8279 C.ar    1  UNL1        0.0575
      6 CL          3.1089   -0.2734   26.1905 Cl      1  UNL1       -0.0823
      7 C           2.8312   -0.2027   23.6082 C.ar    1  UNL1        0.0129
      8 C           3.2231   -0.6923   22.2457 C.ar    1  UNL1        0.0182
      9 C           4.2848   -1.7422   22.1027 C.ar    1  UNL1        0.0637
     10 N           4.5235   -2.0878   20.6627 N.ar    1  UNL1       -0.2799
     11 C           5.4907   -3.0791   20.0866 C.ar    1  UNL1        0.1649
     12 N           5.3462   -3.0540   18.5939 N.ar    1  UNL1       -0.1318
     13 N           4.2897   -2.0472   18.2473 N.ar    1  UNL1       -0.1333
     14 C           3.7811   -1.4501   19.5259 C.ar    1  UNL1        0.1465
     15 C           6.4582   -3.9696   20.8084 C.3     1  UNL1        0.1616
     16 C           2.7172   -0.3997   19.6465 C.3     1  UNL1        0.0625
     17 C           1.3307   -0.7819   20.0725 C.3     1  UNL1        0.0291
     18 C           0.2668    0.2685   20.1932 C.3     1  UNL1        0.0926
     19 N           0.5893    1.7012   19.8878 N.pl3   1  UNL1       -0.2932
     20 C           1.9758    2.0835   19.4619 C.3     1  UNL1        0.0926
     21 C           3.0398    1.0331   19.3412 C.3     1  UNL1        0.0291
     22 C          -0.4747    2.7517   20.0085 C.ar    1  UNL1        0.1317
     23 C          -0.3453    4.0406   19.2521 C.ar    1  UNL1        0.0343
     24 C          -1.4093    5.0911   19.3727 C.ar    1  UNL1        0.0045
     25 C          -2.6025    4.8526   20.2497 C.ar    1  UNL1        0.0208
     26 C          -2.7320    3.5638   21.0061 C.ar    1  UNL1        0.1003
     27 N          -1.6680    2.5133   20.8855 N.ar    1  UNL1       -0.2292
     28 C           8.7912   -6.0733   23.1076 C.3     1  UNL1        0.1960
     29 S           7.7444   -5.0810   22.6960 S.O2    1  UNL1        0.0463
     30 O           7.4264   -4.8184   24.1381 O.2     1  UNL1       -0.1572
     31 O           8.0624   -5.3438   21.2538 O.2     1  UNL1       -0.1572
@<TRIPOS>BOND
     1    28    29    1
     2    29    30    2
     3    29    31    2
     4    29     1    1
     5     1     2    1
     6     2     3    1
     7     3     4   ar
     8     4     5   ar
     9     5     6    1
    10     5     7   ar
    11     7     8   ar
    12     8     9   ar
    13     9    10    1
    14    10    11   ar
    15    11    12   ar
    16    12    13   ar
    17    13    14   ar
    18    14    16    1
    19    16    17    1
    20    17    18    1
    21    18    19    1
    22    19    22    1
    23    22    23   ar
    24    23    24   ar
    25    24    25   ar
    26    25    26   ar
    27    26    27   ar
    28    19    20    1
    29    20    21    1
    30    11    15    1
    31    15     1    1
    32     9     3   ar
    33    14    10   ar
    34    21    16    1
    35    27    22   ar
@<TRIPOS>MOLECULE
*****
 31 35 0 0 0
SMALL
GASTEIGER

@<TRIPOS>ATOM
      1 N           3.8094    1.0617   34.7965 N.3     1  UNL1       -0.1471
      2 C           2.8974    2.2525   34.7778 C.3     1  UNL1        0.1237
      3 C           1.9983    2.7248   33.6739 C.ar    1  UNL1        0.0126
      4 C           1.2514    3.9645   34.0679 C.ar    1  UNL1        0.0100
      5 C           0.2954    4.6023   33.1040 C.ar    1  UNL1        0.0575
      6 CL         -0.4515    5.8421   33.4980 Cl      1  UNL1       -0.0823
      7 C           0.0862    4.0004   31.7461 C.ar    1  UNL1        0.0129
      8 C           0.8331    2.7607   31.3521 C.ar    1  UNL1        0.0182
      9 C           1.7891    2.1229   32.3160 C.ar    1  UNL1        0.0637
     10 N           2.4274    0.9000   31.7266 N.ar    1  UNL1       -0.2799
     11 C           3.4325   -0.0229   32.3495 C.ar    1  UNL1        0.1649
     12 N           3.7572   -1.0955   31.3526 N.ar    1  UNL1       -0.1318
     13 N           2.9528   -0.8356   30.1135 N.ar    1  UNL1       -0.1333
     14 C           2.1309    0.3977   30.3446 C.ar    1  UNL1        0.1465
     15 C           4.0475    0.0491   33.7158 C.3     1  UNL1        0.1616
     16 C           1.1797    1.0195   29.3657 C.3     1  UNL1        0.0625
     17 C          -0.2095    0.4729   29.2190 C.3     1  UNL1        0.0291
     18 C          -1.1607    1.0947   28.2401 C.3     1  UNL1        0.0926
     19 N          -0.7230    2.2633   27.4078 N.pl3   1  UNL1       -0.2932
     20 C           0.6661    2.8100   27.5545 C.3     1  UNL1        0.0926
     21 C           1.6174    2.1882   28.5334 C.3     1  UNL1        0.0291
     22 C          -1.6743    2.8852   26.4288 C.ar    1  UNL1        0.1317
     23 C          -1.2906    3.0062   24.9838 C.ar    1  UNL1        0.0343
     24 C          -2.2419    3.6281   24.0048 C.ar    1  UNL1        0.0045
     25 C          -3.5768    4.1289   24.4709 C.ar    1  UNL1        0.0208
     26 C          -3.9604    4.0079   25.9160 C.ar    1  UNL1        0.1003
     27 N          -3.0091    3.3860   26.8950 N.ar    1  UNL1       -0.2292
     28 C           5.3624    0.6512   37.3300 C.3     1  UNL1        0.1960
     29 S           4.5859    0.8565   36.0633 S.O2    1  UNL1        0.0463
     30 O           4.9158   -0.5425   35.6344 O.2     1  UNL1       -0.1572
     31 O           4.2561    2.2555   36.4922 O.2     1  UNL1       -0.1572
@<TRIPOS>BOND
     1    28    29    1
     2    29    30    2
     3    29    31    2
     4    29     1    1
     5     1     2    1
     6     2     3    1
     7     3     4   ar
     8     4     5   ar
     9     5     6    1
    10     5     7   ar
    11     7     8   ar
    12     8     9   ar
    13     9    10    1
    14    10    11   ar
    15    11    12   ar
    16    12    13   ar
    17    13    14   ar
    18    14    16    1
    19    16    17    1
    20    17    18    1
    21    18    19    1
    22    19    22    1
    23    22    23   ar
    24    23    24   ar
    25    24    25   ar
    26    25    26   ar
    27    26    27   ar
    28    19    20    1
    29    20    21    1
    30    11    15    1
    31    15     1    1
    32     9     3   ar
    33    14    10   ar
    34    21    16    1
    35    27    22   ar
@<TRIPOS>MOLECULE
*****
 31 35 0 0 0
SMALL
GASTEIGER

@<TRIPOS>ATOM
      1 N          -1.8821    3.2601   21.7027 N.3     1  UNL1       -0.1471
      2 C          -0.5789    2.5185   21.7421 C.3     1  UNL1        0.1237
      3 C           0.1876    2.0371   22.9383 C.ar    1  UNL1        0.0126
      4 C           1.4503    1.3355   22.5342 C.ar    1  UNL1        0.0100
      5 C           2.3655    0.7754   23.5823 C.ar    1  UNL1        0.0575
      6 CL          3.6282    0.0738   23.1782 Cl      1  UNL1       -0.0823
      7 C           2.0179    0.9168   25.0346 C.ar    1  UNL1        0.0129
      8 C           0.7552    1.6184   25.4388 C.ar    1  UNL1        0.0182
      9 C          -0.1599    2.1785   24.3906 C.ar    1  UNL1        0.0637
     10 N          -1.3597    2.8362   25.0054 N.ar    1  UNL1       -0.2799
     11 C          -2.5083    3.5149   24.3198 C.ar    1  UNL1        0.1649
     12 N          -3.4515    4.0099   25.3758 N.ar    1  UNL1       -0.1318
     13 N          -2.8859    3.6372   26.7141 N.ar    1  UNL1       -0.1333
     14 C          -1.5931    2.9117   26.4852 C.ar    1  UNL1        0.1465
     15 C          -2.7408    3.7036   22.8499 C.3     1  UNL1        0.1616
     16 C          -0.6920    2.3590   27.5493 C.3     1  UNL1        0.0625
     17 C           0.3691    3.2266   28.1587 C.3     1  UNL1        0.0291
     18 C           1.2703    2.6738   29.2227 C.3     1  UNL1        0.0926
     19 N           1.1104    1.2534   29.6774 N.pl3   1  UNL1       -0.2932
     20 C           0.0494    0.3857   29.0681 C.3     1  UNL1        0.0926
     21 C          -0.8518    0.9385   28.0040 C.3     1  UNL1        0.0291
     22 C           2.0116    0.7005   30.7416 C.ar    1  UNL1        0.1317
     23 C           2.2177    1.4598   32.0187 C.ar    1  UNL1        0.0343
     24 C           3.1189    0.9069   33.0828 C.ar    1  UNL1        0.0045
     25 C           3.8139   -0.4051   32.8697 C.ar    1  UNL1        0.0208
     26 C           3.6079   -1.1644   31.5926 C.ar    1  UNL1        0.1003
     27 N           2.7067   -0.6115   30.5285 N.ar    1  UNL1       -0.2292
     28 C          -2.9066    3.9473   18.9682 C.3     1  UNL1        0.1960
     29 S          -2.3943    3.6037   20.3355 S.O2    1  UNL1        0.0463
     30 O          -1.1303    4.3597   20.0518 O.2     1  UNL1       -0.1572
     31 O          -3.6585    2.8477   20.6191 O.2     1  UNL1       -0.1572
@<TRIPOS>BOND
     1    28    29    1
     2    29    30    2
     3    29    31    2
     4    29     1    1
     5     1     2    1
     6     2     3    1
     7     3     4   ar
     8     4     5   ar
     9     5     6    1
    10     5     7   ar
    11     7     8   ar
    12     8     9   ar
    13     9    10    1
    14    10    11   ar
    15    11    12   ar
    16    12    13   ar
    17    13    14   ar
    18    14    16    1
    19    16    17    1
    20    17    18    1
    21    18    19    1
    22    19    22    1
    23    22    23   ar
    24    23    24   ar
    25    24    25   ar
    26    25    26   ar
    27    26    27   ar
    28    19    20    1
    29    20    21    1
    30    11    15    1
    31    15     1    1
    32     9     3   ar
    33    14    10   ar
    34    21    16    1
    35    27    22   ar
@<TRIPOS>MOLECULE
*****
 31 35 0 0 0
SMALL
GASTEIGER

@<TRIPOS>ATOM
      1 N          -0.8443    2.6415   21.4941 N.3     1  UNL1       -0.1471
      2 C          -0.2072    2.2454   22.7930 C.3     1  UNL1        0.1237
      3 C           0.9628    1.3350   23.0217 C.ar    1  UNL1        0.0126
      4 C           1.2802    1.2068   24.4821 C.ar    1  UNL1        0.0100
      5 C           2.4195    0.3393   24.9286 C.ar    1  UNL1        0.0575
      6 CL          2.7369    0.2110   26.3891 Cl      1  UNL1       -0.0823
      7 C           3.2414   -0.3999   23.9147 C.ar    1  UNL1        0.0129
      8 C           2.9240   -0.2717   22.4543 C.ar    1  UNL1        0.0182
      9 C           1.7847    0.5958   22.0078 C.ar    1  UNL1        0.0637
     10 N           1.6396    0.5845   20.5149 N.ar    1  UNL1       -0.2799
     11 C           0.6368    1.3094   19.6671 C.ar    1  UNL1        0.1649
     12 N           0.9110    0.9697   18.2321 N.ar    1  UNL1       -0.1318
     13 N           2.0833    0.0348   18.1929 N.ar    1  UNL1       -0.1333
     14 C           2.5337   -0.2034   19.6038 C.ar    1  UNL1        0.1465
     15 C          -0.4687    2.2249   20.1029 C.3     1  UNL1        0.1616
     16 C           3.6771   -1.0760   20.0289 C.3     1  UNL1        0.0625
     17 C           3.4798   -2.5565   20.1673 C.3     1  UNL1        0.0291
     18 C           4.6232   -3.4292   20.5924 C.3     1  UNL1        0.0926
     19 N           5.9643   -2.8214   20.8791 N.pl3   1  UNL1       -0.2932
     20 C           6.1618   -1.3409   20.7406 C.3     1  UNL1        0.0926
     21 C           5.0183   -0.4682   20.3155 C.3     1  UNL1        0.0291
     22 C           7.1079   -3.6941   21.3042 C.ar    1  UNL1        0.1317
     23 C           8.3616   -3.7407   20.4820 C.ar    1  UNL1        0.0343
     24 C           9.5052   -4.6134   20.9071 C.ar    1  UNL1        0.0045
     25 C           9.3950   -5.4393   22.1544 C.ar    1  UNL1        0.0208
     26 C           8.1413   -5.3927   22.9766 C.ar    1  UNL1        0.1003
     27 N           6.9977   -4.5200   22.5514 N.ar    1  UNL1       -0.2292
     28 C          -3.1782    4.5142   21.7066 C.3     1  UNL1        0.1960
     29 S          -2.0113    3.5778   21.6004 S.O2    1  UNL1        0.0463
     30 O          -2.7069    2.8360   20.4978 O.2     1  UNL1       -0.1572
     31 O          -1.3157    4.3198   22.7030 O.2     1  UNL1       -0.1572
@<TRIPOS>BOND
     1    28    29    1
     2    29    30    2
     3    29    31    2
     4    29     1    1
     5     1     2    1
     6     2     3    1
     7     3     4   ar
     8     4     5   ar
     9     5     6    1
    10     5     7   ar
    11     7     8   ar
    12     8     9   ar
    13     9    10    1
    14    10    11   ar
    15    11    12   ar
    16    12    13   ar
    17    13    14   ar
    18    14    16    1
    19    16    17    1
    20    17    18    1
    21    18    19    1
    22    19    22    1
    23    22    23   ar
    24    23    24   ar
    25    24    25   ar
    26    25    26   ar
    27    26    27   ar
    28    19    20    1
    29    20    21    1
    30    11    15    1
    31    15     1    1
    32     9     3   ar
    33    14    10   ar
    34    21    16    1
    35    27    22   ar
@<TRIPOS>MOLECULE
*****
 31 35 0 0 0
SMALL
GASTEIGER

@<TRIPOS>ATOM
      1 N           4.7123   -1.9402   19.5085 N.3     1  UNL1       -0.1471
      2 C           3.9646   -1.2690   20.6223 C.3     1  UNL1        0.1237
      3 C           4.1276   -1.4527   22.1021 C.ar    1  UNL1        0.0126
      4 C           3.1759   -0.5843   22.8703 C.ar    1  UNL1        0.0100
      5 C           3.1752   -0.6162   24.3699 C.ar    1  UNL1        0.0575
      6 CL          2.2235    0.2523   25.1381 Cl      1  UNL1       -0.0823
      7 C           4.1263   -1.5164   25.1014 C.ar    1  UNL1        0.0129
      8 C           5.0780   -2.3848   24.3332 C.ar    1  UNL1        0.0182
      9 C           5.0787   -2.3530   22.8336 C.ar    1  UNL1        0.0637
     10 N           6.1015   -3.2919   22.2659 N.ar    1  UNL1       -0.2799
     11 C           6.4260   -3.5625   20.8267 C.ar    1  UNL1        0.1649
     12 N           7.5244   -4.5830   20.7831 N.ar    1  UNL1       -0.1318
     13 N           7.8788   -4.9431   22.1954 N.ar    1  UNL1       -0.1333
     14 C           6.9994   -4.1452   23.1119 C.ar    1  UNL1        0.1465
     15 C           5.8077   -2.9609   19.5995 C.3     1  UNL1        0.1616
     16 C           7.0152   -4.1923   24.6110 C.3     1  UNL1        0.0625
     17 C           7.5101   -3.0121   25.3934 C.3     1  UNL1        0.0291
     18 C           7.5258   -3.0592   26.8925 C.3     1  UNL1        0.0926
     19 N           7.0467   -4.2866   27.6094 N.pl3   1  UNL1       -0.2932
     20 C           6.5517   -5.4668   26.8271 C.3     1  UNL1        0.0926
     21 C           6.5360   -5.4198   25.3279 C.3     1  UNL1        0.0291
     22 C           7.0624   -4.3337   29.1086 C.ar    1  UNL1        0.1317
     23 C           7.2222   -3.0677   29.8971 C.ar    1  UNL1        0.0343
     24 C           7.2380   -3.1149   31.3963 C.ar    1  UNL1        0.0045
     25 C           7.0939   -4.4280   32.1069 C.ar    1  UNL1        0.0208
     26 C           6.9341   -5.6940   31.3184 C.ar    1  UNL1        0.1003
     27 N           6.9183   -5.6468   29.8192 N.ar    1  UNL1       -0.2292
     28 C           3.9109   -1.1348   16.7321 C.3     1  UNL1        0.1960
     29 S           4.3116   -1.5375   18.1203 S.O2    1  UNL1        0.0463
     30 O           5.4452   -2.3438   17.5593 O.2     1  UNL1       -0.1572
     31 O           3.1780   -0.7312   18.6814 O.2     1  UNL1       -0.1572
@<TRIPOS>BOND
     1    28    29    1
     2    29    30    2
     3    29    31    2
     4    29     1    1
     5     1     2    1
     6     2     3    1
     7     3     4   ar
     8     4     5   ar
     9     5     6    1
    10     5     7   ar
    11     7     8   ar
    12     8     9   ar
    13     9    10    1
    14    10    11   ar
    15    11    12   ar
    16    12    13   ar
    17    13    14   ar
    18    14    16    1
    19    16    17    1
    20    17    18    1
    21    18    19    1
    22    19    22    1
    23    22    23   ar
    24    23    24   ar
    25    24    25   ar
    26    25    26   ar
    27    26    27   ar
    28    19    20    1
    29    20    21    1
    30    11    15    1
    31    15     1    1
    32     9     3   ar
    33    14    10   ar
    34    21    16    1
    35    27    22   ar
@<TRIPOS>MOLECULE
*****
 31 35 0 0 0
SMALL
GASTEIGER

@<TRIPOS>ATOM
      1 N           0.8204    4.2934   33.6041 N.3     1  UNL1       -0.1471
      2 C           0.5054    3.5645   32.3315 C.3     1  UNL1        0.1237
      3 C           1.1917    2.3665   31.7453 C.ar    1  UNL1        0.0126
      4 C           0.5579    1.9504   30.4511 C.ar    1  UNL1        0.0100
      5 C           1.0949    0.7692   29.6986 C.ar    1  UNL1        0.0575
      6 CL          0.4610    0.3531   28.4043 Cl      1  UNL1       -0.0823
      7 C           2.2658    0.0041   30.2403 C.ar    1  UNL1        0.0129
      8 C           2.8997    0.4201   31.5345 C.ar    1  UNL1        0.0182
      9 C           2.3627    1.6013   32.2870 C.ar    1  UNL1        0.0637
     10 N           3.1364    1.8453   33.5487 N.ar    1  UNL1       -0.2799
     11 C           2.9304    2.9146   34.5803 C.ar    1  UNL1        0.1649
     12 N           3.9642    2.7308   35.6514 N.ar    1  UNL1       -0.1318
     13 N           4.8092    1.5478   35.2818 N.ar    1  UNL1       -0.1333
     14 C           4.2977    1.0005   33.9823 C.ar    1  UNL1        0.1465
     15 C           1.8997    4.0041   34.6049 C.3     1  UNL1        0.1616
     16 C           4.8502   -0.1835   33.2458 C.3     1  UNL1        0.0625
     17 C           5.8288    0.0188   32.1270 C.3     1  UNL1        0.0291
     18 C           6.3813   -1.1652   31.3905 C.3     1  UNL1        0.0926
     19 N           5.9554   -2.5517   31.7726 N.pl3   1  UNL1       -0.2932
     20 C           4.9768   -2.7542   32.8912 C.3     1  UNL1        0.0926
     21 C           4.4242   -1.5701   33.6279 C.3     1  UNL1        0.0291
     22 C           6.5079   -3.7359   31.0360 C.ar    1  UNL1        0.1317
     23 C           7.0561   -4.9050   31.7994 C.ar    1  UNL1        0.0343
     24 C           7.6086   -6.0892   31.0628 C.ar    1  UNL1        0.0045
     25 C           7.6131   -6.1041   29.5629 C.ar    1  UNL1        0.0208
     26 C           7.0649   -4.9350   28.7995 C.ar    1  UNL1        0.1003
     27 N           6.5124   -3.7509   29.5361 N.ar    1  UNL1       -0.2292
     28 C          -0.9408    6.6397   34.2306 C.3     1  UNL1        0.1960
     29 S          -0.0602    5.4666   33.9173 S.O2    1  UNL1        0.0463
     30 O          -0.8842    5.1734   32.6988 O.2     1  UNL1       -0.1572
     31 O           0.7639    5.7598   35.1360 O.2     1  UNL1       -0.1572
@<TRIPOS>BOND
     1    28    29    1
     2    29    30    2
     3    29    31    2
     4    29     1    1
     5     1     2    1
     6     2     3    1
     7     3     4   ar
     8     4     5   ar
     9     5     6    1
    10     5     7   ar
    11     7     8   ar
    12     8     9   ar
    13     9    10    1
    14    10    11   ar
    15    11    12   ar
    16    12    13   ar
    17    13    14   ar
    18    14    16    1
    19    16    17    1
    20    17    18    1
    21    18    19    1
    22    19    22    1
    23    22    23   ar
    24    23    24   ar
    25    24    25   ar
    26    25    26   ar
    27    26    27   ar
    28    19    20    1
    29    20    21    1
    30    11    15    1
    31    15     1    1
    32     9     3   ar
    33    14    10   ar
    34    21    16    1
    35    27    22   ar
@<TRIPOS>MOLECULE
*****
 31 35 0 0 0
SMALL
GASTEIGER

@<TRIPOS>ATOM
      1 N           7.0381   -4.3839   26.6769 N.3     1  UNL1       -0.1471
      2 C           6.5004   -2.9845   26.6264 C.3     1  UNL1        0.1237
      3 C           6.0893   -2.0988   27.7651 C.ar    1  UNL1        0.0126
      4 C           5.6041   -0.7665   27.2756 C.ar    1  UNL1        0.0100
      5 C           5.1439    0.2707   28.2566 C.ar    1  UNL1        0.0575
      6 CL          4.6587    1.6031   27.7671 Cl      1  UNL1       -0.0823
      7 C           5.1689   -0.0243   29.7270 C.ar    1  UNL1        0.0129
      8 C           5.6541   -1.3566   30.2165 C.ar    1  UNL1        0.0182
      9 C           6.1143   -2.3938   29.2356 C.ar    1  UNL1        0.0637
     10 N           6.5566   -3.6474   29.9305 N.ar    1  UNL1       -0.2799
     11 C           7.0831   -4.9155   29.3267 C.ar    1  UNL1        0.1649
     12 N           7.3845   -5.8704   30.4435 N.ar    1  UNL1       -0.1318
     13 N           7.0442   -5.1925   31.7375 N.ar    1  UNL1       -0.1333
     14 C           6.5325   -3.8185   31.4206 C.ar    1  UNL1        0.1465
     15 C           7.2974   -5.2432   27.8787 C.3     1  UNL1        0.1616
     16 C           6.0769   -2.7955   32.4183 C.3     1  UNL1        0.0625
     17 C           4.6688   -2.8263   32.9345 C.3     1  UNL1        0.0291
     18 C           4.2131   -1.8033   33.9322 C.3     1  UNL1        0.0926
     19 N           5.1654   -0.7493   34.4139 N.pl3   1  UNL1       -0.2932
     20 C           6.5735   -0.7184   33.8979 C.3     1  UNL1        0.0926
     21 C           7.0292   -1.7414   32.9001 C.3     1  UNL1        0.0291
     22 C           4.7097    0.2738   35.4118 C.ar    1  UNL1        0.1317
     23 C           5.1308    0.1612   36.8470 C.ar    1  UNL1        0.0343
     24 C           4.6751    1.1843   37.8449 C.ar    1  UNL1        0.0045
     25 C           3.7984    2.3200   37.4074 C.ar    1  UNL1        0.0208
     26 C           3.3772    2.4327   35.9721 C.ar    1  UNL1        0.1003
     27 N           3.8329    1.4095   34.9743 N.ar    1  UNL1       -0.2292
     28 C           7.6796   -5.6284   24.0238 C.3     1  UNL1        0.1960
     29 S           7.3588   -5.0061   25.3504 S.O2    1  UNL1        0.0463
     30 O           8.1913   -6.0463   26.0396 O.2     1  UNL1       -0.1572
     31 O           6.5263   -3.9660   24.6611 O.2     1  UNL1       -0.1572
@<TRIPOS>BOND
     1    28    29    1
     2    29    30    2
     3    29    31    2
     4    29     1    1
     5     1     2    1
     6     2     3    1
     7     3     4   ar
     8     4     5   ar
     9     5     6    1
    10     5     7   ar
    11     7     8   ar
    12     8     9   ar
    13     9    10    1
    14    10    11   ar
    15    11    12   ar
    16    12    13   ar
    17    13    14   ar
    18    14    16    1
    19    16    17    1
    20    17    18    1
    21    18    19    1
    22    19    22    1
    23    22    23   ar
    24    23    24   ar
    25    24    25   ar
    26    25    26   ar
    27    26    27   ar
    28    19    20    1
    29    20    21    1
    30    11    15    1
    31    15     1    1
    32     9     3   ar
    33    14    10   ar
    34    21    16    1
    35    27    22   ar
@<TRIPOS>MOLECULE
*****
 31 35 0 0 0
SMALL
GASTEIGER

@<TRIPOS>ATOM
      1 N           7.6681   -5.2293   28.9200 N.3     1  UNL1       -0.1471
      2 C           8.0905   -5.8989   27.6459 C.3     1  UNL1        0.1237
      3 C           7.8213   -5.4749   26.2325 C.ar    1  UNL1        0.0126
      4 C           8.4258   -6.4321   25.2486 C.ar    1  UNL1        0.0100
      5 C           8.2721   -6.1908   23.7761 C.ar    1  UNL1        0.0575
      6 CL          8.8767   -7.1480   22.7921 Cl      1  UNL1       -0.0823
      7 C           7.5139   -4.9922   23.2877 C.ar    1  UNL1        0.0129
      8 C           6.9094   -4.0350   24.2716 C.ar    1  UNL1        0.0182
      9 C           7.0631   -4.2763   25.7441 C.ar    1  UNL1        0.0637
     10 N           6.3869   -3.2059   26.5484 N.ar    1  UNL1       -0.2799
     11 C           6.3018   -3.0695   28.0397 C.ar    1  UNL1        0.1649
     12 N           5.5174   -1.8287   28.3478 N.ar    1  UNL1       -0.1318
     13 N           5.1177   -1.1981   27.0468 N.ar    1  UNL1       -0.1333
     14 C           5.6550   -2.0492   25.9347 C.ar    1  UNL1        0.1465
     15 C           6.8720   -3.9701   29.0952 C.3     1  UNL1        0.1616
     16 C           5.4896   -1.7893   24.4668 C.3     1  UNL1        0.0625
     17 C           4.3020   -2.3425   23.7362 C.3     1  UNL1        0.0291
     18 C           4.1366   -2.0827   22.2683 C.3     1  UNL1        0.0926
     19 N           5.1587   -1.2695   21.5307 N.pl3   1  UNL1       -0.2932
     20 C           6.3463   -0.7162   22.2611 C.3     1  UNL1        0.0926
     21 C           6.5118   -0.9761   23.7291 C.3     1  UNL1        0.0291
     22 C           4.9933   -1.0096   20.0626 C.ar    1  UNL1        0.1317
     23 C           3.6264   -0.7720   19.4924 C.ar    1  UNL1        0.0343
     24 C           3.4610   -0.5120   18.0243 C.ar    1  UNL1        0.0045
     25 C           4.6624   -0.4898   17.1266 C.ar    1  UNL1        0.0208
     26 C           6.0293   -0.7274   17.6968 C.ar    1  UNL1        0.1003
     27 N           6.1947   -0.9873   19.1649 N.ar    1  UNL1       -0.2292
     28 C           8.5291   -6.5879   31.4522 C.3     1  UNL1        0.1960
     29 S           8.0986   -5.9086   30.1861 S.O2    1  UNL1        0.0463
     30 O           6.9465   -5.2820   30.9140 O.2     1  UNL1       -0.1572
     31 O           9.2507   -6.5353   29.4582 O.2     1  UNL1       -0.1572
@<TRIPOS>BOND
     1    28    29    1
     2    29    30    2
     3    29    31    2
     4    29     1    1
     5     1     2    1
     6     2     3    1
     7     3     4   ar
     8     4     5   ar
     9     5     6    1
    10     5     7   ar
    11     7     8   ar
    12     8     9   ar
    13     9    10    1
    14    10    11   ar
    15    11    12   ar
    16    12    13   ar
    17    13    14   ar
    18    14    16    1
    19    16    17    1
    20    17    18    1
    21    18    19    1
    22    19    22    1
    23    22    23   ar
    24    23    24   ar
    25    24    25   ar
    26    25    26   ar
    27    26    27   ar
    28    19    20    1
    29    20    21    1
    30    11    15    1
    31    15     1    1
    32     9     3   ar
    33    14    10   ar
    34    21    16    1
    35    27    22   ar
@<TRIPOS>MOLECULE
*****
 31 35 0 0 0
SMALL
GASTEIGER

@<TRIPOS>ATOM
      1 N           6.1800   -2.3861   30.3381 N.3     1  UNL1       -0.1471
      2 C           6.0285   -2.3376   28.8465 C.3     1  UNL1        0.1237
      3 C           4.9762   -1.6414   28.0354 C.ar    1  UNL1        0.0126
      4 C           5.1927   -1.8462   26.5653 C.ar    1  UNL1        0.0100
      5 C           4.2483   -1.2312   25.5754 C.ar    1  UNL1        0.0575
      6 CL          4.4648   -1.4360   24.1052 Cl      1  UNL1       -0.0823
      7 C           3.0876   -0.4115   26.0555 C.ar    1  UNL1        0.0129
      8 C           2.8711   -0.2066   27.5256 C.ar    1  UNL1        0.0182
      9 C           3.8155   -0.8216   28.5155 C.ar    1  UNL1        0.0637
     10 N           3.4203   -0.4956   29.9254 N.ar    1  UNL1       -0.2799
     11 C           4.0883   -0.9089   31.2033 C.ar    1  UNL1        0.1649
     12 N           3.3074   -0.3266   32.3439 N.ar    1  UNL1       -0.1318
     13 N           2.1568    0.4465   31.7710 N.ar    1  UNL1       -0.1333
     14 C           2.2265    0.3421   30.2763 C.ar    1  UNL1        0.1465
     15 C           5.3165   -1.7503   31.3869 C.3     1  UNL1        0.1616
     16 C           1.2704    0.9658   29.3033 C.3     1  UNL1        0.0625
     17 C           0.0287    0.2298   28.8953 C.3     1  UNL1        0.0291
     18 C          -0.9274    0.8535   27.9224 C.3     1  UNL1        0.0926
     19 N          -0.6419    2.2133   27.3573 N.pl3   1  UNL1       -0.2932
     20 C           0.5998    2.9494   27.7652 C.3     1  UNL1        0.0926
     21 C           1.5560    2.3257   28.7382 C.3     1  UNL1        0.0291
     22 C          -1.5980    2.8371   26.3842 C.ar    1  UNL1        0.1317
     23 C          -1.2204    2.9636   24.9381 C.ar    1  UNL1        0.0343
     24 C          -2.1765    3.5874   23.9650 C.ar    1  UNL1        0.0045
     25 C          -3.5102    4.0846   24.4382 C.ar    1  UNL1        0.0208
     26 C          -3.8879    3.9581   25.8844 C.ar    1  UNL1        0.1003
     27 N          -2.9317    3.3343   26.8574 N.ar    1  UNL1       -0.2292
     28 C           8.5191   -3.9632   31.3583 C.3     1  UNL1        0.1960
     29 S           7.3496   -3.1747   30.8482 S.O2    1  UNL1        0.0463
     30 O           6.6844   -3.2949   32.1872 O.2     1  UNL1       -0.1572
     31 O           8.0147   -3.0545   29.5091 O.2     1  UNL1       -0.1572
@<TRIPOS>BOND
     1    28    29    1
     2    29    30    2
     3    29    31    2
     4    29     1    1
     5     1     2    1
     6     2     3    1
     7     3     4   ar
     8     4     5   ar
     9     5     6    1
    10     5     7   ar
    11     7     8   ar
    12     8     9   ar
    13     9    10    1
    14    10    11   ar
    15    11    12   ar
    16    12    13   ar
    17    13    14   ar
    18    14    16    1
    19    16    17    1
    20    17    18    1
    21    18    19    1
    22    19    22    1
    23    22    23   ar
    24    23    24   ar
    25    24    25   ar
    26    25    26   ar
    27    26    27   ar
    28    19    20    1
    29    20    21    1
    30    11    15    1
    31    15     1    1
    32     9     3   ar
    33    14    10   ar
    34    21    16    1
    35    27    22   ar
