@<TRIPOS>MOLECULE
*****
 32 36 0 0 0
SMALL
GASTEIGER

@<TRIPOS>ATOM
      1 O          -3.5626  -18.3849   23.8616 O.2     1  UNL1       -0.2745
      2 C          -4.7311  -17.6049   23.3362 C.2     1  UNL1        0.2301
      3 N          -5.6911  -18.2460   22.3783 N.am    1  UNL1       -0.2793
      4 C          -5.4825  -19.6671   21.9460 C.3     1  UNL1        0.0935
      5 C          -6.4425  -20.3082   20.9881 C.3     1  UNL1        0.0240
      6 C          -7.6111  -19.5282   20.4628 C.3     1  UNL1        0.0304
      7 C          -7.8197  -18.1071   20.8952 C.3     1  UNL1        0.0240
      8 C          -6.8597  -17.4660   21.8530 C.3     1  UNL1        0.0935
      9 C          -8.5711  -20.1692   19.5050 C.3     1  UNL1        0.1128
     10 O          -8.0551  -20.8806   18.2894 O.3     1  UNL1       -0.3844
     11 H          -8.8014  -21.2349   17.7809 H       1  UNL1        0.2103
     12 C         -10.0472  -20.0989   19.7627 C.3     1  UNL1        0.0564
     13 C         -10.5770  -19.2136   20.8516 C.3     1  UNL1        0.1119
     14 C         -10.4263  -19.4433   22.3262 C.ar    1  UNL1       -0.0002
     15 C          -9.7575  -20.5342   23.1089 C.ar    1  UNL1       -0.0024
     16 C          -9.7691  -20.4966   24.6084 C.ar    1  UNL1       -0.0003
     17 C         -10.4494  -19.3682   25.3251 C.ar    1  UNL1        0.0000
     18 C         -11.1183  -18.2773   24.5424 C.ar    1  UNL1        0.0012
     19 C         -11.1067  -18.3149   23.0430 C.ar    1  UNL1        0.0152
     20 C         -11.6779  -17.3878   22.0113 C.ar    1  UNL1        0.0804
     21 C         -12.4514  -16.1174   21.8167 C.ar    1  UNL1        0.1177
     22 N         -12.6020  -15.8878   20.3420 N.ar    1  UNL1       -0.2223
     23 C         -11.9216  -17.0162   19.6253 C.ar    1  UNL1        0.1788
     24 N         -11.3505  -17.9432   20.6569 N.ar    1  UNL1       -0.3069
     25 C          -4.9397  -16.1838   23.7686 C.3     1  UNL1        0.1116
     26 C          -5.9456  -15.8641   24.8344 C.ar    1  UNL1       -0.0129
     27 C          -5.4980  -15.6618   26.2517 C.ar    1  UNL1       -0.0015
     28 C          -6.5039  -15.3421   27.3175 C.ar    1  UNL1        0.0293
     29 C          -7.9574  -15.2247   26.9660 C.ar    1  UNL1        0.1401
     30 F          -8.9634  -14.9050   28.0317 F       1  UNL1       -0.2042
     31 C          -8.4051  -15.4269   25.5486 C.ar    1  UNL1        0.0293
     32 C          -7.3991  -15.7467   24.4829 C.ar    1  UNL1       -0.0015
@<TRIPOS>BOND
     1     1     2    2
     2     2    25    1
     3    25    26    1
     4    26    27   ar
     5    27    28   ar
     6    28    29   ar
     7    29    30    1
     8    29    31   ar
     9    31    32   ar
    10     2     3   am
    11     3     4    1
    12     4     5    1
    13     5     6    1
    14     6     9    1
    15     9    10    1
    16     9    12    1
    17    12    13    1
    18    13    14    1
    19    14    15   ar
    20    15    16   ar
    21    16    17   ar
    22    17    18   ar
    23    18    19   ar
    24    19    20    1
    25    20    21   ar
    26    21    22   ar
    27    22    23   ar
    28    23    24   ar
    29     6     7    1
    30     7     8    1
    31    32    26   ar
    32     8     3    1
    33    24    13    1
    34    19    14   ar
    35    24    20   ar
    36    10    11    1
@<TRIPOS>MOLECULE
*****
 32 36 0 0 0
SMALL
GASTEIGER

@<TRIPOS>ATOM
      1 O           5.2042   -0.4009   27.9808 O.2     1  UNL1       -0.2745
      2 C           4.3502   -0.0898   26.7876 C.2     1  UNL1        0.2301
      3 N           4.4700   -0.9187   25.5431 N.am    1  UNL1       -0.2793
      4 C           5.4437   -2.0584   25.4919 C.3     1  UNL1        0.0935
      5 C           5.5635   -2.8872   24.2474 C.3     1  UNL1        0.0240
      6 C           4.7095   -2.5761   23.0541 C.3     1  UNL1        0.0304
      7 C           3.7358   -1.4364   23.1052 C.3     1  UNL1        0.0240
      8 C           3.6160   -0.6076   24.3498 C.3     1  UNL1        0.0935
      9 C           4.8292   -3.4049   21.8096 C.3     1  UNL1        0.1128
     10 O           5.9765   -4.3580   21.6507 O.3     1  UNL1       -0.3844
     11 H           5.9043   -4.8114   20.7962 H       1  UNL1        0.2103
     12 C           3.8016   -3.2805   20.7239 C.3     1  UNL1        0.0564
     13 C           3.8387   -2.1100   19.7866 C.3     1  UNL1        0.1119
     14 C           2.7688   -1.0701   19.6320 C.ar    1  UNL1       -0.0002
     15 C           1.4411   -0.8881   20.3059 C.ar    1  UNL1       -0.0024
     16 C           0.5658    0.2728   19.9371 C.ar    1  UNL1       -0.0003
     17 C           1.0180    1.2516   18.8944 C.ar    1  UNL1        0.0000
     18 C           2.3457    1.0697   18.2205 C.ar    1  UNL1        0.0012
     19 C           3.2211   -0.0912   18.5893 C.ar    1  UNL1        0.0152
     20 C           4.5705   -0.5261   18.0995 C.ar    1  UNL1        0.0804
     21 C           5.6841   -0.1899   17.1524 C.ar    1  UNL1        0.1177
     22 N           6.7540   -1.2298   17.3071 N.ar    1  UNL1       -0.2223
     23 C           6.3017   -2.2087   18.3498 C.ar    1  UNL1        0.1788
     24 N           4.9523   -1.7738   18.8395 N.ar    1  UNL1       -0.3069
     25 C           3.3765    1.0500   26.8388 C.3     1  UNL1        0.1116
     26 C           1.9920    0.8303   27.3728 C.ar    1  UNL1       -0.0129
     27 C           1.7840   -0.0226   28.5890 C.ar    1  UNL1       -0.0015
     28 C           0.3996   -0.2424   29.1231 C.ar    1  UNL1        0.0293
     29 C          -0.7767    0.3909   28.4409 C.ar    1  UNL1        0.1401
     30 F          -2.1611    0.1712   28.9749 F       1  UNL1       -0.2042
     31 C          -0.5686    1.2439   27.2246 C.ar    1  UNL1        0.0293
     32 C           0.8158    1.4636   26.6906 C.ar    1  UNL1       -0.0015
@<TRIPOS>BOND
     1     1     2    2
     2     2    25    1
     3    25    26    1
     4    26    27   ar
     5    27    28   ar
     6    28    29   ar
     7    29    30    1
     8    29    31   ar
     9    31    32   ar
    10     2     3   am
    11     3     4    1
    12     4     5    1
    13     5     6    1
    14     6     9    1
    15     9    10    1
    16     9    12    1
    17    12    13    1
    18    13    14    1
    19    14    15   ar
    20    15    16   ar
    21    16    17   ar
    22    17    18   ar
    23    18    19   ar
    24    19    20    1
    25    20    21   ar
    26    21    22   ar
    27    22    23   ar
    28    23    24   ar
    29     6     7    1
    30     7     8    1
    31    32    26   ar
    32     8     3    1
    33    24    13    1
    34    19    14   ar
    35    24    20   ar
    36    10    11    1
@<TRIPOS>MOLECULE
*****
 32 36 0 0 0
SMALL
GASTEIGER

@<TRIPOS>ATOM
      1 O           4.6451   -0.9258   27.1591 O.2     1  UNL1       -0.2745
      2 C           5.7255   -1.7516   26.5262 C.2     1  UNL1        0.2301
      3 N           5.5653   -2.2446   25.1186 N.am    1  UNL1       -0.2793
      4 C           4.3247   -1.9117   24.3440 C.3     1  UNL1        0.0935
      5 C           4.1645   -2.4047   22.9364 C.3     1  UNL1        0.0240
      6 C           5.2450   -3.2305   22.3035 C.3     1  UNL1        0.0304
      7 C           6.4856   -3.5634   23.0781 C.3     1  UNL1        0.0240
      8 C           6.6457   -3.0704   24.4857 C.3     1  UNL1        0.0935
      9 C           5.0848   -3.7235   20.8959 C.3     1  UNL1        0.1128
     10 O           6.1211   -4.6263   20.2949 O.3     1  UNL1       -0.3844
     11 H           5.8670   -4.8502   19.3860 H       1  UNL1        0.2103
     12 C           3.8884   -3.3137   20.0892 C.3     1  UNL1        0.0564
     13 C           3.8803   -1.9934   19.3773 C.3     1  UNL1        0.1119
     14 C           2.7873   -0.9677   19.4344 C.ar    1  UNL1       -0.0002
     15 C           1.4733   -0.9403   20.1574 C.ar    1  UNL1       -0.0024
     16 C           0.5673    0.2474   20.0216 C.ar    1  UNL1       -0.0003
     17 C           0.9752    1.4077   19.1629 C.ar    1  UNL1        0.0000
     18 C           2.2892    1.3803   18.4400 C.ar    1  UNL1        0.0012
     19 C           3.1952    0.1926   18.5757 C.ar    1  UNL1        0.0152
     20 C           4.5403   -0.1161   17.9879 C.ar    1  UNL1        0.0804
     21 C           5.6237    0.4102   17.0938 C.ar    1  UNL1        0.1177
     22 N           6.7167   -0.6156   17.0368 N.ar    1  UNL1       -0.2223
     23 C           6.3087   -1.7758   17.8955 C.ar    1  UNL1        0.1788
     24 N           4.9637   -1.4671   18.4833 N.ar    1  UNL1       -0.3069
     25 C           6.9661   -2.0845   27.3009 C.3     1  UNL1        0.1116
     26 C           6.9104   -3.0950   28.4080 C.ar    1  UNL1       -0.0129
     27 C           7.0063   -4.5584   28.0931 C.ar    1  UNL1       -0.0015
     28 C           6.9506   -5.5691   29.2002 C.ar    1  UNL1        0.0293
     29 C           6.7992   -5.1162   30.6221 C.ar    1  UNL1        0.1401
     30 F           6.7435   -6.1267   31.7293 F       1  UNL1       -0.2042
     31 C           6.7033   -3.6527   30.9371 C.ar    1  UNL1        0.0293
     32 C           6.7590   -2.6421   29.8299 C.ar    1  UNL1       -0.0015
@<TRIPOS>BOND
     1     1     2    2
     2     2    25    1
     3    25    26    1
     4    26    27   ar
     5    27    28   ar
     6    28    29   ar
     7    29    30    1
     8    29    31   ar
     9    31    32   ar
    10     2     3   am
    11     3     4    1
    12     4     5    1
    13     5     6    1
    14     6     9    1
    15     9    10    1
    16     9    12    1
    17    12    13    1
    18    13    14    1
    19    14    15   ar
    20    15    16   ar
    21    16    17   ar
    22    17    18   ar
    23    18    19   ar
    24    19    20    1
    25    20    21   ar
    26    21    22   ar
    27    22    23   ar
    28    23    24   ar
    29     6     7    1
    30     7     8    1
    31    32    26   ar
    32     8     3    1
    33    24    13    1
    34    19    14   ar
    35    24    20   ar
    36    10    11    1
@<TRIPOS>MOLECULE
*****
 32 36 0 0 0
SMALL
GASTEIGER

@<TRIPOS>ATOM
      1 O          -2.2157  -19.9922   21.7350 O.2     1  UNL1       -0.2745
      2 C          -3.2933  -18.9502   21.6799 C.2     1  UNL1        0.2301
      3 N          -4.6425  -19.2954   21.1224 N.am    1  UNL1       -0.2793
      4 C          -4.9139  -20.6825   20.6201 C.3     1  UNL1        0.0935
      5 C          -6.2630  -21.0275   20.0626 C.3     1  UNL1        0.0240
      6 C          -7.3406  -19.9856   20.0075 C.3     1  UNL1        0.0304
      7 C          -7.0692  -18.5985   20.5098 C.3     1  UNL1        0.0240
      8 C          -5.7201  -18.2534   21.0673 C.3     1  UNL1        0.0935
      9 C          -8.6898  -20.3307   19.4500 C.3     1  UNL1        0.1128
     10 O          -8.8945  -20.3918   17.9653 O.3     1  UNL1       -0.3844
     11 H          -9.8164  -20.6264   17.7755 H       1  UNL1        0.2103
     12 C          -9.8342  -20.6147   20.3773 C.3     1  UNL1        0.0564
     13 C         -10.2226  -19.6082   21.4195 C.3     1  UNL1        0.1119
     14 C         -10.8758  -18.2822   21.1644 C.ar    1  UNL1       -0.0002
     15 C         -11.3088  -17.6036   19.8988 C.ar    1  UNL1       -0.0024
     16 C         -11.9489  -16.2482   19.9557 C.ar    1  UNL1       -0.0003
     17 C         -12.1559  -15.5715   21.2782 C.ar    1  UNL1        0.0000
     18 C         -11.7229  -16.2501   22.5439 C.ar    1  UNL1        0.0012
     19 C         -11.0829  -17.6055   22.4870 C.ar    1  UNL1        0.0152
     20 C         -10.5576  -18.5133   23.5594 C.ar    1  UNL1        0.0804
     21 C         -10.3610  -18.6560   25.0397 C.ar    1  UNL1        0.1177
     22 N          -9.7077  -19.9821   25.2947 N.ar    1  UNL1       -0.2223
     23 C          -9.5007  -20.6588   23.9721 C.ar    1  UNL1        0.1788
     24 N         -10.0259  -19.7510   22.8997 N.ar    1  UNL1       -0.3069
     25 C          -3.0218  -17.5632   22.1822 C.3     1  UNL1        0.1116
     26 C          -3.7407  -17.0505   23.3948 C.ar    1  UNL1       -0.0129
     27 C          -4.6437  -15.8581   23.2830 C.ar    1  UNL1       -0.0015
     28 C          -5.3627  -15.3454   24.4956 C.ar    1  UNL1        0.0293
     29 C          -5.1785  -16.0252   25.8199 C.ar    1  UNL1        0.1401
     30 F          -5.8974  -15.5125   27.0325 F       1  UNL1       -0.2042
     31 C          -4.2754  -17.2177   25.9318 C.ar    1  UNL1        0.0293
     32 C          -3.5566  -17.7303   24.7192 C.ar    1  UNL1       -0.0015
@<TRIPOS>BOND
     1     1     2    2
     2     2    25    1
     3    25    26    1
     4    26    27   ar
     5    27    28   ar
     6    28    29   ar
     7    29    30    1
     8    29    31   ar
     9    31    32   ar
    10     2     3   am
    11     3     4    1
    12     4     5    1
    13     5     6    1
    14     6     9    1
    15     9    10    1
    16     9    12    1
    17    12    13    1
    18    13    14    1
    19    14    15   ar
    20    15    16   ar
    21    16    17   ar
    22    17    18   ar
    23    18    19   ar
    24    19    20    1
    25    20    21   ar
    26    21    22   ar
    27    22    23   ar
    28    23    24   ar
    29     6     7    1
    30     7     8    1
    31    32    26   ar
    32     8     3    1
    33    24    13    1
    34    19    14   ar
    35    24    20   ar
    36    10    11    1
@<TRIPOS>MOLECULE
*****
 32 36 0 0 0
SMALL
GASTEIGER

@<TRIPOS>ATOM
      1 O           1.6922    0.9533   21.1617 O.2     1  UNL1       -0.2745
      2 C           2.9835    0.1933   21.2324 C.2     1  UNL1        0.2301
      3 N           3.4799   -0.3207   22.5513 N.am    1  UNL1       -0.2793
      4 C           2.6851   -0.0748   23.7993 C.3     1  UNL1        0.0935
      5 C           3.1816   -0.5889   25.1181 C.3     1  UNL1        0.0240
      6 C           4.4729   -1.3488   25.1888 C.3     1  UNL1        0.0304
      7 C           5.2678   -1.5947   23.9408 C.3     1  UNL1        0.0240
      8 C           4.7712   -1.0806   22.6220 C.3     1  UNL1        0.0935
      9 C           4.9694   -1.8629   26.5076 C.3     1  UNL1        0.1128
     10 O           4.0210   -2.0101   27.6604 O.3     1  UNL1       -0.3844
     11 H           4.5000   -2.3519   28.4315 H       1  UNL1        0.2103
     12 C           6.4144   -2.2297   26.6737 C.3     1  UNL1        0.0564
     13 C           6.7902   -3.6049   27.1403 C.3     1  UNL1        0.1119
     14 C           7.1912   -4.7544   26.2640 C.ar    1  UNL1       -0.0002
     15 C           7.3308   -4.8810   24.7759 C.ar    1  UNL1       -0.0024
     16 C           7.7590   -6.1851   24.1711 C.ar    1  UNL1       -0.0003
     17 C           8.0476   -7.3626   25.0544 C.ar    1  UNL1        0.0000
     18 C           7.9081   -7.2360   26.5424 C.ar    1  UNL1        0.0012
     19 C           7.4798   -5.9319   27.1473 C.ar    1  UNL1        0.0152
     20 C           7.2573   -5.5101   28.5694 C.ar    1  UNL1        0.0804
     21 C           7.2981   -5.9772   29.9943 C.ar    1  UNL1        0.1177
     22 N           6.8971   -4.8277   30.8706 N.ar    1  UNL1       -0.2223
     23 C           6.6085   -3.6502   29.9873 C.ar    1  UNL1        0.1788
     24 N           6.8310   -4.0719   28.5652 N.ar    1  UNL1       -0.3069
     25 C           3.7783   -0.0525   19.9843 C.3     1  UNL1        0.1116
     26 C           4.0756   -1.4568   19.5489 C.ar    1  UNL1       -0.0129
     27 C           3.0260   -2.5204   19.6789 C.ar    1  UNL1       -0.0015
     28 C           3.3232   -3.9247   19.2435 C.ar    1  UNL1        0.0293
     29 C           4.6701   -4.2654   18.6781 C.ar    1  UNL1        0.1401
     30 F           4.9675   -5.6697   18.2427 F       1  UNL1       -0.2042
     31 C           5.7199   -3.2017   18.5481 C.ar    1  UNL1        0.0293
     32 C           5.4226   -1.7974   18.9835 C.ar    1  UNL1       -0.0015
@<TRIPOS>BOND
     1     1     2    2
     2     2    25    1
     3    25    26    1
     4    26    27   ar
     5    27    28   ar
     6    28    29   ar
     7    29    30    1
     8    29    31   ar
     9    31    32   ar
    10     2     3   am
    11     3     4    1
    12     4     5    1
    13     5     6    1
    14     6     9    1
    15     9    10    1
    16     9    12    1
    17    12    13    1
    18    13    14    1
    19    14    15   ar
    20    15    16   ar
    21    16    17   ar
    22    17    18   ar
    23    18    19   ar
    24    19    20    1
    25    20    21   ar
    26    21    22   ar
    27    22    23   ar
    28    23    24   ar
    29     6     7    1
    30     7     8    1
    31    32    26   ar
    32     8     3    1
    33    24    13    1
    34    19    14   ar
    35    24    20   ar
    36    10    11    1
@<TRIPOS>MOLECULE
*****
 32 36 0 0 0
SMALL
GASTEIGER

@<TRIPOS>ATOM
      1 O           3.2817   -1.3486   22.5869 O.2     1  UNL1       -0.2745
      2 C           2.9892   -1.3155   21.1161 C.2     1  UNL1        0.2301
      3 N           2.1559   -0.2082   20.5419 N.am    1  UNL1       -0.2793
      4 C           1.6152    0.8658   21.4385 C.3     1  UNL1        0.0935
      5 C           0.7819    1.9730   20.8642 C.3     1  UNL1        0.0240
      6 C           0.4894    2.0061   19.3934 C.3     1  UNL1        0.0304
      7 C           1.0301    0.9320   18.4968 C.3     1  UNL1        0.0240
      8 C           1.8634   -0.1752   19.0711 C.3     1  UNL1        0.0935
      9 C          -0.3439    3.1133   18.8191 C.3     1  UNL1        0.1128
     10 O          -0.5141    3.2307   17.3335 O.3     1  UNL1       -0.3844
     11 H          -1.0775    3.9941   17.1319 H       1  UNL1        0.2103
     12 C          -1.0070    4.1031   19.7306 C.3     1  UNL1        0.0564
     13 C          -2.4119    3.8664   20.1999 C.3     1  UNL1        0.1119
     14 C          -2.8483    3.6945   21.6246 C.ar    1  UNL1       -0.0002
     15 C          -2.0855    3.7041   22.9161 C.ar    1  UNL1       -0.0024
     16 C          -2.8076    3.5011   24.2151 C.ar    1  UNL1       -0.0003
     17 C          -4.2924    3.2885   24.2226 C.ar    1  UNL1        0.0000
     18 C          -5.0552    3.2790   22.9311 C.ar    1  UNL1        0.0012
     19 C          -4.3332    3.4820   21.6321 C.ar    1  UNL1        0.0152
     20 C          -4.8144    3.5225   20.2120 C.ar    1  UNL1        0.0804
     21 C          -6.0295    3.4162   19.3389 C.ar    1  UNL1        0.1177
     22 N          -5.5930    3.5881   17.9141 N.ar    1  UNL1       -0.2223
     23 C          -4.1081    3.8007   17.9066 C.ar    1  UNL1        0.1788
     24 N          -3.6269    3.7601   19.3268 N.ar    1  UNL1       -0.3069
     25 C           3.5300   -2.3896   20.2196 C.3     1  UNL1        0.1116
     26 C           4.9859   -2.4028   19.8587 C.ar    1  UNL1       -0.0129
     27 C           5.4093   -2.1576   18.4408 C.ar    1  UNL1       -0.0015
     28 C           6.8652   -2.1707   18.0798 C.ar    1  UNL1        0.0293
     29 C           7.8976   -2.4292   19.1369 C.ar    1  UNL1        0.1401
     30 F           9.3535   -2.4424   18.7760 F       1  UNL1       -0.2042
     31 C           7.4742   -2.6744   20.5549 C.ar    1  UNL1        0.0293
     32 C           6.0183   -2.6612   20.9158 C.ar    1  UNL1       -0.0015
@<TRIPOS>BOND
     1     1     2    2
     2     2    25    1
     3    25    26    1
     4    26    27   ar
     5    27    28   ar
     6    28    29   ar
     7    29    30    1
     8    29    31   ar
     9    31    32   ar
    10     2     3   am
    11     3     4    1
    12     4     5    1
    13     5     6    1
    14     6     9    1
    15     9    10    1
    16     9    12    1
    17    12    13    1
    18    13    14    1
    19    14    15   ar
    20    15    16   ar
    21    16    17   ar
    22    17    18   ar
    23    18    19   ar
    24    19    20    1
    25    20    21   ar
    26    21    22   ar
    27    22    23   ar
    28    23    24   ar
    29     6     7    1
    30     7     8    1
    31    32    26   ar
    32     8     3    1
    33    24    13    1
    34    19    14   ar
    35    24    20   ar
    36    10    11    1
@<TRIPOS>MOLECULE
*****
 32 36 0 0 0
SMALL
GASTEIGER

@<TRIPOS>ATOM
      1 O           6.5757   -0.9361   19.7128 O.2     1  UNL1       -0.2745
      2 C           5.3208   -1.4035   20.3888 C.2     1  UNL1        0.2301
      3 N           5.2872   -1.5635   21.8799 N.am    1  UNL1       -0.2793
      4 C           6.5083   -1.2563   22.6949 C.3     1  UNL1        0.0935
      5 C           6.4746   -1.4163   24.1859 C.3     1  UNL1        0.0240
      6 C           5.2198   -1.8837   24.8619 C.3     1  UNL1        0.0304
      7 C           3.9986   -2.1910   24.0469 C.3     1  UNL1        0.0240
      8 C           4.0323   -2.0309   22.5558 C.3     1  UNL1        0.0935
      9 C           5.1860   -2.0438   26.3530 C.3     1  UNL1        0.1128
     10 O           3.8778   -1.9837   27.0843 O.3     1  UNL1       -0.3844
     11 H           4.0326   -2.1046   28.0342 H       1  UNL1        0.2103
     12 C           6.4606   -2.2639   27.1127 C.3     1  UNL1        0.0564
     13 C           6.7969   -3.6298   27.6334 C.3     1  UNL1        0.1119
     14 C           7.1643   -4.8240   26.8034 C.ar    1  UNL1       -0.0002
     15 C           7.2995   -5.0132   25.3216 C.ar    1  UNL1       -0.0024
     16 C           7.6898   -6.3519   24.7689 C.ar    1  UNL1       -0.0003
     17 C           7.9448   -7.5015   25.6981 C.ar    1  UNL1        0.0000
     18 C           7.8096   -7.3123   27.1800 C.ar    1  UNL1        0.0012
     19 C           7.4194   -5.9736   27.7326 C.ar    1  UNL1        0.0152
     20 C           7.2096   -5.4899   29.1369 C.ar    1  UNL1        0.0804
     21 C           7.2376   -5.9014   30.5791 C.ar    1  UNL1        0.1177
     22 N           6.8702   -4.7072   31.4091 N.ar    1  UNL1       -0.2223
     23 C           6.6152   -3.5576   30.4799 C.ar    1  UNL1        0.1788
     24 N           6.8249   -4.0413   29.0756 N.ar    1  UNL1       -0.3069
     25 C           4.0997   -1.7107   19.5737 C.3     1  UNL1        0.1116
     26 C           3.0231   -0.6781   19.4171 C.ar    1  UNL1       -0.0129
     27 C           1.7099   -0.8511   20.1209 C.ar    1  UNL1       -0.0015
     28 C           0.6332    0.1815   19.9643 C.ar    1  UNL1        0.0293
     29 C           0.8699    1.3872   19.1039 C.ar    1  UNL1        0.1401
     30 F          -0.2067    2.4199   18.9473 F       1  UNL1       -0.2042
     31 C           2.1832    1.5603   18.4001 C.ar    1  UNL1        0.0293
     32 C           3.2598    0.5276   18.5567 C.ar    1  UNL1       -0.0015
@<TRIPOS>BOND
     1     1     2    2
     2     2    25    1
     3    25    26    1
     4    26    27   ar
     5    27    28   ar
     6    28    29   ar
     7    29    30    1
     8    29    31   ar
     9    31    32   ar
    10     2     3   am
    11     3     4    1
    12     4     5    1
    13     5     6    1
    14     6     9    1
    15     9    10    1
    16     9    12    1
    17    12    13    1
    18    13    14    1
    19    14    15   ar
    20    15    16   ar
    21    16    17   ar
    22    17    18   ar
    23    18    19   ar
    24    19    20    1
    25    20    21   ar
    26    21    22   ar
    27    22    23   ar
    28    23    24   ar
    29     6     7    1
    30     7     8    1
    31    32    26   ar
    32     8     3    1
    33    24    13    1
    34    19    14   ar
    35    24    20   ar
    36    10    11    1
@<TRIPOS>MOLECULE
*****
 32 36 0 0 0
SMALL
GASTEIGER

@<TRIPOS>ATOM
      1 O           6.8912    1.5491   34.1043 O.2     1  UNL1       -0.2745
      2 C           5.8000    0.5700   33.7872 C.2     1  UNL1        0.2301
      3 N           6.1438   -0.7900   33.2559 N.am    1  UNL1       -0.2793
      4 C           7.5787   -1.1707   33.0416 C.3     1  UNL1        0.0935
      5 C           7.9225   -2.5307   32.5102 C.3     1  UNL1        0.0240
      6 C           6.8313   -3.5099   32.1932 C.3     1  UNL1        0.0304
      7 C           5.3963   -3.1291   32.4075 C.3     1  UNL1        0.0240
      8 C           5.0526   -1.7692   32.9388 C.3     1  UNL1        0.0935
      9 C           7.1750   -4.8698   31.6618 C.3     1  UNL1        0.1128
     10 O           6.4898   -6.0853   32.2123 O.3     1  UNL1       -0.3844
     11 H           6.8253   -6.8769   31.7631 H       1  UNL1        0.2103
     12 C           8.2040   -5.0143   30.5799 C.3     1  UNL1        0.0564
     13 C           7.7969   -4.9150   29.1396 C.3     1  UNL1        0.1119
     14 C           7.8837   -6.0129   28.1212 C.ar    1  UNL1       -0.0002
     15 C           8.3626   -7.4314   28.2130 C.ar    1  UNL1       -0.0024
     16 C           8.3298   -8.3140   27.0005 C.ar    1  UNL1       -0.0003
     17 C           7.8181   -7.7780   25.6964 C.ar    1  UNL1        0.0000
     18 C           7.3392   -6.3595   25.6046 C.ar    1  UNL1        0.0012
     19 C           7.3720   -5.4769   26.8170 C.ar    1  UNL1        0.0152
     20 C           6.9690   -4.0478   27.0294 C.ar    1  UNL1        0.0804
     21 C           6.4036   -2.8332   26.3546 C.ar    1  UNL1        0.1177
     22 N           6.3168   -1.7354   27.3731 N.ar    1  UNL1       -0.2223
     23 C           6.8285   -2.2714   28.6773 C.ar    1  UNL1        0.1788
     24 N           7.2316   -3.7005   28.4649 N.ar    1  UNL1       -0.3069
     25 C           4.3650    0.9508   34.0016 C.3     1  UNL1        0.1116
     26 C           3.8955    1.3693   35.3633 C.ar    1  UNL1       -0.0129
     27 C           2.9711    2.5413   35.5104 C.ar    1  UNL1       -0.0015
     28 C           2.5015    2.9599   36.8722 C.ar    1  UNL1        0.0293
     29 C           2.9564    2.2063   38.0868 C.ar    1  UNL1        0.1401
     30 F           2.4868    2.6248   39.4485 F       1  UNL1       -0.2042
     31 C           3.8809    1.0342   37.9397 C.ar    1  UNL1        0.0293
     32 C           4.3504    0.6157   36.5779 C.ar    1  UNL1       -0.0015
@<TRIPOS>BOND
     1     1     2    2
     2     2    25    1
     3    25    26    1
     4    26    27   ar
     5    27    28   ar
     6    28    29   ar
     7    29    30    1
     8    29    31   ar
     9    31    32   ar
    10     2     3   am
    11     3     4    1
    12     4     5    1
    13     5     6    1
    14     6     9    1
    15     9    10    1
    16     9    12    1
    17    12    13    1
    18    13    14    1
    19    14    15   ar
    20    15    16   ar
    21    16    17   ar
    22    17    18   ar
    23    18    19   ar
    24    19    20    1
    25    20    21   ar
    26    21    22   ar
    27    22    23   ar
    28    23    24   ar
    29     6     7    1
    30     7     8    1
    31    32    26   ar
    32     8     3    1
    33    24    13    1
    34    19    14   ar
    35    24    20   ar
    36    10    11    1
@<TRIPOS>MOLECULE
*****
 32 36 0 0 0
SMALL
GASTEIGER

@<TRIPOS>ATOM
      1 O          -1.1516    4.1201   25.1840 O.2     1  UNL1       -0.2745
      2 C          -1.5703    4.2122   23.7466 C.2     1  UNL1        0.2301
      3 N          -0.9886    3.2704   22.7343 N.am    1  UNL1       -0.2793
      4 C           0.0117    2.2367   23.1594 C.3     1  UNL1        0.0935
      5 C           0.5933    1.2950   22.1471 C.3     1  UNL1        0.0240
      6 C           0.1747    1.3871   20.7096 C.3     1  UNL1        0.0304
      7 C          -0.8256    2.4208   20.2845 C.3     1  UNL1        0.0240
      8 C          -1.4072    3.3625   21.2968 C.3     1  UNL1        0.0935
      9 C           0.7563    0.4454   19.6973 C.3     1  UNL1        0.1128
     10 O           0.7654    0.8182   18.2444 O.3     1  UNL1       -0.3844
     11 H           1.1737    0.1044   17.7299 H       1  UNL1        0.2103
     12 C           1.3289   -0.8693   20.1378 C.3     1  UNL1        0.0564
     13 C           2.8159   -1.0551   20.2045 C.3     1  UNL1        0.1119
     14 C           3.6279   -1.2259   21.4540 C.ar    1  UNL1       -0.0002
     15 C           3.2438   -1.2618   22.9035 C.ar    1  UNL1       -0.0024
     16 C           4.2976   -1.4509   23.9541 C.ar    1  UNL1       -0.0003
     17 C           5.7355   -1.6041   23.5552 C.ar    1  UNL1        0.0000
     18 C           6.1195   -1.5681   22.1057 C.ar    1  UNL1        0.0012
     19 C           5.0658   -1.3791   21.0551 C.ar    1  UNL1        0.0152
     20 C           5.1423   -1.3029   19.5590 C.ar    1  UNL1        0.0804
     21 C           6.0784   -1.3504   18.3878 C.ar    1  UNL1        0.1177
     22 N           5.2663   -1.1795   17.1382 N.ar    1  UNL1       -0.2223
     23 C           3.8284   -1.0264   17.5371 C.ar    1  UNL1        0.1788
     24 N           3.7519   -1.1026   19.0332 N.ar    1  UNL1       -0.3069
     25 C          -2.5706    5.2460   23.3215 C.3     1  UNL1        0.1116
     26 C          -4.0373    4.9359   23.3724 C.ar    1  UNL1       -0.0129
     27 C          -4.7242    4.7747   24.6961 C.ar    1  UNL1       -0.0015
     28 C          -6.1910    4.4646   24.7471 C.ar    1  UNL1        0.0293
     29 C          -6.9707    4.3158   23.4743 C.ar    1  UNL1        0.1401
     30 F          -8.4374    4.0058   23.5252 F       1  UNL1       -0.2042
     31 C          -6.2838    4.4770   22.1506 C.ar    1  UNL1        0.0293
     32 C          -4.8170    4.7871   22.0997 C.ar    1  UNL1       -0.0015
@<TRIPOS>BOND
     1     1     2    2
     2     2    25    1
     3    25    26    1
     4    26    27   ar
     5    27    28   ar
     6    28    29   ar
     7    29    30    1
     8    29    31   ar
     9    31    32   ar
    10     2     3   am
    11     3     4    1
    12     4     5    1
    13     5     6    1
    14     6     9    1
    15     9    10    1
    16     9    12    1
    17    12    13    1
    18    13    14    1
    19    14    15   ar
    20    15    16   ar
    21    16    17   ar
    22    17    18   ar
    23    18    19   ar
    24    19    20    1
    25    20    21   ar
    26    21    22   ar
    27    22    23   ar
    28    23    24   ar
    29     6     7    1
    30     7     8    1
    31    32    26   ar
    32     8     3    1
    33    24    13    1
    34    19    14   ar
    35    24    20   ar
    36    10    11    1
