@<TRIPOS>MOLECULE
*****
 35 38 0 0 0
SMALL
GASTEIGER

@<TRIPOS>ATOM
      1 C           2.1770   -0.2402   19.2705 C.3     1  UNL1        0.1532
      2 N           4.4761    0.8226   18.6919 N.am    1  UNL1       -0.2945
      3 C           3.2797    0.0142   18.2858 C.2     1  UNL1        0.2413
      4 O           3.1858   -0.5399   16.8950 O.2     1  UNL1       -0.2733
      5 H           4.5377    1.1862   19.6047 H       1  UNL1        0.1503
      6 C           5.5787    1.0769   17.7072 C.3     1  UNL1        0.1365
      7 C           6.4823    1.8111   16.7615 C.3     1  UNL1        0.0353
      8 C           5.3886    2.5470   17.4774 C.3     1  UNL1        0.0353
      9 N           6.7246   -1.6865   17.4828 N.1     1  UNL1       -0.1943
     10 C           6.1516   -0.3047   17.5950 C.1     1  UNL1        0.0896
     11 N           0.9046    0.5503   19.1924 N.am    1  UNL1       -0.2932
     12 C           0.7242    1.7677   20.0499 C.2     1  UNL1        0.2673
     13 O           1.8162    2.1946   20.9855 O.2     1  UNL1       -0.2684
     14 H           0.1879    0.2701   18.5783 H       1  UNL1        0.1502
     15 C          -0.5482    2.5582   19.9719 C.ar    1  UNL1        0.1767
     16 C          -0.8866    3.5837   18.9308 C.ar    1  UNL1        0.1476
     17 N          -2.2531    4.1213   19.2366 N.ar    1  UNL1       -0.1446
     18 N          -2.7593    3.4282   20.4668 N.ar    1  UNL1       -0.1477
     19 N          -1.7056    2.4621   20.9213 N.ar    1  UNL1       -0.1417
     20 C          -4.0862    3.6602   21.1267 C.ar    1  UNL1        0.1030
     21 C          -4.2402    3.4337   22.6015 C.ar    1  UNL1        0.0232
     22 C          -5.5671    3.6658   23.2614 C.ar    1  UNL1        0.0312
     23 C          -6.7399    4.1244   22.4465 C.ar    1  UNL1        0.1402
     24 F          -8.0669    4.3565   23.1064 F       1  UNL1       -0.2042
     25 C          -6.5859    4.3509   20.9717 C.ar    1  UNL1        0.0312
     26 C          -5.2590    4.1189   20.3118 C.ar    1  UNL1        0.0232
     27 C           2.3468   -1.2851   20.3332 C.3     1  UNL1        0.0553
     28 C           3.5895   -2.1245   20.3679 C.ar    1  UNL1       -0.0191
     29 C           4.7314   -1.7374   21.2602 C.ar    1  UNL1       -0.0033
     30 C           5.9740   -2.5768   21.2949 C.ar    1  UNL1        0.0119
     31 C           6.0747   -3.8034   20.4374 C.ar    1  UNL1        0.0682
     32 CL          7.3174   -4.6428   20.4721 Cl      1  UNL1       -0.0814
     33 C           4.9328   -4.1906   19.5451 C.ar    1  UNL1        0.0679
     34 CL          5.0335   -5.4171   18.6876 Cl      1  UNL1       -0.0814
     35 C           3.6902   -3.3511   19.5104 C.ar    1  UNL1        0.0080
@<TRIPOS>BOND
     1     9    10    3
     2    10     6    1
     3     6     2    1
     4     2     3   am
     5     3     4    2
     6     3     1    1
     7     1    27    1
     8    27    28    1
     9    28    29   ar
    10    29    30   ar
    11    30    31   ar
    12    31    32    1
    13    31    33   ar
    14    33    34    1
    15    33    35   ar
    16     1    11    1
    17    11    12   am
    18    12    13    2
    19    12    15    1
    20    15    16   ar
    21    16    17   ar
    22    17    18   ar
    23    18    20    1
    24    20    21   ar
    25    21    22   ar
    26    22    23   ar
    27    23    24    1
    28    23    25   ar
    29    25    26   ar
    30    18    19   ar
    31     6     7    1
    32     7     8    1
    33     8     6    1
    34    35    28   ar
    35    19    15   ar
    36    26    20   ar
    37     2     5    1
    38    11    14    1
@<TRIPOS>MOLECULE
*****
 35 38 0 0 0
SMALL
GASTEIGER

@<TRIPOS>ATOM
      1 C           2.2714   -0.4304   19.1595 C.3     1  UNL1        0.1532
      2 N           4.5278    0.7592   18.6664 N.am    1  UNL1       -0.2945
      3 C           3.3938   -0.1133   18.2162 C.2     1  UNL1        0.2413
      4 O           3.3821   -0.6687   16.8229 O.2     1  UNL1       -0.2733
      5 H           4.5355    1.1237   19.5809 H       1  UNL1        0.1503
      6 C           5.6502    1.0763   17.7232 C.3     1  UNL1        0.1365
      7 C           6.5581    1.8658   16.8273 C.3     1  UNL1        0.0353
      8 C           5.4223    2.5466   17.5321 C.3     1  UNL1        0.0353
      9 N           6.8856   -1.6438   17.4502 N.1     1  UNL1       -0.1943
     10 C           6.2679   -0.2837   17.5867 C.1     1  UNL1        0.0896
     11 N           1.0133    0.3858   19.1295 N.am    1  UNL1       -0.2932
     12 C           0.9741    1.7282   19.7979 C.2     1  UNL1        0.2673
     13 O           2.1929    2.2542   20.4962 O.2     1  UNL1       -0.2684
     14 H           0.2133    0.0406   18.6712 H       1  UNL1        0.1502
     15 C          -0.2840    2.5445   19.7680 C.ar    1  UNL1        0.1767
     16 C          -0.5947    3.6504   18.8034 C.ar    1  UNL1        0.1476
     17 N          -1.9550    4.1876   19.1366 N.ar    1  UNL1       -0.1446
     18 N          -2.4851    3.4136   20.3071 N.ar    1  UNL1       -0.1477
     19 N          -1.4523    2.3981   20.6974 N.ar    1  UNL1       -0.1417
     20 C          -3.8144    3.6191   20.9709 C.ar    1  UNL1        0.1030
     21 C          -3.9629    3.3758   22.4436 C.ar    1  UNL1        0.0232
     22 C          -5.2923    3.5813   23.1074 C.ar    1  UNL1        0.0312
     23 C          -6.4730    4.0300   22.2985 C.ar    1  UNL1        0.1402
     24 F          -7.8025    4.2355   22.9623 F       1  UNL1       -0.2042
     25 C          -6.3245    4.2733   20.8259 C.ar    1  UNL1        0.0312
     26 C          -4.9952    4.0679   20.1620 C.ar    1  UNL1        0.0232
     27 C           2.4070   -1.5638   20.1326 C.3     1  UNL1        0.0553
     28 C           3.7222   -2.2693   20.2837 C.ar    1  UNL1       -0.0191
     29 C           4.0140   -3.4944   19.4690 C.ar    1  UNL1       -0.0033
     30 C           5.3291   -4.1998   19.6201 C.ar    1  UNL1        0.0119
     31 C           6.3524   -3.6801   20.5859 C.ar    1  UNL1        0.0682
     32 CL          7.6675   -4.3855   20.7370 Cl      1  UNL1       -0.0814
     33 C           6.0606   -2.4549   21.4006 C.ar    1  UNL1        0.0679
     34 CL          7.0838   -1.9351   22.3664 Cl      1  UNL1       -0.0814
     35 C           4.7455   -1.7495   21.2495 C.ar    1  UNL1        0.0080
@<TRIPOS>BOND
     1     9    10    3
     2    10     6    1
     3     6     2    1
     4     2     3   am
     5     3     4    2
     6     3     1    1
     7     1    27    1
     8    27    28    1
     9    28    29   ar
    10    29    30   ar
    11    30    31   ar
    12    31    32    1
    13    31    33   ar
    14    33    34    1
    15    33    35   ar
    16     1    11    1
    17    11    12   am
    18    12    13    2
    19    12    15    1
    20    15    16   ar
    21    16    17   ar
    22    17    18   ar
    23    18    20    1
    24    20    21   ar
    25    21    22   ar
    26    22    23   ar
    27    23    24    1
    28    23    25   ar
    29    25    26   ar
    30    18    19   ar
    31     6     7    1
    32     7     8    1
    33     8     6    1
    34    35    28   ar
    35    19    15   ar
    36    26    20   ar
    37     2     5    1
    38    11    14    1
@<TRIPOS>MOLECULE
*****
 35 38 0 0 0
SMALL
GASTEIGER

@<TRIPOS>ATOM
      1 C           1.7621   -0.1957   29.3710 C.3     1  UNL1        0.1532
      2 N           3.8836   -0.5662   30.8242 N.am    1  UNL1       -0.2945
      3 C           2.5203    0.0330   30.6450 C.2     1  UNL1        0.2413
      4 O           1.9151    0.8609   31.7397 O.2     1  UNL1       -0.2733
      5 H           4.2809   -1.1096   30.1058 H       1  UNL1        0.1503
      6 C           4.6418   -0.3376   32.0982 C.3     1  UNL1        0.1365
      7 C           5.5408    0.3159   33.1055 C.3     1  UNL1        0.0353
      8 C           5.3107    0.9651   31.7729 C.3     1  UNL1        0.0353
      9 N           3.8305   -2.7839   33.6335 N.1     1  UNL1       -0.1943
     10 C           4.2361   -1.5607   32.8658 C.1     1  UNL1        0.0896
     11 N           2.4188   -0.9058   28.2245 N.am    1  UNL1       -0.2932
     12 C           3.3185   -0.1510   27.2912 C.2     1  UNL1        0.2673
     13 O           3.5614    1.3137   27.5044 O.2     1  UNL1       -0.2684
     14 H           2.2594   -1.8671   28.0846 H       1  UNL1        0.1502
     15 C           3.9753   -0.8611   26.1447 C.ar    1  UNL1        0.1767
     16 C           5.3650   -1.4255   26.1368 C.ar    1  UNL1        0.1476
     17 N           5.6063   -2.0447   24.7921 N.ar    1  UNL1       -0.1446
     18 N           4.3656   -1.8630   23.9688 N.ar    1  UNL1       -0.1477
     19 N           3.3576   -1.1314   24.8047 N.ar    1  UNL1       -0.1417
     20 C           4.1677   -2.3306   22.5574 C.ar    1  UNL1        0.1030
     21 C           3.4829   -1.4418   21.5618 C.ar    1  UNL1        0.0232
     22 C           3.2850   -1.9094   20.1504 C.ar    1  UNL1        0.0312
     23 C           3.7718   -3.2659   19.7345 C.ar    1  UNL1        0.1402
     24 F           3.5739   -3.7336   18.3230 F       1  UNL1       -0.2042
     25 C           4.4566   -4.1547   20.7301 C.ar    1  UNL1        0.0312
     26 C           4.6545   -3.6871   22.1415 C.ar    1  UNL1        0.0232
     27 C           0.3472    0.2858   29.2436 C.3     1  UNL1        0.0553
     28 C           0.0555    1.5801   28.5437 C.ar    1  UNL1       -0.0191
     29 C           0.5717    2.8706   29.1076 C.ar    1  UNL1       -0.0033
     30 C           0.2800    4.1648   28.4077 C.ar    1  UNL1        0.0119
     31 C          -0.5280    4.1684   27.1439 C.ar    1  UNL1        0.0682
     32 CL         -0.8197    5.4627   26.4440 Cl      1  UNL1       -0.0814
     33 C          -1.0442    2.8779   26.5800 C.ar    1  UNL1        0.0679
     34 CL         -1.8522    2.8816   25.3162 Cl      1  UNL1       -0.0814
     35 C          -0.7525    1.5837   27.2799 C.ar    1  UNL1        0.0080
@<TRIPOS>BOND
     1     9    10    3
     2    10     6    1
     3     6     2    1
     4     2     3   am
     5     3     4    2
     6     3     1    1
     7     1    27    1
     8    27    28    1
     9    28    29   ar
    10    29    30   ar
    11    30    31   ar
    12    31    32    1
    13    31    33   ar
    14    33    34    1
    15    33    35   ar
    16     1    11    1
    17    11    12   am
    18    12    13    2
    19    12    15    1
    20    15    16   ar
    21    16    17   ar
    22    17    18   ar
    23    18    20    1
    24    20    21   ar
    25    21    22   ar
    26    22    23   ar
    27    23    24    1
    28    23    25   ar
    29    25    26   ar
    30    18    19   ar
    31     6     7    1
    32     7     8    1
    33     8     6    1
    34    35    28   ar
    35    19    15   ar
    36    26    20   ar
    37     2     5    1
    38    11    14    1
@<TRIPOS>MOLECULE
*****
 35 38 0 0 0
SMALL
GASTEIGER

@<TRIPOS>ATOM
      1 C           2.5997    0.0407   19.8378 C.3     1  UNL1        0.1532
      2 N           3.5080   -2.0880   18.6573 N.am    1  UNL1       -0.2945
      3 C           3.4318   -1.2071   19.8689 C.2     1  UNL1        0.2413
      4 O           4.1875   -1.5738   21.1116 O.2     1  UNL1       -0.2733
      5 H           3.0119   -1.8473   17.8417 H       1  UNL1        0.1503
      6 C           4.3400   -3.3357   18.6884 C.3     1  UNL1        0.1365
      7 C           4.7207   -4.7711   18.8999 C.3     1  UNL1        0.0353
      8 C           3.3295   -4.3094   19.2185 C.3     1  UNL1        0.0353
      9 N           6.9387   -2.2551   17.6498 N.1     1  UNL1       -0.1943
     10 C           5.6393   -2.7954   18.1691 C.1     1  UNL1        0.0896
     11 N           2.2498    0.7408   21.1174 N.am    1  UNL1       -0.2932
     12 C           0.8219    0.8009   21.5732 C.2     1  UNL1        0.2673
     13 O          -0.2559    0.1609   20.7494 O.2     1  UNL1       -0.2684
     14 H           2.9572    1.1609   21.6581 H       1  UNL1        0.1502
     15 C           0.4719    1.5010   22.8528 C.ar    1  UNL1        0.1767
     16 C          -0.2346    2.8188   22.9721 C.ar    1  UNL1        0.1476
     17 N          -0.3762    3.1385   24.4308 N.ar    1  UNL1       -0.1446
     18 N           0.2428    2.0183   25.2130 N.ar    1  UNL1       -0.1477
     19 N           0.7670    1.0062   24.2378 N.ar    1  UNL1       -0.1417
     20 C           0.3236    1.9262   26.7080 C.ar    1  UNL1        0.1030
     21 C          -0.5675    0.9746   27.4501 C.ar    1  UNL1        0.0232
     22 C          -0.4868    0.8825   28.9451 C.ar    1  UNL1        0.0312
     23 C           0.4850    1.7420   29.6980 C.ar    1  UNL1        0.1402
     24 F           0.5658    1.6499   31.1931 F       1  UNL1       -0.2042
     25 C           1.3761    2.6935   28.9560 C.ar    1  UNL1        0.0312
     26 C           1.2953    2.7856   27.4610 C.ar    1  UNL1        0.0232
     27 C           2.1177    0.5883   18.5272 C.3     1  UNL1        0.0553
     28 C           1.8474    2.0566   18.3817 C.ar    1  UNL1       -0.0191
     29 C           2.9876    3.0311   18.3649 C.ar    1  UNL1       -0.0033
     30 C           2.7172    4.4993   18.2194 C.ar    1  UNL1        0.0119
     31 C           1.3066    4.9930   18.0908 C.ar    1  UNL1        0.0682
     32 CL          1.0363    6.4613   17.9453 Cl      1  UNL1       -0.0814
     33 C           0.1664    4.0186   18.1077 C.ar    1  UNL1        0.0679
     34 CL         -1.2441    4.5123   17.9791 Cl      1  UNL1       -0.0814
     35 C           0.4368    2.5504   18.2531 C.ar    1  UNL1        0.0080
@<TRIPOS>BOND
     1     9    10    3
     2    10     6    1
     3     6     2    1
     4     2     3   am
     5     3     4    2
     6     3     1    1
     7     1    27    1
     8    27    28    1
     9    28    29   ar
    10    29    30   ar
    11    30    31   ar
    12    31    32    1
    13    31    33   ar
    14    33    34    1
    15    33    35   ar
    16     1    11    1
    17    11    12   am
    18    12    13    2
    19    12    15    1
    20    15    16   ar
    21    16    17   ar
    22    17    18   ar
    23    18    20    1
    24    20    21   ar
    25    21    22   ar
    26    22    23   ar
    27    23    24    1
    28    23    25   ar
    29    25    26   ar
    30    18    19   ar
    31     6     7    1
    32     7     8    1
    33     8     6    1
    34    35    28   ar
    35    19    15   ar
    36    26    20   ar
    37     2     5    1
    38    11    14    1
@<TRIPOS>MOLECULE
*****
 35 38 0 0 0
SMALL
GASTEIGER

@<TRIPOS>ATOM
      1 C          -9.7957  -18.4465   24.5664 C.3     1  UNL1        0.1532
      2 N         -12.3147  -17.8199   24.4556 N.am    1  UNL1       -0.2945
      3 C         -11.1839  -18.7279   24.0725 C.2     1  UNL1        0.2413
      4 O         -11.4411  -19.9174   23.1956 O.2     1  UNL1       -0.2733
      5 H         -12.1459  -17.0393   25.0312 H       1  UNL1        0.1503
      6 C         -13.7028  -18.1014   23.9617 C.3     1  UNL1        0.1365
      7 C         -15.1534  -18.4830   23.9752 C.3     1  UNL1        0.0353
      8 C         -14.3648  -18.4873   25.2512 C.3     1  UNL1        0.0353
      9 N         -13.3429  -17.5251   21.0396 N.1     1  UNL1       -0.1943
     10 C         -13.5229  -17.8133   22.5007 C.1     1  UNL1        0.0896
     11 N          -8.6095  -18.9196   23.7796 N.am    1  UNL1       -0.2932
     12 C          -8.3987  -18.4346   22.3759 C.2     1  UNL1        0.2673
     13 O          -9.3741  -17.4765   21.7590 O.2     1  UNL1       -0.2684
     14 H          -7.9692  -19.5484   24.1846 H       1  UNL1        0.1502
     15 C          -7.2124  -18.9077   21.5891 C.ar    1  UNL1        0.1767
     16 C          -7.1751  -20.1021   20.6826 C.ar    1  UNL1        0.1476
     17 N          -5.7949  -20.2021   20.1040 N.ar    1  UNL1       -0.1446
     18 N          -4.9790  -19.0693   20.6529 N.ar    1  UNL1       -0.1477
     19 N          -5.8551  -18.2693   21.5708 N.ar    1  UNL1       -0.1417
     20 C          -3.5398  -18.7863   20.3391 C.ar    1  UNL1        0.1030
     21 C          -2.4676  -19.1895   21.3075 C.ar    1  UNL1        0.0232
     22 C          -1.0284  -18.9064   20.9937 C.ar    1  UNL1        0.0312
     23 C          -0.6614  -18.2201   19.7114 C.ar    1  UNL1        0.1402
     24 F           0.7779  -17.9370   19.3975 F       1  UNL1       -0.2042
     25 C          -1.7336  -17.8169   18.7430 C.ar    1  UNL1        0.0312
     26 C          -3.1728  -18.1000   19.0568 C.ar    1  UNL1        0.0232
     27 C          -9.5939  -17.6920   25.8470 C.3     1  UNL1        0.0553
     28 C          -8.4004  -16.7980   26.0107 C.ar    1  UNL1       -0.0191
     29 C          -8.0040  -16.3188   27.3756 C.ar    1  UNL1       -0.0033
     30 C          -6.8106  -15.4249   27.5393 C.ar    1  UNL1        0.0119
     31 C          -6.0137  -15.0103   26.3380 C.ar    1  UNL1        0.0682
     32 CL         -4.8203  -14.1164   26.5017 Cl      1  UNL1       -0.0814
     33 C          -6.4101  -15.4896   24.9731 C.ar    1  UNL1        0.0679
     34 CL         -5.6132  -15.0750   23.7718 Cl      1  UNL1       -0.0814
     35 C          -7.6035  -16.3835   24.8094 C.ar    1  UNL1        0.0080
@<TRIPOS>BOND
     1     9    10    3
     2    10     6    1
     3     6     2    1
     4     2     3   am
     5     3     4    2
     6     3     1    1
     7     1    27    1
     8    27    28    1
     9    28    29   ar
    10    29    30   ar
    11    30    31   ar
    12    31    32    1
    13    31    33   ar
    14    33    34    1
    15    33    35   ar
    16     1    11    1
    17    11    12   am
    18    12    13    2
    19    12    15    1
    20    15    16   ar
    21    16    17   ar
    22    17    18   ar
    23    18    20    1
    24    20    21   ar
    25    21    22   ar
    26    22    23   ar
    27    23    24    1
    28    23    25   ar
    29    25    26   ar
    30    18    19   ar
    31     6     7    1
    32     7     8    1
    33     8     6    1
    34    35    28   ar
    35    19    15   ar
    36    26    20   ar
    37     2     5    1
    38    11    14    1
@<TRIPOS>MOLECULE
*****
 35 38 0 0 0
SMALL
GASTEIGER

@<TRIPOS>ATOM
      1 C           3.9831   -0.5395   28.8751 C.3     1  UNL1        0.1532
      2 N           2.1921    1.2198   29.5441 N.am    1  UNL1       -0.2945
      3 C           2.8623   -0.1027   29.7713 C.2     1  UNL1        0.2413
      4 O           2.4117   -0.9886   30.8948 O.2     1  UNL1       -0.2733
      5 H           2.4879    1.8013   28.8067 H       1  UNL1        0.1503
      6 C           1.0714    1.6565   30.4403 C.3     1  UNL1        0.1365
      7 C           0.3563    2.2935   31.5948 C.3     1  UNL1        0.0353
      8 C           1.8503    2.3851   31.4952 C.3     1  UNL1        0.0353
      9 N          -1.2647    0.5028   28.9531 N.1     1  UNL1       -0.1943
     10 C          -0.0966    1.0797   29.6967 C.1     1  UNL1        0.0896
     11 N           3.7117   -0.8538   27.4337 N.am    1  UNL1       -0.2932
     12 C           3.5375    0.2593   26.4433 C.2     1  UNL1        0.2673
     13 O           3.6347    1.6865   26.8943 O.2     1  UNL1       -0.2684
     14 H           3.6480   -1.7906   27.1377 H       1  UNL1        0.1502
     15 C           3.2662   -0.0550   25.0019 C.ar    1  UNL1        0.1767
     16 C           2.3317    0.6922   24.0973 C.ar    1  UNL1        0.1476
     17 N           2.3697    0.0373   22.7484 N.ar    1  UNL1       -0.1446
     18 N           3.3277   -1.1148   22.8193 N.ar    1  UNL1       -0.1477
     19 N           3.8818   -1.1719   24.2120 N.ar    1  UNL1       -0.1417
     20 C           3.6712   -2.0462   21.6948 C.ar    1  UNL1        0.1030
     21 C           3.2105   -1.7407   20.3004 C.ar    1  UNL1        0.0232
     22 C           3.5541   -2.6722   19.1760 C.ar    1  UNL1        0.0312
     23 C           4.3584   -3.9092   19.4460 C.ar    1  UNL1        0.1402
     24 F           4.7020   -4.8407   18.3216 F       1  UNL1       -0.2042
     25 C           4.8192   -4.2147   20.8405 C.ar    1  UNL1        0.0312
     26 C           4.4756   -3.2832   21.9649 C.ar    1  UNL1        0.0232
     27 C           5.3751   -0.6619   29.4203 C.3     1  UNL1        0.0553
     28 C           5.8599   -1.9788   29.9502 C.ar    1  UNL1       -0.0191
     29 C           5.8997   -2.2231   31.4296 C.ar    1  UNL1       -0.0033
     30 C           6.3845   -3.5399   31.9595 C.ar    1  UNL1        0.0119
     31 C           6.8295   -4.6125   31.0100 C.ar    1  UNL1        0.0682
     32 CL          7.3144   -5.9294   31.5400 Cl      1  UNL1       -0.0814
     33 C           6.7897   -4.3682   29.5306 C.ar    1  UNL1        0.0679
     34 CL          7.2347   -5.4408   28.5811 Cl      1  UNL1       -0.0814
     35 C           6.3049   -3.0514   29.0007 C.ar    1  UNL1        0.0080
@<TRIPOS>BOND
     1     9    10    3
     2    10     6    1
     3     6     2    1
     4     2     3   am
     5     3     4    2
     6     3     1    1
     7     1    27    1
     8    27    28    1
     9    28    29   ar
    10    29    30   ar
    11    30    31   ar
    12    31    32    1
    13    31    33   ar
    14    33    34    1
    15    33    35   ar
    16     1    11    1
    17    11    12   am
    18    12    13    2
    19    12    15    1
    20    15    16   ar
    21    16    17   ar
    22    17    18   ar
    23    18    20    1
    24    20    21   ar
    25    21    22   ar
    26    22    23   ar
    27    23    24    1
    28    23    25   ar
    29    25    26   ar
    30    18    19   ar
    31     6     7    1
    32     7     8    1
    33     8     6    1
    34    35    28   ar
    35    19    15   ar
    36    26    20   ar
    37     2     5    1
    38    11    14    1
@<TRIPOS>MOLECULE
*****
 35 38 0 0 0
SMALL
GASTEIGER

@<TRIPOS>ATOM
      1 C           2.2936   -0.4892   19.2946 C.3     1  UNL1        0.1532
      2 N           4.5966    0.6197   18.8292 N.am    1  UNL1       -0.2945
      3 C           3.4003   -0.1432   18.3429 C.2     1  UNL1        0.2413
      4 O           3.3105   -0.5602   16.9048 O.2     1  UNL1       -0.2733
      5 H           4.6555    0.8934   19.7731 H       1  UNL1        0.1503
      6 C           5.7032    0.9657   17.8775 C.3     1  UNL1        0.1365
      7 C           6.5978    1.7827   16.9932 C.3     1  UNL1        0.0353
      8 C           5.4772    2.4423   17.7411 C.3     1  UNL1        0.0353
      9 N           6.9238   -1.7471   17.4894 N.1     1  UNL1       -0.1943
     10 C           6.3135   -0.3907   17.6835 C.1     1  UNL1        0.0896
     11 N           1.0203    0.3037   19.2844 N.am    1  UNL1       -0.2932
     12 C           1.0248    1.7354   19.7319 C.2     1  UNL1        0.2673
     13 O           2.3024    2.3742   20.1895 O.2     1  UNL1       -0.2684
     14 H           0.1818   -0.1156   18.9840 H       1  UNL1        0.1502
     15 C          -0.2485    2.5283   19.7216 C.ar    1  UNL1        0.1767
     16 C          -0.6110    3.6015   18.7384 C.ar    1  UNL1        0.1476
     17 N          -1.9694    4.1237   19.1019 N.ar    1  UNL1       -0.1446
     18 N          -2.4464    3.3732   20.3099 N.ar    1  UNL1       -0.1477
     19 N          -1.3829    2.3871   20.6930 N.ar    1  UNL1       -0.1417
     20 C          -3.7569    3.5735   21.0117 C.ar    1  UNL1        0.1030
     21 C          -3.8651    3.3177   22.4858 C.ar    1  UNL1        0.0232
     22 C          -5.1756    3.5180   23.1876 C.ar    1  UNL1        0.0312
     23 C          -6.3779    3.9741   22.4153 C.ar    1  UNL1        0.1402
     24 F          -7.6884    4.1744   23.1170 F       1  UNL1       -0.2042
     25 C          -6.2696    4.2299   20.9412 C.ar    1  UNL1        0.0312
     26 C          -4.9592    4.0296   20.2394 C.ar    1  UNL1        0.0232
     27 C           2.4603   -1.6281   20.2564 C.3     1  UNL1        0.0553
     28 C           3.0621   -1.3856   21.6089 C.ar    1  UNL1       -0.0191
     29 C           2.6233   -0.2057   22.4244 C.ar    1  UNL1       -0.0033
     30 C           3.2252    0.0368   23.7768 C.ar    1  UNL1        0.0119
     31 C           4.2658   -0.9007   24.3136 C.ar    1  UNL1        0.0682
     32 CL          4.8676   -0.6583   25.6661 Cl      1  UNL1       -0.0814
     33 C           4.7046   -2.0807   23.4981 C.ar    1  UNL1        0.0679
     34 CL          5.7452   -3.0182   24.0349 Cl      1  UNL1       -0.0814
     35 C           4.1027   -2.3231   22.1457 C.ar    1  UNL1        0.0080
@<TRIPOS>BOND
     1     9    10    3
     2    10     6    1
     3     6     2    1
     4     2     3   am
     5     3     4    2
     6     3     1    1
     7     1    27    1
     8    27    28    1
     9    28    29   ar
    10    29    30   ar
    11    30    31   ar
    12    31    32    1
    13    31    33   ar
    14    33    34    1
    15    33    35   ar
    16     1    11    1
    17    11    12   am
    18    12    13    2
    19    12    15    1
    20    15    16   ar
    21    16    17   ar
    22    17    18   ar
    23    18    20    1
    24    20    21   ar
    25    21    22   ar
    26    22    23   ar
    27    23    24    1
    28    23    25   ar
    29    25    26   ar
    30    18    19   ar
    31     6     7    1
    32     7     8    1
    33     8     6    1
    34    35    28   ar
    35    19    15   ar
    36    26    20   ar
    37     2     5    1
    38    11    14    1
@<TRIPOS>MOLECULE
*****
 35 38 0 0 0
SMALL
GASTEIGER

@<TRIPOS>ATOM
      1 C           4.2911   -2.0318   19.4640 C.3     1  UNL1        0.1532
      2 N           5.3934    0.3097   19.2346 N.am    1  UNL1       -0.2945
      3 C           4.9241   -0.9718   18.6120 C.2     1  UNL1        0.2413
      4 O           5.0877   -1.1933   17.1375 O.2     1  UNL1       -0.2733
      5 H           5.2860    0.4551   20.2023 H       1  UNL1        0.1503
      6 C           6.0264    1.3696   18.3826 C.3     1  UNL1        0.1365
      7 C           6.1588    2.5675   17.4896 C.3     1  UNL1        0.0353
      8 C           4.8046    2.1352   17.9688 C.3     1  UNL1        0.0353
      9 N           8.9095    0.5746   18.6185 N.1     1  UNL1       -0.1943
     10 C           7.4679    0.9721   18.5005 C.1     1  UNL1        0.0896
     11 N           5.1337   -3.1264   20.0487 N.am    1  UNL1       -0.2932
     12 C           6.0791   -2.8254   21.1737 C.2     1  UNL1        0.2673
     13 O           6.1819   -1.4300   21.7141 O.2     1  UNL1       -0.2684
     14 H           5.0662   -4.0423   19.6940 H       1  UNL1        0.1502
     15 C           6.9218   -3.9200   21.7584 C.ar    1  UNL1        0.1767
     16 C           8.0164   -4.6631   21.0516 C.ar    1  UNL1        0.1476
     17 N           8.5889   -5.6661   22.0088 N.ar    1  UNL1       -0.1446
     18 N           7.8480   -5.5429   23.3073 N.ar    1  UNL1       -0.1477
     19 N           6.8176   -4.4638   23.1525 N.ar    1  UNL1       -0.1417
     20 C           8.0942   -6.3560   24.5435 C.ar    1  UNL1        0.1030
     21 C           7.3087   -6.0804   25.7913 C.ar    1  UNL1        0.0232
     22 C           7.5549   -6.8935   27.0275 C.ar    1  UNL1        0.0312
     23 C           8.5866   -7.9823   27.0159 C.ar    1  UNL1        0.1402
     24 F           8.8328   -8.7955   28.2521 F       1  UNL1       -0.2042
     25 C           9.3721   -8.2579   25.7680 C.ar    1  UNL1        0.0312
     26 C           9.1259   -7.4448   24.5319 C.ar    1  UNL1        0.0232
     27 C           2.8155   -1.9971   19.7313 C.3     1  UNL1        0.0553
     28 C           2.2421   -0.9494   20.6388 C.ar    1  UNL1       -0.0191
     29 C           2.7789   -0.7867   22.0300 C.ar    1  UNL1       -0.0033
     30 C           2.2055    0.2610   22.9374 C.ar    1  UNL1        0.0119
     31 C           1.0952    1.1460   22.4537 C.ar    1  UNL1        0.0682
     32 CL          0.5218    2.1938   23.3612 Cl      1  UNL1       -0.0814
     33 C           0.5584    0.9834   21.0625 C.ar    1  UNL1        0.0679
     34 CL         -0.5519    1.8684   20.5788 Cl      1  UNL1       -0.0814
     35 C           1.1318   -0.0643   20.1551 C.ar    1  UNL1        0.0080
@<TRIPOS>BOND
     1     9    10    3
     2    10     6    1
     3     6     2    1
     4     2     3   am
     5     3     4    2
     6     3     1    1
     7     1    27    1
     8    27    28    1
     9    28    29   ar
    10    29    30   ar
    11    30    31   ar
    12    31    32    1
    13    31    33   ar
    14    33    34    1
    15    33    35   ar
    16     1    11    1
    17    11    12   am
    18    12    13    2
    19    12    15    1
    20    15    16   ar
    21    16    17   ar
    22    17    18   ar
    23    18    20    1
    24    20    21   ar
    25    21    22   ar
    26    22    23   ar
    27    23    24    1
    28    23    25   ar
    29    25    26   ar
    30    18    19   ar
    31     6     7    1
    32     7     8    1
    33     8     6    1
    34    35    28   ar
    35    19    15   ar
    36    26    20   ar
    37     2     5    1
    38    11    14    1
@<TRIPOS>MOLECULE
*****
 35 38 0 0 0
SMALL
GASTEIGER

@<TRIPOS>ATOM
      1 C           4.5634    0.7310   29.6132 C.3     1  UNL1        0.1532
      2 N           5.0519   -1.6172   30.6119 N.am    1  UNL1       -0.2945
      3 C           5.3112   -0.1402   30.5786 C.2     1  UNL1        0.2413
      4 O           6.3183    0.4657   31.5106 O.2     1  UNL1       -0.2733
      5 H           4.3909   -2.0149   30.0002 H       1  UNL1        0.1503
      6 C           5.7997   -2.4883   31.5772 C.3     1  UNL1        0.1365
      7 C           6.8772   -3.3675   32.1394 C.3     1  UNL1        0.0353
      8 C           7.0089   -2.8140   30.7514 C.3     1  UNL1        0.0353
      9 N           3.9009   -2.4422   33.8994 N.1     1  UNL1       -0.1943
     10 C           4.8503   -2.4652   32.7383 C.1     1  UNL1        0.0896
     11 N           4.8571    0.6471   28.1446 N.am    1  UNL1       -0.2932
     12 C           4.2242   -0.4293   27.3135 C.2     1  UNL1        0.2673
     13 O           3.2977   -1.4219   27.9509 O.2     1  UNL1       -0.2684
     14 H           5.4653    1.2986   27.7263 H       1  UNL1        0.1502
     15 C           4.5180   -0.5132   25.8449 C.ar    1  UNL1        0.1767
     16 C           5.4416    0.3859   25.0777 C.ar    1  UNL1        0.1476
     17 N           5.4341   -0.0561   23.6443 N.ar    1  UNL1       -0.1446
     18 N           4.5058   -1.2284   23.5256 N.ar    1  UNL1       -0.1477
     19 N           3.9396   -1.5110   24.8856 N.ar    1  UNL1       -0.1417
     20 C           4.1978   -1.9853   22.2678 C.ar    1  UNL1        0.1030
     21 C           3.3998   -1.3345   21.1771 C.ar    1  UNL1        0.0232
     22 C           3.0917   -2.0914   19.9193 C.ar    1  UNL1        0.0312
     23 C           3.5818   -3.4992   19.7521 C.ar    1  UNL1        0.1402
     24 F           3.2738   -4.2562   18.4942 F       1  UNL1       -0.2042
     25 C           4.3799   -4.1500   20.8427 C.ar    1  UNL1        0.0312
     26 C           4.6879   -3.3931   22.1006 C.ar    1  UNL1        0.0232
     27 C           3.5219    1.6860   30.1164 C.3     1  UNL1        0.0553
     28 C           2.2498    1.8827   29.3461 C.ar    1  UNL1       -0.0191
     29 C           2.0977    3.0678   28.4394 C.ar    1  UNL1       -0.0033
     30 C           0.8257    3.2644   27.6692 C.ar    1  UNL1        0.0119
     31 C          -0.2942    2.2759   27.8057 C.ar    1  UNL1        0.0682
     32 CL         -1.5663    2.4725   27.0355 Cl      1  UNL1       -0.0814
     33 C          -0.1420    1.0907   28.7124 C.ar    1  UNL1        0.0679
     34 CL         -1.2619    0.1021   28.8490 Cl      1  UNL1       -0.0814
     35 C           1.1300    0.8941   29.4826 C.ar    1  UNL1        0.0080
@<TRIPOS>BOND
     1     9    10    3
     2    10     6    1
     3     6     2    1
     4     2     3   am
     5     3     4    2
     6     3     1    1
     7     1    27    1
     8    27    28    1
     9    28    29   ar
    10    29    30   ar
    11    30    31   ar
    12    31    32    1
    13    31    33   ar
    14    33    34    1
    15    33    35   ar
    16     1    11    1
    17    11    12   am
    18    12    13    2
    19    12    15    1
    20    15    16   ar
    21    16    17   ar
    22    17    18   ar
    23    18    20    1
    24    20    21   ar
    25    21    22   ar
    26    22    23   ar
    27    23    24    1
    28    23    25   ar
    29    25    26   ar
    30    18    19   ar
    31     6     7    1
    32     7     8    1
    33     8     6    1
    34    35    28   ar
    35    19    15   ar
    36    26    20   ar
    37     2     5    1
    38    11    14    1
