@<TRIPOS>MOLECULE
*****
 22 24 0 0 0
SMALL
GASTEIGER

@<TRIPOS>ATOM
      1 C          -7.5861  -18.4197   22.1592 C.3     1  UNL1        0.1753
      2 O          -8.2359  -19.6815   21.6738 O.3     1  UNL1       -0.3460
      3 C          -9.7225  -19.7332   21.4808 C.3     1  UNL1        0.1685
      4 C         -10.5593  -18.5231   21.7731 C.ar    1  UNL1        0.0067
      5 C         -12.0459  -18.5748   21.5800 C.ar    1  UNL1       -0.0021
      6 C         -12.8827  -17.3648   21.8723 C.ar    1  UNL1       -0.0003
      7 C         -12.2329  -16.1030   22.3577 C.ar    1  UNL1       -0.0002
      8 C         -10.7463  -16.0512   22.5507 C.ar    1  UNL1       -0.0010
      9 C          -9.9095  -17.2613   22.2584 C.ar    1  UNL1        0.0181
     10 C          -8.4228  -17.2096   22.4515 C.3     1  UNL1        0.2162
     11 C          -6.0994  -18.3680   22.3523 C.3     1  UNL1        0.1027
     12 C          -4.8456  -19.9594   20.7258 C.3     1  UNL1        0.0859
     13 N          -5.1836  -18.5709   21.1818 N.3     1  UNL1       -0.2942
     14 H          -5.6118  -18.0961   20.3871 H       1  UNL1        0.1234
     15 O          -7.7730  -15.9478   22.9369 O.3     1  UNL1       -0.4713
     16 C          -7.4524  -15.7814   24.3927 C.ar    1  UNL1        0.1494
     17 C          -8.5340  -15.9328   25.4210 C.ar    1  UNL1        0.0378
     18 C          -8.2134  -15.7663   26.8768 C.ar    1  UNL1        0.0032
     19 C          -6.8113  -15.4484   27.3044 C.ar    1  UNL1        0.0011
     20 C          -5.7297  -15.2969   26.2762 C.ar    1  UNL1        0.0145
     21 C          -6.0503  -15.4634   24.8203 C.ar    1  UNL1        0.0915
     22 CL         -4.9687  -15.3120   23.7921 Cl      1  UNL1       -0.0791
@<TRIPOS>BOND
     1    12    13    1
     2    13    11    1
     3     1    11    1
     4     1     2    1
     5     2     3    1
     6     3     4    1
     7     4     5   ar
     8     5     6   ar
     9     6     7   ar
    10     7     8   ar
    11     8     9   ar
    12     9    10    1
    13    10    15    1
    14    15    16    1
    15    16    17   ar
    16    17    18   ar
    17    18    19   ar
    18    19    20   ar
    19    20    21   ar
    20    21    22    1
    21    10     1    1
    22    21    16   ar
    23     9     4   ar
    24    13    14    1
@<TRIPOS>MOLECULE
*****
 22 24 0 0 0
SMALL
GASTEIGER

@<TRIPOS>ATOM
      1 C          -6.9370  -16.4558   23.0638 C.3     1  UNL1        0.1753
      2 O          -5.5418  -16.8589   23.4393 O.3     1  UNL1       -0.3460
      3 C          -4.9237  -18.0808   22.8271 C.3     1  UNL1        0.1685
      4 C          -5.7008  -18.8996   21.8393 C.ar    1  UNL1        0.0067
      5 C          -5.0827  -20.1215   21.2270 C.ar    1  UNL1       -0.0021
      6 C          -5.8597  -20.9403   20.2393 C.ar    1  UNL1       -0.0003
      7 C          -7.2549  -20.5372   19.8637 C.ar    1  UNL1       -0.0002
      8 C          -7.8730  -19.3153   20.4759 C.ar    1  UNL1       -0.0010
      9 C          -7.0959  -18.4965   21.4637 C.ar    1  UNL1        0.0181
     10 C          -7.7140  -17.2745   22.0760 C.3     1  UNL1        0.2162
     11 C          -7.5551  -15.2338   23.6760 C.3     1  UNL1        0.1027
     12 C          -7.1165  -15.3467   26.2343 C.3     1  UNL1        0.0859
     13 N          -6.9659  -14.6387   24.9205 N.3     1  UNL1       -0.2942
     14 H          -5.9648  -14.5380   24.7533 H       1  UNL1        0.1234
     15 O          -9.1092  -16.8714   21.7004 O.3     1  UNL1       -0.4713
     16 C         -10.2761  -17.3805   22.4935 C.ar    1  UNL1        0.1494
     17 C         -10.0447  -18.2413   23.7000 C.ar    1  UNL1        0.0378
     18 C         -11.2117  -18.7504   24.4930 C.ar    1  UNL1        0.0032
     19 C         -12.6101  -18.3987   24.0797 C.ar    1  UNL1        0.0011
     20 C         -12.8415  -17.5379   22.8733 C.ar    1  UNL1        0.0145
     21 C         -11.6745  -17.0288   22.0801 C.ar    1  UNL1        0.0915
     22 CL        -11.9059  -16.1680   20.8737 Cl      1  UNL1       -0.0791
@<TRIPOS>BOND
     1    12    13    1
     2    13    11    1
     3     1    11    1
     4     1     2    1
     5     2     3    1
     6     3     4    1
     7     4     5   ar
     8     5     6   ar
     9     6     7   ar
    10     7     8   ar
    11     8     9   ar
    12     9    10    1
    13    10    15    1
    14    15    16    1
    15    16    17   ar
    16    17    18   ar
    17    18    19   ar
    18    19    20   ar
    19    20    21   ar
    20    21    22    1
    21    10     1    1
    22    21    16   ar
    23     9     4   ar
    24    13    14    1
@<TRIPOS>MOLECULE
*****
 22 24 0 0 0
SMALL
GASTEIGER

@<TRIPOS>ATOM
      1 C          -7.1310  -17.6170   22.7287 C.3     1  UNL1        0.1753
      2 O          -5.8245  -16.8803   22.7467 O.3     1  UNL1       -0.3460
      3 C          -5.4598  -16.0288   23.9265 C.3     1  UNL1        0.1685
      4 C          -6.4017  -15.9139   25.0883 C.ar    1  UNL1        0.0067
      5 C          -6.0371  -15.0624   26.2681 C.ar    1  UNL1       -0.0021
      6 C          -6.9789  -14.9476   27.4298 C.ar    1  UNL1       -0.0003
      7 C          -8.2854  -15.6844   27.4118 C.ar    1  UNL1       -0.0002
      8 C          -8.6500  -16.5359   26.2320 C.ar    1  UNL1       -0.0010
      9 C          -7.7082  -16.6507   25.0703 C.ar    1  UNL1        0.0181
     10 C          -8.0728  -17.5022   23.8904 C.3     1  UNL1        0.2162
     11 C          -7.4956  -18.4686   21.5488 C.3     1  UNL1        0.1027
     12 C          -5.4731  -19.2885   20.1392 C.3     1  UNL1        0.0859
     13 N          -6.6746  -18.4042   20.2951 N.3     1  UNL1       -0.2942
     14 H          -7.3022  -18.6208   19.5208 H       1  UNL1        0.1234
     15 O          -9.3793  -18.2390   23.8724 O.3     1  UNL1       -0.4713
     16 C         -10.5168  -17.7284   23.0385 C.ar    1  UNL1        0.1494
     17 C         -10.9457  -16.2955   23.1517 C.ar    1  UNL1        0.0378
     18 C         -12.0832  -15.7850   22.3178 C.ar    1  UNL1        0.0032
     19 C         -12.7918  -16.7073   21.3706 C.ar    1  UNL1        0.0011
     20 C         -12.3629  -18.1402   21.2573 C.ar    1  UNL1        0.0145
     21 C         -11.2253  -18.6508   22.0913 C.ar    1  UNL1        0.0915
     22 CL        -10.7964  -20.0837   21.9780 Cl      1  UNL1       -0.0791
@<TRIPOS>BOND
     1    12    13    1
     2    13    11    1
     3     1    11    1
     4     1     2    1
     5     2     3    1
     6     3     4    1
     7     4     5   ar
     8     5     6   ar
     9     6     7   ar
    10     7     8   ar
    11     8     9   ar
    12     9    10    1
    13    10    15    1
    14    15    16    1
    15    16    17   ar
    16    17    18   ar
    17    18    19   ar
    18    19    20   ar
    19    20    21   ar
    20    21    22    1
    21    10     1    1
    22    21    16   ar
    23     9     4   ar
    24    13    14    1
@<TRIPOS>MOLECULE
*****
 22 24 0 0 0
SMALL
GASTEIGER

@<TRIPOS>ATOM
      1 C          -6.9077  -18.8478   21.2916 C.3     1  UNL1        0.1753
      2 O          -5.4943  -19.1358   21.7031 O.3     1  UNL1       -0.3460
      3 C          -4.8290  -18.2872   22.7458 C.3     1  UNL1        0.1685
      4 C          -5.5772  -17.1506   23.3770 C.ar    1  UNL1        0.0067
      5 C          -4.9119  -16.3019   24.4197 C.ar    1  UNL1       -0.0021
      6 C          -5.6600  -15.1654   25.0508 C.ar    1  UNL1       -0.0003
      7 C          -7.0734  -14.8774   24.6393 C.ar    1  UNL1       -0.0002
      8 C          -7.7387  -15.7260   23.5967 C.ar    1  UNL1       -0.0010
      9 C          -6.9906  -16.8626   22.9655 C.ar    1  UNL1        0.0181
     10 C          -7.6558  -17.7113   21.9228 C.3     1  UNL1        0.2162
     11 C          -7.5730  -19.6965   20.2489 C.3     1  UNL1        0.1027
     12 C          -9.9257  -19.7003   19.1469 C.3     1  UNL1        0.0859
     13 N          -8.5671  -19.0852   19.3066 N.3     1  UNL1       -0.2942
     14 H          -8.7134  -18.1242   19.6157 H       1  UNL1        0.1234
     15 O          -9.0693  -17.4233   21.5113 O.3     1  UNL1       -0.4713
     16 C         -10.2050  -17.7969   22.4170 C.ar    1  UNL1        0.1494
     17 C          -9.9642  -18.7045   23.5868 C.ar    1  UNL1        0.0378
     18 C         -11.0999  -19.0781   24.4926 C.ar    1  UNL1        0.0032
     19 C         -12.4766  -18.5440   24.2286 C.ar    1  UNL1        0.0011
     20 C         -12.7175  -17.6365   23.0590 C.ar    1  UNL1        0.0145
     21 C         -11.5817  -17.2628   22.1531 C.ar    1  UNL1        0.0915
     22 CL        -11.8226  -16.3553   20.9834 Cl      1  UNL1       -0.0791
@<TRIPOS>BOND
     1    12    13    1
     2    13    11    1
     3     1    11    1
     4     1     2    1
     5     2     3    1
     6     3     4    1
     7     4     5   ar
     8     5     6   ar
     9     6     7   ar
    10     7     8   ar
    11     8     9   ar
    12     9    10    1
    13    10    15    1
    14    15    16    1
    15    16    17   ar
    16    17    18   ar
    17    18    19   ar
    18    19    20   ar
    19    20    21   ar
    20    21    22    1
    21    10     1    1
    22    21    16   ar
    23     9     4   ar
    24    13    14    1
@<TRIPOS>MOLECULE
*****
 22 24 0 0 0
SMALL
GASTEIGER

@<TRIPOS>ATOM
      1 C          -6.7937  -19.8819   20.1120 C.3     1  UNL1        0.1753
      2 O          -5.6324  -20.6882   19.6107 O.3     1  UNL1       -0.3460
      3 C          -4.2715  -20.4972   20.2118 C.3     1  UNL1        0.1685
      4 C          -4.0719  -19.4998   21.3144 C.ar    1  UNL1        0.0067
      5 C          -2.7110  -19.3088   21.9156 C.ar    1  UNL1       -0.0021
      6 C          -2.5114  -18.3115   23.0180 C.ar    1  UNL1       -0.0003
      7 C          -3.6727  -17.5052   23.5194 C.ar    1  UNL1       -0.0002
      8 C          -5.0336  -17.6963   22.9182 C.ar    1  UNL1       -0.0010
      9 C          -5.2332  -18.6936   21.8157 C.ar    1  UNL1        0.0181
     10 C          -6.5941  -18.8846   21.2145 C.3     1  UNL1        0.2162
     11 C          -8.1547  -20.0730   19.5108 C.3     1  UNL1        0.1027
     12 C         -10.5214  -19.0194   19.7062 C.3     1  UNL1        0.0859
     13 N          -9.0715  -18.8980   19.3415 N.3     1  UNL1       -0.2942
     14 H          -8.6878  -18.1412   19.9075 H       1  UNL1        0.1234
     15 O          -7.7554  -18.0784   21.7158 O.3     1  UNL1       -0.4713
     16 C          -8.5506  -18.5603   22.8929 C.ar    1  UNL1        0.1494
     17 C          -8.8224  -20.0254   23.0652 C.ar    1  UNL1        0.0378
     18 C          -9.6176  -20.5073   24.2423 C.ar    1  UNL1        0.0032
     19 C         -10.1410  -19.5241   25.2470 C.ar    1  UNL1        0.0011
     20 C          -9.8692  -18.0590   25.0747 C.ar    1  UNL1        0.0145
     21 C          -9.0740  -17.5771   23.8976 C.ar    1  UNL1        0.0915
     22 CL         -8.8022  -16.1121   23.7252 Cl      1  UNL1       -0.0791
@<TRIPOS>BOND
     1    12    13    1
     2    13    11    1
     3     1    11    1
     4     1     2    1
     5     2     3    1
     6     3     4    1
     7     4     5   ar
     8     5     6   ar
     9     6     7   ar
    10     7     8   ar
    11     8     9   ar
    12     9    10    1
    13    10    15    1
    14    15    16    1
    15    16    17   ar
    16    17    18   ar
    17    18    19   ar
    18    19    20   ar
    19    20    21   ar
    20    21    22    1
    21    10     1    1
    22    21    16   ar
    23     9     4   ar
    24    13    14    1
@<TRIPOS>MOLECULE
*****
 22 24 0 0 0
SMALL
GASTEIGER

@<TRIPOS>ATOM
      1 C          -7.5765  -18.6462   22.0855 C.3     1  UNL1        0.1753
      2 O          -7.1812  -20.0208   21.6336 O.3     1  UNL1       -0.3460
      3 C          -5.7316  -20.4001   21.5658 C.3     1  UNL1        0.1685
      4 C          -4.6771  -19.4048   21.9501 C.ar    1  UNL1        0.0067
      5 C          -3.2275  -19.7841   21.8824 C.ar    1  UNL1       -0.0021
      6 C          -2.1731  -18.7889   22.2667 C.ar    1  UNL1       -0.0003
      7 C          -2.5684  -17.4143   22.7187 C.ar    1  UNL1       -0.0002
      8 C          -4.0180  -17.0350   22.7864 C.ar    1  UNL1       -0.0010
      9 C          -5.0724  -18.0302   22.4021 C.ar    1  UNL1        0.0181
     10 C          -6.5221  -17.6510   22.4698 C.3     1  UNL1        0.2162
     11 C          -9.0262  -18.2669   22.1532 C.3     1  UNL1        0.1027
     12 C         -11.0572  -17.0355   21.1004 C.3     1  UNL1        0.0859
     13 N          -9.5745  -17.2298   21.2186 N.3     1  UNL1       -0.2942
     14 H          -9.1825  -16.3343   21.5097 H       1  UNL1        0.1234
     15 O          -6.9174  -16.2764   22.9218 O.3     1  UNL1       -0.4713
     16 C          -6.9513  -15.9489   24.3852 C.ar    1  UNL1        0.1494
     17 C          -5.6706  -15.7277   25.1342 C.ar    1  UNL1        0.0378
     18 C          -5.7045  -15.4002   26.5975 C.ar    1  UNL1        0.0032
     19 C          -7.0191  -15.2939   27.3121 C.ar    1  UNL1        0.0011
     20 C          -8.2997  -15.5151   26.5632 C.ar    1  UNL1        0.0145
     21 C          -8.2659  -15.8426   25.0997 C.ar    1  UNL1        0.0915
     22 CL         -9.5466  -16.0638   24.3509 Cl      1  UNL1       -0.0791
@<TRIPOS>BOND
     1    12    13    1
     2    13    11    1
     3     1    11    1
     4     1     2    1
     5     2     3    1
     6     3     4    1
     7     4     5   ar
     8     5     6   ar
     9     6     7   ar
    10     7     8   ar
    11     8     9   ar
    12     9    10    1
    13    10    15    1
    14    15    16    1
    15    16    17   ar
    16    17    18   ar
    17    18    19   ar
    18    19    20   ar
    19    20    21   ar
    20    21    22    1
    21    10     1    1
    22    21    16   ar
    23     9     4   ar
    24    13    14    1
@<TRIPOS>MOLECULE
*****
 22 24 0 0 0
SMALL
GASTEIGER

@<TRIPOS>ATOM
      1 C          -7.7854  -18.4812   21.7785 C.3     1  UNL1        0.1753
      2 O          -7.4291  -19.7847   21.1273 O.3     1  UNL1       -0.3460
      3 C          -6.0014  -20.2438   21.1000 C.3     1  UNL1        0.1685
      4 C          -4.9299  -19.3994   21.7239 C.ar    1  UNL1        0.0067
      5 C          -3.5022  -19.8585   21.6966 C.ar    1  UNL1       -0.0021
      6 C          -2.4308  -19.0142   22.3204 C.ar    1  UNL1       -0.0003
      7 C          -2.7872  -17.7107   22.9716 C.ar    1  UNL1       -0.0002
      8 C          -4.2149  -17.2516   22.9989 C.ar    1  UNL1       -0.0010
      9 C          -5.2863  -18.0960   22.3750 C.ar    1  UNL1        0.0181
     10 C          -6.7141  -17.6369   22.4023 C.3     1  UNL1        0.2162
     11 C          -9.2133  -18.0221   21.8058 C.3     1  UNL1        0.1027
     12 C         -10.9107  -16.0633   21.6284 C.3     1  UNL1        0.0859
     13 N          -9.5712  -16.6549   21.3033 N.3     1  UNL1       -0.2942
     14 H          -8.8688  -16.0130   21.6707 H       1  UNL1        0.1234
     15 O          -7.0705  -16.3334   23.0535 O.3     1  UNL1       -0.4713
     16 C          -7.4290  -16.2957   24.5095 C.ar    1  UNL1        0.1494
     17 C          -8.6943  -16.9442   24.9874 C.ar    1  UNL1        0.0378
     18 C          -9.0528  -16.9065   26.4434 C.ar    1  UNL1        0.0032
     19 C          -8.1460  -16.2203   27.4216 C.ar    1  UNL1        0.0011
     20 C          -6.8807  -15.5718   26.9438 C.ar    1  UNL1        0.0145
     21 C          -6.5221  -15.6095   25.4877 C.ar    1  UNL1        0.0915
     22 CL         -5.2568  -14.9610   25.0098 Cl      1  UNL1       -0.0791
@<TRIPOS>BOND
     1    12    13    1
     2    13    11    1
     3     1    11    1
     4     1     2    1
     5     2     3    1
     6     3     4    1
     7     4     5   ar
     8     5     6   ar
     9     6     7   ar
    10     7     8   ar
    11     8     9   ar
    12     9    10    1
    13    10    15    1
    14    15    16    1
    15    16    17   ar
    16    17    18   ar
    17    18    19   ar
    18    19    20   ar
    19    20    21   ar
    20    21    22    1
    21    10     1    1
    22    21    16   ar
    23     9     4   ar
    24    13    14    1
@<TRIPOS>MOLECULE
*****
 22 24 0 0 0
SMALL
GASTEIGER

@<TRIPOS>ATOM
      1 C          -6.3118  -16.9515   23.1640 C.3     1  UNL1        0.1753
      2 O          -4.9852  -16.7644   23.8385 O.3     1  UNL1       -0.3460
      3 C          -3.7965  -17.5615   23.3895 C.3     1  UNL1        0.1685
      4 C          -3.9344  -18.5457   22.2659 C.ar    1  UNL1        0.0067
      5 C          -2.7457  -19.3428   21.8169 C.ar    1  UNL1       -0.0021
      6 C          -2.8837  -20.3270   20.6934 C.ar    1  UNL1       -0.0003
      7 C          -4.2103  -20.5140   20.0189 C.ar    1  UNL1       -0.0002
      8 C          -5.3990  -19.7170   20.4679 C.ar    1  UNL1       -0.0010
      9 C          -5.2611  -18.7328   21.5914 C.ar    1  UNL1        0.0181
     10 C          -6.4498  -17.9357   22.0404 C.3     1  UNL1        0.2162
     11 C          -7.5006  -16.1544   23.6130 C.3     1  UNL1        0.1027
     12 C          -8.3499  -14.7763   21.5810 C.3     1  UNL1        0.0859
     13 N          -7.7998  -14.8301   22.9754 N.3     1  UNL1       -0.2942
     14 H          -8.4759  -14.3596   23.5770 H       1  UNL1        0.1234
     15 O          -7.7764  -18.1228   21.3659 O.3     1  UNL1       -0.4713
     16 C          -8.9031  -18.7889   22.0986 C.ar    1  UNL1        0.1494
     17 C          -8.6094  -19.8151   23.1526 C.ar    1  UNL1        0.0378
     18 C          -9.7360  -20.4813   23.8853 C.ar    1  UNL1        0.0032
     19 C         -11.1563  -20.1213   23.5641 C.ar    1  UNL1        0.0011
     20 C         -11.4500  -19.0952   22.5102 C.ar    1  UNL1        0.0145
     21 C         -10.3234  -18.4290   21.7774 C.ar    1  UNL1        0.0915
     22 CL        -10.6171  -17.4028   20.7235 Cl      1  UNL1       -0.0791
@<TRIPOS>BOND
     1    12    13    1
     2    13    11    1
     3     1    11    1
     4     1     2    1
     5     2     3    1
     6     3     4    1
     7     4     5   ar
     8     5     6   ar
     9     6     7   ar
    10     7     8   ar
    11     8     9   ar
    12     9    10    1
    13    10    15    1
    14    15    16    1
    15    16    17   ar
    16    17    18   ar
    17    18    19   ar
    18    19    20   ar
    19    20    21   ar
    20    21    22    1
    21    10     1    1
    22    21    16   ar
    23     9     4   ar
    24    13    14    1
@<TRIPOS>MOLECULE
*****
 22 24 0 0 0
SMALL
GASTEIGER

@<TRIPOS>ATOM
      1 C          -6.9893  -16.0761   24.0325 C.3     1  UNL1        0.1753
      2 O          -5.5221  -15.7670   23.9918 O.3     1  UNL1       -0.3460
      3 C          -4.5789  -16.6973   23.2883 C.3     1  UNL1        0.1685
      4 C          -5.1029  -17.9366   22.6254 C.ar    1  UNL1        0.0067
      5 C          -4.1597  -18.8669   21.9218 C.ar    1  UNL1       -0.0021
      6 C          -4.6837  -20.1062   21.2590 C.ar    1  UNL1       -0.0003
      7 C          -6.1510  -20.4153   21.2996 C.ar    1  UNL1       -0.0002
      8 C          -7.0942  -19.4851   22.0032 C.ar    1  UNL1       -0.0010
      9 C          -6.5701  -18.2457   22.6660 C.ar    1  UNL1        0.0181
     10 C          -7.5134  -17.3155   23.3696 C.3     1  UNL1        0.2162
     11 C          -7.9326  -15.1459   24.7361 C.3     1  UNL1        0.1027
     12 C          -7.9915  -16.1816   27.1179 C.3     1  UNL1        0.0859
     13 N          -8.7110  -15.6252   25.9252 N.3     1  UNL1       -0.2942
     14 H          -9.2607  -14.8324   26.2564 H       1  UNL1        0.1234
     15 O          -8.9806  -17.6246   23.4103 O.3     1  UNL1       -0.4713
     16 C          -9.8414  -17.3354   22.2164 C.ar    1  UNL1        0.1494
     17 C          -9.8671  -15.9564   21.6267 C.ar    1  UNL1        0.0378
     18 C         -10.7279  -15.6672   20.4328 C.ar    1  UNL1        0.0032
     19 C         -11.5629  -16.7570   19.8285 C.ar    1  UNL1        0.0011
     20 C         -11.5371  -18.1360   20.4182 C.ar    1  UNL1        0.0145
     21 C         -10.6764  -18.4252   21.6121 C.ar    1  UNL1        0.0915
     22 CL        -10.6506  -19.8042   22.2018 Cl      1  UNL1       -0.0791
@<TRIPOS>BOND
     1    12    13    1
     2    13    11    1
     3     1    11    1
     4     1     2    1
     5     2     3    1
     6     3     4    1
     7     4     5   ar
     8     5     6   ar
     9     6     7   ar
    10     7     8   ar
    11     8     9   ar
    12     9    10    1
    13    10    15    1
    14    15    16    1
    15    16    17   ar
    16    17    18   ar
    17    18    19   ar
    18    19    20   ar
    19    20    21   ar
    20    21    22    1
    21    10     1    1
    22    21    16   ar
    23     9     4   ar
    24    13    14    1
