@<TRIPOS>MOLECULE
*****
 28 29 0 0 0
SMALL
GASTEIGER

@<TRIPOS>ATOM
      1 C          -7.8911  -16.2701   24.3169 C.3     1  UNL1        0.2969
      2 F          -8.1856  -16.0816   25.7756 F       1  UNL1       -0.1981
      3 F          -7.5966  -16.4587   22.8583 F       1  UNL1       -0.1981
      4 C          -9.2326  -16.9147   24.1293 C.ar    1  UNL1        0.0422
      5 C          -9.6049  -18.1209   24.9395 C.ar    1  UNL1        0.0012
      6 C         -10.9463  -18.7654   24.7519 C.ar    1  UNL1        0.0030
      7 C         -11.9153  -18.2037   23.7541 C.ar    1  UNL1        0.0369
      8 C         -11.5429  -16.9975   22.9439 C.ar    1  UNL1        0.1384
      9 C         -10.2016  -16.3530   23.1316 C.ar    1  UNL1        0.0379
     10 O         -12.5120  -16.4359   21.9462 O.3     1  UNL1       -0.4755
     11 C         -12.4553  -16.8789   20.5142 C.3     1  UNL1        0.2057
     12 C         -11.1547  -17.3326   19.9204 C.3     1  UNL1        0.0561
     13 C         -10.8064  -18.7915   19.9034 C.3     1  UNL1        0.1072
     14 C         -10.0019  -19.3837   21.0224 C.3     1  UNL1        0.3979
     15 F          -9.1974  -19.9758   22.1414 F       1  UNL1       -0.1700
     16 F         -11.0862  -20.3903   21.2693 F       1  UNL1       -0.1700
     17 F          -8.9176  -18.3770   20.7755 F       1  UNL1       -0.1700
     18 C          -6.5497  -15.6256   24.5045 C.3     1  UNL1        0.1409
     19 N          -5.4274  -15.9412   23.5607 N.3     1  UNL1       -0.2850
     20 H          -5.8529  -16.1591   22.6596 H       1  UNL1        0.1239
     21 C          -4.4772  -17.0593   23.8726 C.3     1  UNL1        0.1553
     22 O          -2.2965  -17.3648   22.4938 O.2     1  UNL1       -0.2734
     23 C          -3.7246  -17.7349   22.7648 C.2     1  UNL1        0.2418
     24 N          -4.4001  -18.7807   21.9281 N.am    1  UNL1       -0.2784
     25 C          -3.7786  -19.5381   20.7923 C.3     1  UNL1        0.0935
     26 C          -4.8102  -20.4781   20.2425 C.3     1  UNL1        0.0233
     27 C          -6.0692  -20.3017   21.0387 C.3     1  UNL1        0.0233
     28 C          -5.8158  -19.2526   22.0804 C.3     1  UNL1        0.0935
@<TRIPOS>BOND
     1    22    23    2
     2    23    21    1
     3    21    19    1
     4    19    18    1
     5    18     1    1
     6     1     2    1
     7     1     3    1
     8     1     4    1
     9     4     5   ar
    10     5     6   ar
    11     6     7   ar
    12     7     8   ar
    13     8    10    1
    14    10    11    1
    15    11    12    1
    16    12    13    1
    17    13    14    1
    18    14    15    1
    19    14    16    1
    20    14    17    1
    21     8     9   ar
    22    23    24   am
    23    24    25    1
    24    25    26    1
    25    26    27    1
    26    27    28    1
    27     9     4   ar
    28    28    24    1
    29    19    20    1
@<TRIPOS>MOLECULE
*****
 28 29 0 0 0
SMALL
GASTEIGER

@<TRIPOS>ATOM
      1 C          -6.8645  -19.7629   20.2044 C.3     1  UNL1        0.2969
      2 F          -6.4170  -21.1412   19.8171 F       1  UNL1       -0.1981
      3 F          -7.3119  -18.3846   20.5917 F       1  UNL1       -0.1981
      4 C          -5.5461  -19.5245   20.8792 C.ar    1  UNL1        0.0422
      5 C          -4.2979  -20.1471   20.3277 C.ar    1  UNL1        0.0012
      6 C          -2.9797  -19.9086   21.0025 C.ar    1  UNL1        0.0030
      7 C          -2.9097  -19.0476   22.2288 C.ar    1  UNL1        0.0369
      8 C          -4.1580  -18.4250   22.7802 C.ar    1  UNL1        0.1384
      9 C          -5.4762  -18.6634   22.1055 C.ar    1  UNL1        0.0379
     10 O          -4.0880  -17.5639   24.0065 O.3     1  UNL1       -0.4755
     11 C          -4.7641  -16.2251   24.0224 C.3     1  UNL1        0.2057
     12 C          -5.4258  -15.7338   25.2757 C.3     1  UNL1        0.0561
     13 C          -6.8916  -15.4153   25.2747 C.3     1  UNL1        0.1072
     14 C          -7.6929  -15.5668   26.5336 C.3     1  UNL1        0.3979
     15 F          -8.4942  -15.7183   27.7926 F       1  UNL1       -0.1700
     16 F          -8.9470  -15.2517   25.7733 F       1  UNL1       -0.1700
     17 F          -6.4389  -15.8819   27.2939 F       1  UNL1       -0.1700
     18 C          -8.1827  -20.0013   19.5297 C.3     1  UNL1        0.1409
     19 N          -9.1869  -18.8913   19.4322 N.3     1  UNL1       -0.2850
     20 H          -8.9070  -18.1808   20.1083 H       1  UNL1        0.1239
     21 C         -10.6404  -19.1715   19.6751 C.3     1  UNL1        0.1553
     22 O         -12.2717  -17.2648   20.3485 O.2     1  UNL1       -0.2734
     23 C         -11.3842  -18.4113   20.7330 C.2     1  UNL1        0.2418
     24 N         -11.2403  -18.7977   22.1752 N.am    1  UNL1       -0.2784
     25 C         -11.9177  -18.1342   23.3375 C.3     1  UNL1        0.0935
     26 C         -11.4899  -18.8418   24.5890 C.3     1  UNL1        0.0233
     27 C         -10.5481  -19.9426   24.2001 C.3     1  UNL1        0.0233
     28 C         -10.3939  -19.9153   22.7083 C.3     1  UNL1        0.0935
@<TRIPOS>BOND
     1    22    23    2
     2    23    21    1
     3    21    19    1
     4    19    18    1
     5    18     1    1
     6     1     2    1
     7     1     3    1
     8     1     4    1
     9     4     5   ar
    10     5     6   ar
    11     6     7   ar
    12     7     8   ar
    13     8    10    1
    14    10    11    1
    15    11    12    1
    16    12    13    1
    17    13    14    1
    18    14    15    1
    19    14    16    1
    20    14    17    1
    21     8     9   ar
    22    23    24   am
    23    24    25    1
    24    25    26    1
    25    26    27    1
    26    27    28    1
    27     9     4   ar
    28    28    24    1
    29    19    20    1
@<TRIPOS>MOLECULE
*****
 28 29 0 0 0
SMALL
GASTEIGER

@<TRIPOS>ATOM
      1 C          -7.6684  -16.3465   23.8003 C.3     1  UNL1        0.2969
      2 F          -7.8185  -16.3534   25.2927 F       1  UNL1       -0.1981
      3 F          -7.5183  -16.3396   22.3079 F       1  UNL1       -0.1981
      4 C          -8.7259  -17.4045   23.6890 C.ar    1  UNL1        0.0422
      5 C          -9.5312  -17.7898   24.8944 C.ar    1  UNL1        0.0012
      6 C         -10.5887  -18.8477   24.7830 C.ar    1  UNL1        0.0030
      7 C         -10.8409  -19.5204   23.4662 C.ar    1  UNL1        0.0369
      8 C         -10.0356  -19.1352   22.2608 C.ar    1  UNL1        0.1384
      9 C          -8.9781  -18.0772   22.3722 C.ar    1  UNL1        0.0379
     10 O         -10.2878  -19.8078   20.9440 O.3     1  UNL1       -0.4755
     11 C         -10.6369  -18.9877   19.7376 C.3     1  UNL1        0.2057
     12 C         -11.2940  -17.6498   19.9047 C.3     1  UNL1        0.0561
     13 C         -12.3824  -17.4705   20.9214 C.3     1  UNL1        0.1072
     14 C         -12.2692  -16.3935   21.9592 C.3     1  UNL1        0.3979
     15 F         -12.1559  -15.3164   22.9971 F       1  UNL1       -0.1700
     16 F         -11.3334  -15.6325   21.0674 F       1  UNL1       -0.1700
     17 F         -13.2049  -17.1545   22.8510 F       1  UNL1       -0.1700
     18 C          -6.6109  -15.2886   23.9116 C.3     1  UNL1        0.1409
     19 N          -5.2092  -15.5792   23.4635 N.3     1  UNL1       -0.2850
     20 H          -5.1894  -15.4450   22.4526 H       1  UNL1        0.1239
     21 C          -4.5986  -16.9224   23.7340 C.3     1  UNL1        0.1553
     22 O          -2.2825  -17.0731   22.5665 O.2     1  UNL1       -0.2734
     23 C          -3.6954  -17.5543   22.7167 C.2     1  UNL1        0.2418
     24 N          -4.2048  -18.6672   21.8497 N.am    1  UNL1       -0.2784
     25 C          -3.4225  -19.3917   20.7947 C.3     1  UNL1        0.0935
     26 C          -4.3203  -20.4233   20.1783 C.3     1  UNL1        0.0233
     27 C          -5.6575  -20.3362   20.8525 C.3     1  UNL1        0.0233
     28 C          -5.5861  -19.2509   21.8854 C.3     1  UNL1        0.0935
@<TRIPOS>BOND
     1    22    23    2
     2    23    21    1
     3    21    19    1
     4    19    18    1
     5    18     1    1
     6     1     2    1
     7     1     3    1
     8     1     4    1
     9     4     5   ar
    10     5     6   ar
    11     6     7   ar
    12     7     8   ar
    13     8    10    1
    14    10    11    1
    15    11    12    1
    16    12    13    1
    17    13    14    1
    18    14    15    1
    19    14    16    1
    20    14    17    1
    21     8     9   ar
    22    23    24   am
    23    24    25    1
    24    25    26    1
    25    26    27    1
    26    27    28    1
    27     9     4   ar
    28    28    24    1
    29    19    20    1
@<TRIPOS>MOLECULE
*****
 28 29 0 0 0
SMALL
GASTEIGER

@<TRIPOS>ATOM
      1 C          -7.7663  -19.3501   21.1536 C.3     1  UNL1        0.2969
      2 F          -7.8060  -19.2363   19.6585 F       1  UNL1       -0.1981
      3 F          -7.7266  -19.4638   22.6487 F       1  UNL1       -0.1981
      4 C          -6.2844  -19.5763   21.0971 C.ar    1  UNL1        0.0422
      5 C          -5.7136  -20.5681   20.1274 C.ar    1  UNL1        0.0012
      6 C          -4.2319  -20.7942   20.0709 C.ar    1  UNL1        0.0030
      7 C          -3.3210  -20.0286   20.9842 C.ar    1  UNL1        0.0369
      8 C          -3.8918  -19.0368   21.9539 C.ar    1  UNL1        0.1384
      9 C          -5.3735  -18.8106   22.0104 C.ar    1  UNL1        0.0379
     10 O          -2.9809  -18.2712   22.8672 O.3     1  UNL1       -0.4755
     11 C          -2.7942  -16.7953   22.6755 C.3     1  UNL1        0.2057
     12 C          -2.0275  -16.2838   21.4920 C.3     1  UNL1        0.0561
     13 C          -1.0883  -17.1934   20.7566 C.3     1  UNL1        0.1072
     14 C          -1.3402  -17.5253   19.3157 C.3     1  UNL1        0.3979
     15 F          -1.5921  -17.8572   17.8747 F       1  UNL1       -0.1700
     16 F           0.0897  -17.9525   19.1641 F       1  UNL1       -0.1700
     17 F          -2.7701  -17.0981   19.4672 F       1  UNL1       -0.1700
     18 C          -9.2480  -19.1239   21.2102 C.3     1  UNL1        0.1409
     19 N          -9.8076  -17.7541   20.9637 N.3     1  UNL1       -0.2850
     20 H          -9.5509  -17.4984   20.0102 H       1  UNL1        0.1239
     21 C          -9.4019  -16.6088   21.8434 C.3     1  UNL1        0.1553
     22 O         -10.7671  -17.3543   23.9244 O.2     1  UNL1       -0.2734
     23 C          -9.5432  -16.7203   23.3325 C.2     1  UNL1        0.2418
     24 N          -8.4607  -16.1977   24.2298 N.am    1  UNL1       -0.2784
     25 C          -8.4621  -16.2388   25.7293 C.3     1  UNL1        0.0935
     26 C          -7.1890  -15.6088   26.2114 C.3     1  UNL1        0.0233
     27 C          -6.4009  -15.1784   25.0098 C.3     1  UNL1        0.0233
     28 C          -7.1868  -15.5424   23.7852 C.3     1  UNL1        0.0935
@<TRIPOS>BOND
     1    22    23    2
     2    23    21    1
     3    21    19    1
     4    19    18    1
     5    18     1    1
     6     1     2    1
     7     1     3    1
     8     1     4    1
     9     4     5   ar
    10     5     6   ar
    11     6     7   ar
    12     7     8   ar
    13     8    10    1
    14    10    11    1
    15    11    12    1
    16    12    13    1
    17    13    14    1
    18    14    15    1
    19    14    16    1
    20    14    17    1
    21     8     9   ar
    22    23    24   am
    23    24    25    1
    24    25    26    1
    25    26    27    1
    26    27    28    1
    27     9     4   ar
    28    28    24    1
    29    19    20    1
@<TRIPOS>MOLECULE
*****
 28 29 0 0 0
SMALL
GASTEIGER

@<TRIPOS>ATOM
      1 C          -7.9050  -19.3665   20.6116 C.3     1  UNL1        0.2969
      2 F          -7.5999  -19.4495   22.0779 F       1  UNL1       -0.1981
      3 F          -8.2101  -19.2835   19.1454 F       1  UNL1       -0.1981
      4 C          -6.4603  -19.6193   20.2966 C.ar    1  UNL1        0.0422
      5 C          -5.9168  -21.0167   20.3395 C.ar    1  UNL1        0.0012
      6 C          -4.4722  -21.2694   20.0245 C.ar    1  UNL1        0.0030
      7 C          -3.5712  -20.1248   19.6667 C.ar    1  UNL1        0.0369
      8 C          -4.1148  -18.7274   19.6238 C.ar    1  UNL1        0.1384
      9 C          -5.5594  -18.4747   19.9388 C.ar    1  UNL1        0.0379
     10 O          -3.2138  -17.5828   19.2660 O.3     1  UNL1       -0.4755
     11 C          -1.9703  -17.3288   20.0655 C.3     1  UNL1        0.2057
     12 C          -2.0670  -16.6947   21.4215 C.3     1  UNL1        0.0561
     13 C          -2.4329  -17.5272   22.6144 C.3     1  UNL1        0.1072
     14 C          -3.8703  -17.6650   23.0205 C.3     1  UNL1        0.3979
     15 F          -5.3077  -17.8027   23.4265 F       1  UNL1       -0.1700
     16 F          -3.7720  -19.1535   22.8632 F       1  UNL1       -0.1700
     17 F          -3.9685  -16.1765   23.1777 F       1  UNL1       -0.1700
     18 C          -9.3496  -19.1137   20.9266 C.3     1  UNL1        0.1409
     19 N          -9.7433  -18.5980   22.2790 N.3     1  UNL1       -0.2850
     20 H         -10.6614  -18.9901   22.4878 H       1  UNL1        0.1239
     21 C          -9.8385  -17.1204   22.5196 C.3     1  UNL1        0.1553
     22 O          -7.8049  -15.7807   21.6140 O.2     1  UNL1       -0.2734
     23 C          -8.5950  -16.3196   22.7697 C.2     1  UNL1        0.2418
     24 N          -8.1417  -16.0577   24.1753 N.am    1  UNL1       -0.2784
     25 C          -6.9254  -15.2780   24.5786 C.3     1  UNL1        0.0935
     26 C          -6.8570  -15.2678   26.0770 C.3     1  UNL1        0.0233
     27 C          -8.0311  -16.0413   26.5998 C.3     1  UNL1        0.0233
     28 C          -8.8250  -16.5294   25.4245 C.3     1  UNL1        0.0935
@<TRIPOS>BOND
     1    22    23    2
     2    23    21    1
     3    21    19    1
     4    19    18    1
     5    18     1    1
     6     1     2    1
     7     1     3    1
     8     1     4    1
     9     4     5   ar
    10     5     6   ar
    11     6     7   ar
    12     7     8   ar
    13     8    10    1
    14    10    11    1
    15    11    12    1
    16    12    13    1
    17    13    14    1
    18    14    15    1
    19    14    16    1
    20    14    17    1
    21     8     9   ar
    22    23    24   am
    23    24    25    1
    24    25    26    1
    25    26    27    1
    26    27    28    1
    27     9     4   ar
    28    28    24    1
    29    19    20    1
@<TRIPOS>MOLECULE
*****
 28 29 0 0 0
SMALL
GASTEIGER

@<TRIPOS>ATOM
      1 C          -7.2844  -16.1851   23.9044 C.3     1  UNL1        0.2969
      2 F          -7.2040  -16.2540   25.4006 F       1  UNL1       -0.1981
      3 F          -7.3649  -16.1162   22.4082 F       1  UNL1       -0.1981
      4 C          -8.3881  -17.2010   23.9169 C.ar    1  UNL1        0.0422
      5 C          -9.2019  -17.4090   25.1596 C.ar    1  UNL1        0.0012
      6 C         -10.3054  -18.4248   25.1721 C.ar    1  UNL1        0.0030
      7 C         -10.5952  -19.2326   23.9418 C.ar    1  UNL1        0.0369
      8 C          -9.7814  -19.0246   22.6991 C.ar    1  UNL1        0.1384
      9 C          -8.6778  -18.0088   22.6866 C.ar    1  UNL1        0.0379
     10 O         -10.0711  -19.8324   21.4689 O.3     1  UNL1       -0.4755
     11 C         -11.1699  -19.4131   20.5379 C.3     1  UNL1        0.2057
     12 C         -11.0874  -18.0958   19.8253 C.3     1  UNL1        0.0561
     13 C         -11.8129  -16.9014   20.3706 C.3     1  UNL1        0.1072
     14 C         -12.3753  -16.9357   21.7607 C.3     1  UNL1        0.3979
     15 F         -12.9377  -16.9700   23.1509 F       1  UNL1       -0.1700
     16 F         -13.4772  -17.8394   21.2927 F       1  UNL1       -0.1700
     17 F         -11.2734  -16.0320   22.2288 F       1  UNL1       -0.1700
     18 C          -6.1809  -15.1693   23.8918 C.3     1  UNL1        0.1409
     19 N          -4.8202  -15.5463   23.3856 N.3     1  UNL1       -0.2850
     20 H          -4.8610  -15.4982   22.3675 H       1  UNL1        0.1239
     21 C          -4.2346  -16.8829   23.7328 C.3     1  UNL1        0.1553
     22 O          -4.9109  -19.1116   22.5814 O.2     1  UNL1       -0.2734
     23 C          -4.0183  -17.9086   22.6598 C.2     1  UNL1        0.2418
     24 N          -2.9095  -17.7312   21.6653 N.am    1  UNL1       -0.2784
     25 C          -2.5737  -18.6680   20.5429 C.3     1  UNL1        0.0935
     26 C          -1.3985  -18.1017   19.8024 C.3     1  UNL1        0.0233
     27 C          -1.0081  -16.8149   20.4672 C.3     1  UNL1        0.0233
     28 C          -1.9420  -16.5860   21.6185 C.3     1  UNL1        0.0935
@<TRIPOS>BOND
     1    22    23    2
     2    23    21    1
     3    21    19    1
     4    19    18    1
     5    18     1    1
     6     1     2    1
     7     1     3    1
     8     1     4    1
     9     4     5   ar
    10     5     6   ar
    11     6     7   ar
    12     7     8   ar
    13     8    10    1
    14    10    11    1
    15    11    12    1
    16    12    13    1
    17    13    14    1
    18    14    15    1
    19    14    16    1
    20    14    17    1
    21     8     9   ar
    22    23    24   am
    23    24    25    1
    24    25    26    1
    25    26    27    1
    26    27    28    1
    27     9     4   ar
    28    28    24    1
    29    19    20    1
@<TRIPOS>MOLECULE
*****
 28 29 0 0 0
SMALL
GASTEIGER

@<TRIPOS>ATOM
      1 C          -8.5918  -19.8835   22.0823 C.3     1  UNL1        0.2969
      2 F          -8.1568  -20.3337   23.4454 F       1  UNL1       -0.1981
      3 F          -9.0268  -19.4333   20.7192 F       1  UNL1       -0.1981
      4 C          -7.1565  -19.7722   21.6609 C.ar    1  UNL1        0.0422
      5 C          -6.5948  -20.7290   20.6515 C.ar    1  UNL1        0.0012
      6 C          -5.1596  -20.6177   20.2301 C.ar    1  UNL1        0.0030
      7 C          -4.2859  -19.5495   20.8182 C.ar    1  UNL1        0.0369
      8 C          -4.8476  -18.5927   21.8277 C.ar    1  UNL1        0.1384
      9 C          -6.2829  -18.7041   22.2490 C.ar    1  UNL1        0.0379
     10 O          -3.9740  -17.5246   22.4158 O.3     1  UNL1       -0.4755
     11 C          -4.2034  -17.0585   23.8229 C.3     1  UNL1        0.2057
     12 C          -5.0627  -15.8571   24.0844 C.3     1  UNL1        0.0561
     13 C          -5.3941  -15.4645   25.4937 C.3     1  UNL1        0.1072
     14 C          -6.8257  -15.3964   25.9363 C.3     1  UNL1        0.3979
     15 F          -8.2573  -15.3283   26.3789 F       1  UNL1       -0.1700
     16 F          -6.3945  -15.5870   27.3603 F       1  UNL1       -0.1700
     17 F          -7.2569  -15.2058   24.5123 F       1  UNL1       -0.1700
     18 C         -10.0271  -19.9948   22.5036 C.3     1  UNL1        0.1409
     19 N         -10.4476  -19.5263   23.8651 N.3     1  UNL1       -0.2850
     20 H         -11.1163  -20.2106   24.2185 H       1  UNL1        0.1239
     21 C         -11.0804  -18.1765   24.0315 C.3     1  UNL1        0.1553
     22 O         -13.5879  -18.0370   23.3657 O.2     1  UNL1       -0.2734
     23 C         -12.1485  -17.7264   23.0794 C.2     1  UNL1        0.2418
     24 N         -11.7773  -16.9659   21.8410 N.am    1  UNL1       -0.2784
     25 C         -12.7304  -16.4536   20.8020 C.3     1  UNL1        0.0935
     26 C         -11.9300  -15.7552   19.7430 C.3     1  UNL1        0.0233
     27 C         -10.4823  -15.8358   20.1274 C.3     1  UNL1        0.0233
     28 C         -10.3880  -16.5840   21.4241 C.3     1  UNL1        0.0935
@<TRIPOS>BOND
     1    22    23    2
     2    23    21    1
     3    21    19    1
     4    19    18    1
     5    18     1    1
     6     1     2    1
     7     1     3    1
     8     1     4    1
     9     4     5   ar
    10     5     6   ar
    11     6     7   ar
    12     7     8   ar
    13     8    10    1
    14    10    11    1
    15    11    12    1
    16    12    13    1
    17    13    14    1
    18    14    15    1
    19    14    16    1
    20    14    17    1
    21     8     9   ar
    22    23    24   am
    23    24    25    1
    24    25    26    1
    25    26    27    1
    26    27    28    1
    27     9     4   ar
    28    28    24    1
    29    19    20    1
@<TRIPOS>MOLECULE
*****
 28 29 0 0 0
SMALL
GASTEIGER

@<TRIPOS>ATOM
      1 C           8.1209   -8.3675   26.4166 C.3     1  UNL1        0.2969
      2 F           9.5359   -8.8095   26.1877 F       1  UNL1       -0.1981
      3 F           6.7059   -7.9254   26.6455 F       1  UNL1       -0.1981
      4 C           8.2315   -7.4157   25.2625 C.ar    1  UNL1        0.0422
      5 C           9.2471   -7.6576   24.1855 C.ar    1  UNL1        0.0012
      6 C           9.3576   -6.7059   23.0314 C.ar    1  UNL1        0.0030
      7 C           8.4525   -5.5122   22.9543 C.ar    1  UNL1        0.0369
      8 C           7.4369   -5.2702   24.0313 C.ar    1  UNL1        0.1384
      9 C           7.3264   -6.2220   25.1854 C.ar    1  UNL1        0.0379
     10 O           6.5318   -4.0765   23.9543 O.3     1  UNL1       -0.4755
     11 C           6.2449   -3.4373   22.6280 C.3     1  UNL1        0.2057
     12 C           5.0103   -3.8154   21.8646 C.3     1  UNL1        0.0561
     13 C           4.9054   -3.4967   20.4026 C.3     1  UNL1        0.1072
     14 C           3.7755   -4.0584   19.5917 C.3     1  UNL1        0.3979
     15 F           2.6455   -4.6201   18.7808 F       1  UNL1       -0.1700
     16 F           4.6059   -5.2656   19.2708 F       1  UNL1       -0.1700
     17 F           2.9450   -2.8512   19.9126 F       1  UNL1       -0.1700
     18 C           8.0103   -9.3192   27.5707 C.3     1  UNL1        0.1409
     19 N           6.8026  -10.1988   27.7043 N.3     1  UNL1       -0.2850
     20 H           6.2062   -9.7742   28.4145 H       1  UNL1        0.1239
     21 C           6.9639  -11.6419   28.0806 C.3     1  UNL1        0.1553
     22 O           6.5505  -13.5181   26.3315 O.2     1  UNL1       -0.2734
     23 C           6.0647  -12.6795   27.4765 C.2     1  UNL1        0.2418
     24 N           4.6798  -12.8784   28.0172 N.am    1  UNL1       -0.2784
     25 C           3.6726  -13.8717   27.5181 C.3     1  UNL1        0.0935
     26 C           2.4293  -13.7262   28.3444 C.3     1  UNL1        0.0233
     27 C           2.6680  -12.6430   29.3543 C.3     1  UNL1        0.0233
     28 C           4.0589  -12.1190   29.1520 C.3     1  UNL1        0.0935
@<TRIPOS>BOND
     1    22    23    2
     2    23    21    1
     3    21    19    1
     4    19    18    1
     5    18     1    1
     6     1     2    1
     7     1     3    1
     8     1     4    1
     9     4     5   ar
    10     5     6   ar
    11     6     7   ar
    12     7     8   ar
    13     8    10    1
    14    10    11    1
    15    11    12    1
    16    12    13    1
    17    13    14    1
    18    14    15    1
    19    14    16    1
    20    14    17    1
    21     8     9   ar
    22    23    24   am
    23    24    25    1
    24    25    26    1
    25    26    27    1
    26    27    28    1
    27     9     4   ar
    28    28    24    1
    29    19    20    1
@<TRIPOS>MOLECULE
*****
 28 29 0 0 0
SMALL
GASTEIGER

@<TRIPOS>ATOM
      1 C         -12.4598   -7.1142   16.8099 C.3     1  UNL1        0.2969
      2 F         -11.3544   -8.1255   16.7356 F       1  UNL1       -0.1981
      3 F         -13.5651   -6.1030   16.8842 F       1  UNL1       -0.1981
      4 C         -11.5581   -6.1841   17.5662 C.ar    1  UNL1        0.0422
      5 C         -10.4797   -6.7381   18.4494 C.ar    1  UNL1        0.0012
      6 C          -9.5781   -5.8080   19.2056 C.ar    1  UNL1        0.0030
      7 C          -9.7548   -4.3239   19.0786 C.ar    1  UNL1        0.0369
      8 C         -10.8332   -3.7699   18.1953 C.ar    1  UNL1        0.1384
      9 C         -11.7348   -4.7000   17.4391 C.ar    1  UNL1        0.0379
     10 O         -11.0099   -2.2857   18.0683 O.3     1  UNL1       -0.4755
     11 C         -11.9539   -1.5619   18.9821 C.3     1  UNL1        0.2057
     12 C         -13.4330   -1.6365   18.7443 C.3     1  UNL1        0.0561
     13 C         -14.3202   -2.3160   19.7451 C.3     1  UNL1        0.1072
     14 C         -13.9792   -3.6910   20.2379 C.3     1  UNL1        0.3979
     15 F         -13.6381   -5.0661   20.7308 F       1  UNL1       -0.1700
     16 F         -14.5281   -4.2807   18.9727 F       1  UNL1       -0.1700
     17 F         -13.4302   -3.1014   21.5032 F       1  UNL1       -0.1700
     18 C         -13.3615   -8.0443   16.0537 C.3     1  UNL1        0.1409
     19 N         -14.6698   -8.4708   16.6506 N.3     1  UNL1       -0.2850
     20 H         -15.2539   -7.6364   16.7064 H       1  UNL1        0.1239
     21 C         -14.7020   -9.1133   18.0057 C.3     1  UNL1        0.1553
     22 O         -16.1630  -11.2121   18.4646 O.2     1  UNL1       -0.2734
     23 C         -15.9732   -9.7250   18.5156 C.2     1  UNL1        0.2418
     24 N         -17.0544   -8.8497   19.0766 N.am    1  UNL1       -0.2784
     25 C         -18.3724   -9.3155   19.6206 C.3     1  UNL1        0.0935
     26 C         -19.1401   -8.1086   20.0723 C.3     1  UNL1        0.0233
     27 C         -18.2965   -6.8969   19.8073 C.3     1  UNL1        0.0233
     28 C         -17.0075   -7.3549   19.1919 C.3     1  UNL1        0.0935
@<TRIPOS>BOND
     1    22    23    2
     2    23    21    1
     3    21    19    1
     4    19    18    1
     5    18     1    1
     6     1     2    1
     7     1     3    1
     8     1     4    1
     9     4     5   ar
    10     5     6   ar
    11     6     7   ar
    12     7     8   ar
    13     8    10    1
    14    10    11    1
    15    11    12    1
    16    12    13    1
    17    13    14    1
    18    14    15    1
    19    14    16    1
    20    14    17    1
    21     8     9   ar
    22    23    24   am
    23    24    25    1
    24    25    26    1
    25    26    27    1
    26    27    28    1
    27     9     4   ar
    28    28    24    1
    29    19    20    1
