@<TRIPOS>MOLECULE
*****
 27 29 0 0 0
SMALL
GASTEIGER

@<TRIPOS>ATOM
      1 C           5.9281   -2.5268   32.4400 C.ar    1  UNL1        0.0442
      2 C           4.6108   -2.6736   33.1422 C.ar    1  UNL1        0.0085
      3 C           4.2418   -1.7310   34.2491 C.ar    1  UNL1        0.0074
      4 C           5.1901   -0.6416   34.6538 C.ar    1  UNL1        0.0810
      5 C           6.5074   -0.4948   33.9517 C.ar    1  UNL1        0.1451
      6 F           7.4557    0.5947   34.3564 F       1  UNL1       -0.2040
      7 C           6.8764   -1.4374   32.8448 C.ar    1  UNL1        0.0380
      8 C           4.8210    0.3011   35.7608 C.2     1  UNL1        0.2513
      9 O           5.4099    0.1192   37.1283 O.2     1  UNL1       -0.2698
     10 N           3.8632    1.4256   35.5002 N.am    1  UNL1       -0.2735
     11 C           3.2743    1.6075   34.1326 C.3     1  UNL1        0.0939
     12 C           2.3164    2.7320   33.8720 C.3     1  UNL1        0.0241
     13 C           1.9474    3.6746   34.9789 C.3     1  UNL1        0.0328
     14 C           2.5362    3.4927   36.3464 C.3     1  UNL1        0.1303
     15 O           2.1672    4.4354   37.4533 O.3     1  UNL1       -0.3827
     16 C           3.4941    2.3682   36.6071 C.3     1  UNL1        0.1228
     17 H           2.6321    4.1787   38.2650 H       1  UNL1        0.2104
     18 C           6.6662   -4.4121   30.2262 C.1     1  UNL1       -0.0597
     19 C           6.2971   -3.4695   31.3331 C.1     1  UNL1       -0.0597
     20 C           7.7733   -7.2400   26.9054 C.ar    1  UNL1        0.1388
     21 C           6.7219   -6.1941   26.6806 C.ar    1  UNL1        0.0375
     22 C           6.3529   -5.2514   27.7875 C.ar    1  UNL1        0.0114
     23 C           7.0352   -5.3547   29.1193 C.ar    1  UNL1        0.0422
     24 C           8.0866   -6.4007   29.3441 C.ar    1  UNL1        0.0114
     25 C           8.4556   -7.3433   28.2372 C.ar    1  UNL1        0.0375
     26 C           8.4517   -7.6493   24.4312 C.3     1  UNL1        0.2525
     27 O           8.1423   -8.1826   25.7985 O.3     1  UNL1       -0.4714
@<TRIPOS>BOND
     1    26    27    1
     2    27    20    1
     3    20    21   ar
     4    21    22   ar
     5    22    23   ar
     6    23    18    1
     7    18    19    3
     8    19     1    1
     9     1     2   ar
    10     2     3   ar
    11     3     4   ar
    12     4     8    1
    13     8     9    2
    14     8    10   am
    15    10    11    1
    16    11    12    1
    17    12    13    1
    18    13    14    1
    19    14    15    1
    20    14    16    1
    21     4     5   ar
    22     5     6    1
    23     5     7   ar
    24    23    24   ar
    25    24    25   ar
    26    25    20   ar
    27     7     1   ar
    28    16    10    1
    29    15    17    1
@<TRIPOS>MOLECULE
*****
 27 29 0 0 0
SMALL
GASTEIGER

@<TRIPOS>ATOM
      1 C         -15.3983   -1.8081   19.6196 C.ar    1  UNL1        0.0442
      2 C         -15.3808   -2.1418   18.1574 C.ar    1  UNL1        0.0085
      3 C         -14.8277   -3.4571   17.6948 C.ar    1  UNL1        0.0074
      4 C         -14.2920   -4.4387   18.6945 C.ar    1  UNL1        0.0810
      5 C         -14.3095   -4.1050   20.1567 C.ar    1  UNL1        0.1451
      6 F         -13.7738   -5.0867   21.1565 F       1  UNL1       -0.2040
      7 C         -14.8626   -2.7897   20.6193 C.ar    1  UNL1        0.0380
      8 C         -13.7389   -5.7540   18.2319 C.2     1  UNL1        0.2513
      9 O         -14.6538   -6.7878   17.6453 O.2     1  UNL1       -0.2698
     10 N         -12.2708   -6.0356   18.3559 N.am    1  UNL1       -0.2735
     11 C         -11.3558   -5.0018   18.9426 C.3     1  UNL1        0.0939
     12 C          -9.8877   -5.2833   19.0666 C.3     1  UNL1        0.0241
     13 C          -9.3346   -6.5987   18.6040 C.3     1  UNL1        0.0328
     14 C         -10.2495   -7.6324   18.0174 C.3     1  UNL1        0.1303
     15 O          -9.6964   -8.9477   17.5549 O.3     1  UNL1       -0.3827
     16 C         -11.7177   -7.3509   17.8934 C.3     1  UNL1        0.1228
     17 H         -10.4160   -9.4960   17.2050 H       1  UNL1        0.2104
     18 C         -16.5046    0.8226   20.5448 C.1     1  UNL1       -0.0597
     19 C         -15.9514   -0.4928   20.0822 C.1     1  UNL1       -0.0597
     20 C         -18.1640    4.7685   21.9325 C.ar    1  UNL1        0.1388
     21 C         -17.9641    3.6521   22.9141 C.ar    1  UNL1        0.0375
     22 C         -17.4110    2.3367   22.4515 C.ar    1  UNL1        0.0114
     23 C         -17.0577    2.1379   21.0074 C.ar    1  UNL1        0.0422
     24 C         -17.2576    3.2543   20.0258 C.ar    1  UNL1        0.0114
     25 C         -17.8108    4.5696   20.4884 C.ar    1  UNL1        0.0375
     26 C         -18.1960    6.7165   23.6513 C.3     1  UNL1        0.2525
     27 O         -18.7171    6.0838   22.3951 O.3     1  UNL1       -0.4714
@<TRIPOS>BOND
     1    26    27    1
     2    27    20    1
     3    20    21   ar
     4    21    22   ar
     5    22    23   ar
     6    23    18    1
     7    18    19    3
     8    19     1    1
     9     1     2   ar
    10     2     3   ar
    11     3     4   ar
    12     4     8    1
    13     8     9    2
    14     8    10   am
    15    10    11    1
    16    11    12    1
    17    12    13    1
    18    13    14    1
    19    14    15    1
    20    14    16    1
    21     4     5   ar
    22     5     6    1
    23     5     7   ar
    24    23    24   ar
    25    24    25   ar
    26    25    20   ar
    27     7     1   ar
    28    16    10    1
    29    15    17    1
@<TRIPOS>MOLECULE
*****
 27 29 0 0 0
SMALL
GASTEIGER

@<TRIPOS>ATOM
      1 C          -0.2995    2.5497   20.2848 C.ar    1  UNL1        0.0442
      2 C          -0.0023    2.6766   18.8201 C.ar    1  UNL1        0.0085
      3 C           1.3458    2.2847   18.2917 C.ar    1  UNL1        0.0074
      4 C           2.3965    1.7659   19.2280 C.ar    1  UNL1        0.0810
      5 C           2.0992    1.6390   20.6927 C.ar    1  UNL1        0.1451
      6 F           3.1500    1.1201   21.6291 F       1  UNL1       -0.2040
      7 C           0.7512    2.0309   21.2211 C.ar    1  UNL1        0.0380
      8 C           3.7445    1.3739   18.6996 C.2     1  UNL1        0.2513
      9 O           4.6988    2.4284   18.2228 O.2     1  UNL1       -0.2698
     10 N           4.1383   -0.0725   18.6479 N.am    1  UNL1       -0.2735
     11 C           3.1841   -1.1271   19.1247 C.3     1  UNL1        0.0939
     12 C           3.5778   -2.5735   19.0731 C.3     1  UNL1        0.0241
     13 C           4.9259   -2.9655   18.5447 C.3     1  UNL1        0.0328
     14 C           5.8801   -1.9109   18.0679 C.3     1  UNL1        0.1303
     15 O           7.2281   -2.3029   17.5395 O.3     1  UNL1       -0.3827
     16 C           5.4863   -0.4644   18.1195 C.3     1  UNL1        0.1228
     17 H           7.7160   -1.5070   17.2759 H       1  UNL1        0.2104
     18 C          -2.9956    3.3335   21.3417 C.1     1  UNL1       -0.0597
     19 C          -1.6476    2.9416   20.8133 C.1     1  UNL1       -0.0597
     20 C          -7.0396    4.5093   22.9270 C.ar    1  UNL1        0.1388
     21 C          -5.9850    4.0016   23.8650 C.ar    1  UNL1        0.0375
     22 C          -4.6370    3.6097   23.3366 C.ar    1  UNL1        0.0114
     23 C          -4.3436    3.7255   21.8701 C.ar    1  UNL1        0.0422
     24 C          -5.3983    4.2331   20.9321 C.ar    1  UNL1        0.0114
     25 C          -6.7463    4.6250   21.4605 C.ar    1  UNL1        0.0375
     26 C          -8.4946    5.8907   24.5776 C.3     1  UNL1        0.2525
     27 O          -8.3877    4.9012   23.4554 O.3     1  UNL1       -0.4714
@<TRIPOS>BOND
     1    26    27    1
     2    27    20    1
     3    20    21   ar
     4    21    22   ar
     5    22    23   ar
     6    23    18    1
     7    18    19    3
     8    19     1    1
     9     1     2   ar
    10     2     3   ar
    11     3     4   ar
    12     4     8    1
    13     8     9    2
    14     8    10   am
    15    10    11    1
    16    11    12    1
    17    12    13    1
    18    13    14    1
    19    14    15    1
    20    14    16    1
    21     4     5   ar
    22     5     6    1
    23     5     7   ar
    24    23    24   ar
    25    24    25   ar
    26    25    20   ar
    27     7     1   ar
    28    16    10    1
    29    15    17    1
@<TRIPOS>MOLECULE
*****
 27 29 0 0 0
SMALL
GASTEIGER

@<TRIPOS>ATOM
      1 C          -0.9548    1.8595   27.5312 C.ar    1  UNL1        0.0442
      2 C          -1.1471    0.6222   28.3570 C.ar    1  UNL1        0.0085
      3 C           0.0441   -0.1619   28.8217 C.ar    1  UNL1        0.0074
      4 C           1.4277    0.2912   28.4606 C.ar    1  UNL1        0.0810
      5 C           1.6200    1.5284   27.6347 C.ar    1  UNL1        0.1451
      6 F           3.0036    1.9816   27.2735 F       1  UNL1       -0.2040
      7 C           0.4287    2.3126   27.1700 C.ar    1  UNL1        0.0380
      8 C           2.6189   -0.4930   28.9253 C.2     1  UNL1        0.2513
      9 O           3.2853   -1.4652   27.9975 O.2     1  UNL1       -0.2698
     10 N           3.1439   -0.3051   30.3178 N.am    1  UNL1       -0.2735
     11 C           2.4775    0.6672   31.2456 C.3     1  UNL1        0.0939
     12 C           3.0024    0.8551   32.6381 C.3     1  UNL1        0.0241
     13 C           4.1937    0.0710   33.1028 C.3     1  UNL1        0.0328
     14 C           4.8600   -0.9012   32.1751 C.3     1  UNL1        0.1303
     15 O           6.0513   -1.6854   32.6398 O.3     1  UNL1       -0.3827
     16 C           4.3351   -1.0892   30.7825 C.3     1  UNL1        0.1228
     17 H           6.3578   -2.2628   31.9232 H       1  UNL1        0.2104
     18 C          -3.3373    3.4279   26.6017 C.1     1  UNL1       -0.0597
     19 C          -2.1461    2.6437   27.0664 C.1     1  UNL1       -0.0597
     20 C          -6.9111    5.7805   25.2076 C.ar    1  UNL1        0.1388
     21 C          -6.4056    4.6292   24.3898 C.ar    1  UNL1        0.0375
     22 C          -5.2143    3.8450   24.8545 C.ar    1  UNL1        0.0114
     23 C          -4.5286    4.2121   26.1370 C.ar    1  UNL1        0.0422
     24 C          -5.0341    5.3634   26.9549 C.ar    1  UNL1        0.0114
     25 C          -6.2254    6.1476   26.4901 C.ar    1  UNL1        0.0375
     26 C          -9.4670    5.9427   24.7707 C.3     1  UNL1        0.2525
     27 O          -8.1024    6.5647   24.7429 O.3     1  UNL1       -0.4714
@<TRIPOS>BOND
     1    26    27    1
     2    27    20    1
     3    20    21   ar
     4    21    22   ar
     5    22    23   ar
     6    23    18    1
     7    18    19    3
     8    19     1    1
     9     1     2   ar
    10     2     3   ar
    11     3     4   ar
    12     4     8    1
    13     8     9    2
    14     8    10   am
    15    10    11    1
    16    11    12    1
    17    12    13    1
    18    13    14    1
    19    14    15    1
    20    14    16    1
    21     4     5   ar
    22     5     6    1
    23     5     7   ar
    24    23    24   ar
    25    24    25   ar
    26    25    20   ar
    27     7     1   ar
    28    16    10    1
    29    15    17    1
@<TRIPOS>MOLECULE
*****
 27 29 0 0 0
SMALL
GASTEIGER

@<TRIPOS>ATOM
      1 C         -15.5744   -2.4113   19.4484 C.ar    1  UNL1        0.0442
      2 C         -16.1887   -3.0035   18.2148 C.ar    1  UNL1        0.0085
      3 C         -15.8003   -4.3829   17.7717 C.ar    1  UNL1        0.0074
      4 C         -14.7977   -5.1701   18.5622 C.ar    1  UNL1        0.0810
      5 C         -14.1834   -4.5779   19.7959 C.ar    1  UNL1        0.1451
      6 F         -13.1807   -5.3651   20.5865 F       1  UNL1       -0.2040
      7 C         -14.5718   -3.1984   20.2389 C.ar    1  UNL1        0.0380
      8 C         -14.4093   -6.5496   18.1191 C.2     1  UNL1        0.2513
      9 O         -13.1836   -6.7498   17.2781 O.2     1  UNL1       -0.2698
     10 N         -15.2466   -7.7287   18.5172 N.am    1  UNL1       -0.2735
     11 C         -16.4724   -7.5284   19.3583 C.3     1  UNL1        0.0939
     12 C         -17.3097   -8.7076   19.7563 C.3     1  UNL1        0.0241
     13 C         -16.9214  -10.0870   19.3132 C.3     1  UNL1        0.0328
     14 C         -15.6957  -10.2873   18.4721 C.3     1  UNL1        0.1303
     15 O         -15.3073  -11.6667   18.0290 O.3     1  UNL1       -0.3827
     16 C         -14.8582   -9.1081   18.0741 C.3     1  UNL1        0.1228
     17 H         -14.4973  -11.6195   17.4974 H       1  UNL1        0.2104
     18 C         -16.3512    0.3476   20.3346 C.1     1  UNL1       -0.0597
     19 C         -15.9628   -1.0318   19.8915 C.1     1  UNL1       -0.0597
     20 C         -17.5163    4.4859   21.6638 C.ar    1  UNL1        0.1388
     21 C         -16.7779    4.2930   20.3725 C.ar    1  UNL1        0.0375
     22 C         -16.3896    2.9136   19.9294 C.ar    1  UNL1        0.0114
     23 C         -16.7396    1.7271   20.7776 C.ar    1  UNL1        0.0422
     24 C         -17.4780    1.9199   22.0689 C.ar    1  UNL1        0.0114
     25 C         -17.8664    3.2994   22.5120 C.ar    1  UNL1        0.0375
     26 C         -18.5351    6.0713   23.4523 C.3     1  UNL1        0.2525
     27 O         -17.9047    5.8654   22.1069 O.3     1  UNL1       -0.4714
@<TRIPOS>BOND
     1    26    27    1
     2    27    20    1
     3    20    21   ar
     4    21    22   ar
     5    22    23   ar
     6    23    18    1
     7    18    19    3
     8    19     1    1
     9     1     2   ar
    10     2     3   ar
    11     3     4   ar
    12     4     8    1
    13     8     9    2
    14     8    10   am
    15    10    11    1
    16    11    12    1
    17    12    13    1
    18    13    14    1
    19    14    15    1
    20    14    16    1
    21     4     5   ar
    22     5     6    1
    23     5     7   ar
    24    23    24   ar
    25    24    25   ar
    26    25    20   ar
    27     7     1   ar
    28    16    10    1
    29    15    17    1
@<TRIPOS>MOLECULE
*****
 27 29 0 0 0
SMALL
GASTEIGER

@<TRIPOS>ATOM
      1 C           5.4070   -3.0086   22.2514 C.ar    1  UNL1        0.0442
      2 C           5.6412   -1.5299   22.1593 C.ar    1  UNL1        0.0085
      3 C           4.9601   -0.7278   21.0902 C.ar    1  UNL1        0.0074
      4 C           4.0449   -1.4045   20.1133 C.ar    1  UNL1        0.0810
      5 C           3.8108   -2.8832   20.2053 C.ar    1  UNL1        0.1451
      6 F           2.8955   -3.5599   19.2283 F       1  UNL1       -0.2040
      7 C           4.4918   -3.6853   21.2744 C.ar    1  UNL1        0.0380
      8 C           3.3639   -0.6024   19.0442 C.2     1  UNL1        0.2513
      9 O           3.8342   -0.6949   17.6229 O.2     1  UNL1       -0.2698
     10 N           2.2125    0.2921   19.3965 N.am    1  UNL1       -0.2735
     11 C           1.7421    0.3846   20.8179 C.3     1  UNL1        0.0939
     12 C           0.5908    1.2791   21.1701 C.3     1  UNL1        0.0241
     13 C          -0.0903    2.0812   20.1011 C.3     1  UNL1        0.0328
     14 C           0.3801    1.9887   18.6797 C.3     1  UNL1        0.1303
     15 O          -0.3010    2.7908   17.6107 O.3     1  UNL1       -0.3827
     16 C           1.5315    1.0942   18.3274 C.3     1  UNL1        0.1228
     17 H           0.1231    2.6163   16.7559 H       1  UNL1        0.2104
     18 C           6.7691   -4.6128   24.3895 C.1     1  UNL1       -0.0597
     19 C           6.0880   -3.8107   23.3204 C.1     1  UNL1       -0.0597
     20 C           8.8122   -7.0190   27.5966 C.ar    1  UNL1        0.1388
     21 C           8.5462   -5.5582   27.8097 C.ar    1  UNL1        0.0375
     22 C           7.8651   -4.7562   26.7406 C.ar    1  UNL1        0.0114
     23 C           7.4501   -5.4148   25.4585 C.ar    1  UNL1        0.0422
     24 C           7.7161   -6.8756   25.2455 C.ar    1  UNL1        0.0114
     25 C           8.3972   -7.6776   26.3145 C.ar    1  UNL1        0.0375
     26 C           9.5344   -7.3099   30.0753 C.3     1  UNL1        0.2525
     27 O           9.4932   -7.8211   28.6657 O.3     1  UNL1       -0.4714
@<TRIPOS>BOND
     1    26    27    1
     2    27    20    1
     3    20    21   ar
     4    21    22   ar
     5    22    23   ar
     6    23    18    1
     7    18    19    3
     8    19     1    1
     9     1     2   ar
    10     2     3   ar
    11     3     4   ar
    12     4     8    1
    13     8     9    2
    14     8    10   am
    15    10    11    1
    16    11    12    1
    17    12    13    1
    18    13    14    1
    19    14    15    1
    20    14    16    1
    21     4     5   ar
    22     5     6    1
    23     5     7   ar
    24    23    24   ar
    25    24    25   ar
    26    25    20   ar
    27     7     1   ar
    28    16    10    1
    29    15    17    1
@<TRIPOS>MOLECULE
*****
 27 29 0 0 0
SMALL
GASTEIGER

@<TRIPOS>ATOM
      1 C           0.4722    1.8975   24.2093 C.ar    1  UNL1        0.0442
      2 C           0.3382    3.3372   23.8100 C.ar    1  UNL1        0.0085
      3 C          -0.4414    4.2852   24.6724 C.ar    1  UNL1        0.0074
      4 C          -1.0868    3.7935   25.9340 C.ar    1  UNL1        0.0810
      5 C          -0.9527    2.3539   26.3332 C.ar    1  UNL1        0.1451
      6 F          -1.5982    1.8622   27.5948 F       1  UNL1       -0.2040
      7 C          -0.1732    1.4059   25.4709 C.ar    1  UNL1        0.0380
      8 C          -1.8663    4.7415   26.7963 C.2     1  UNL1        0.2513
      9 O          -1.1866    5.4632   27.9220 O.2     1  UNL1       -0.2698
     10 N          -3.3256    4.9678   26.5331 N.am    1  UNL1       -0.2735
     11 C          -4.0054    4.2461   25.4074 C.3     1  UNL1        0.0939
     12 C          -5.4646    4.4723   25.1441 C.3     1  UNL1        0.0241
     13 C          -6.2442    5.4203   26.0065 C.3     1  UNL1        0.0328
     14 C          -5.5644    6.1420   27.1321 C.3     1  UNL1        0.1303
     15 O          -6.3440    7.0900   27.9944 O.3     1  UNL1       -0.3827
     16 C          -4.1051    5.9158   27.3954 C.3     1  UNL1        0.1228
     17 H          -5.7591    7.4688   28.6692 H       1  UNL1        0.2104
     18 C           2.0313    0.0016   22.4846 C.1     1  UNL1       -0.0597
     19 C           1.2518    0.9496   23.3469 C.1     1  UNL1       -0.0597
     20 C           4.3699   -2.8424   19.8975 C.ar    1  UNL1        0.1388
     21 C           4.6274   -2.7872   21.3742 C.ar    1  UNL1        0.0375
     22 C           3.8479   -1.8392   22.2365 C.ar    1  UNL1        0.0114
     23 C           2.8108   -0.9464   21.6222 C.ar    1  UNL1        0.0422
     24 C           2.5533   -1.0016   20.1455 C.ar    1  UNL1        0.0114
     25 C           3.3328   -1.9496   19.2832 C.ar    1  UNL1        0.0375
     26 C           4.6251   -5.1714   18.7748 C.3     1  UNL1        0.2525
     27 O           5.1494   -3.7904   19.0352 O.3     1  UNL1       -0.4714
@<TRIPOS>BOND
     1    26    27    1
     2    27    20    1
     3    20    21   ar
     4    21    22   ar
     5    22    23   ar
     6    23    18    1
     7    18    19    3
     8    19     1    1
     9     1     2   ar
    10     2     3   ar
    11     3     4   ar
    12     4     8    1
    13     8     9    2
    14     8    10   am
    15    10    11    1
    16    11    12    1
    17    12    13    1
    18    13    14    1
    19    14    15    1
    20    14    16    1
    21     4     5   ar
    22     5     6    1
    23     5     7   ar
    24    23    24   ar
    25    24    25   ar
    26    25    20   ar
    27     7     1   ar
    28    16    10    1
    29    15    17    1
@<TRIPOS>MOLECULE
*****
 27 29 0 0 0
SMALL
GASTEIGER

@<TRIPOS>ATOM
      1 C           0.3151    2.7101   22.0032 C.ar    1  UNL1        0.0442
      2 C           1.7630    2.8612   22.3644 C.ar    1  UNL1        0.0085
      3 C           2.8258    2.4039   21.4098 C.ar    1  UNL1        0.0074
      4 C           2.4406    1.7956   20.0939 C.ar    1  UNL1        0.0810
      5 C           0.9927    1.6445   19.7327 C.ar    1  UNL1        0.1451
      6 F           0.6074    1.0362   18.4168 F       1  UNL1       -0.2040
      7 C          -0.0701    2.1018   20.6874 C.ar    1  UNL1        0.0380
      8 C           3.5034    1.3383   19.1392 C.2     1  UNL1        0.2513
      9 O           4.0831    2.3005   18.1453 O.2     1  UNL1       -0.2698
     10 N           3.9865   -0.0812   19.1786 N.am    1  UNL1       -0.2735
     11 C           3.4068   -1.0435   20.1726 C.3     1  UNL1        0.0939
     12 C           3.8899   -2.4630   20.2119 C.3     1  UNL1        0.0241
     13 C           4.9527   -2.9203   19.2572 C.3     1  UNL1        0.0328
     14 C           5.5324   -1.9581   18.2633 C.3     1  UNL1        0.1303
     15 O           6.5952   -2.4154   17.3086 O.3     1  UNL1       -0.3827
     16 C           5.0493   -0.5385   18.2239 C.3     1  UNL1        0.1228
     17 H           6.8583   -1.6756   16.7391 H       1  UNL1        0.2104
     18 C          -1.8105    3.6247   23.9125 C.1     1  UNL1       -0.0597
     19 C          -0.7477    3.1674   22.9579 C.1     1  UNL1       -0.0597
     20 C          -4.9989    4.9966   26.7765 C.ar    1  UNL1        0.1388
     21 C          -3.5550    5.2761   27.0716 C.ar    1  UNL1        0.0375
     22 C          -2.4922    4.8188   26.1169 C.ar    1  UNL1        0.0114
     23 C          -2.8733    4.0820   24.8672 C.ar    1  UNL1        0.0422
     24 C          -4.3171    3.8025   24.5721 C.ar    1  UNL1        0.0114
     25 C          -5.3799    4.2598   25.5268 C.ar    1  UNL1        0.0375
     26 C          -6.3674    6.9159   27.8689 C.3     1  UNL1        0.2525
     27 O          -6.0617    5.4539   27.7312 O.3     1  UNL1       -0.4714
@<TRIPOS>BOND
     1    26    27    1
     2    27    20    1
     3    20    21   ar
     4    21    22   ar
     5    22    23   ar
     6    23    18    1
     7    18    19    3
     8    19     1    1
     9     1     2   ar
    10     2     3   ar
    11     3     4   ar
    12     4     8    1
    13     8     9    2
    14     8    10   am
    15    10    11    1
    16    11    12    1
    17    12    13    1
    18    13    14    1
    19    14    15    1
    20    14    16    1
    21     4     5   ar
    22     5     6    1
    23     5     7   ar
    24    23    24   ar
    25    24    25   ar
    26    25    20   ar
    27     7     1   ar
    28    16    10    1
    29    15    17    1
@<TRIPOS>MOLECULE
*****
 27 29 0 0 0
SMALL
GASTEIGER

@<TRIPOS>ATOM
      1 C           0.6567    1.4750   19.7284 C.ar    1  UNL1        0.0442
      2 C           1.5701    2.2153   18.7970 C.ar    1  UNL1        0.0085
      3 C           2.7483    1.5148   18.1878 C.ar    1  UNL1        0.0074
      4 C           3.0131    0.0740   18.5100 C.ar    1  UNL1        0.0810
      5 C           2.0997   -0.6663   19.4413 C.ar    1  UNL1        0.1451
      6 F           2.3645   -2.1072   19.7636 F       1  UNL1       -0.2040
      7 C           0.9215    0.0341   20.0505 C.ar    1  UNL1        0.0380
      8 C           4.1914   -0.6265   17.9008 C.2     1  UNL1        0.2513
      9 O           4.1713   -1.0039   16.4492 O.2     1  UNL1       -0.2698
     10 N           5.3897   -0.9495   18.7431 N.am    1  UNL1       -0.2735
     11 C           5.4098   -0.5721   20.1948 C.3     1  UNL1        0.0939
     12 C           6.6081   -0.8952   21.0372 C.3     1  UNL1        0.0241
     13 C           7.7863   -1.5957   20.4280 C.3     1  UNL1        0.0328
     14 C           7.7662   -1.9731   18.9764 C.3     1  UNL1        0.1303
     15 O           8.9444   -2.6736   18.3672 O.3     1  UNL1       -0.3827
     16 C           6.5679   -1.6500   18.1339 C.3     1  UNL1        0.1228
     17 H           8.7695   -2.8437   17.4284 H       1  UNL1        0.2104
     18 C          -1.6997    2.8759   20.9468 C.1     1  UNL1       -0.0597
     19 C          -0.5215    2.1755   20.3376 C.1     1  UNL1       -0.0597
     20 C          -5.2344    4.9774   22.7744 C.ar    1  UNL1        0.1388
     21 C          -5.4460    3.9369   21.7149 C.ar    1  UNL1        0.0375
     22 C          -4.2677    3.2364   21.1057 C.ar    1  UNL1        0.0114
     23 C          -2.8779    3.5764   21.5560 C.ar    1  UNL1        0.0422
     24 C          -2.6664    4.6169   22.6155 C.ar    1  UNL1        0.0114
     25 C          -3.8446    5.3174   23.2247 C.ar    1  UNL1        0.0375
     26 C          -7.6331    4.8958   23.7691 C.3     1  UNL1        0.2525
     27 O          -6.4126    5.6779   23.3836 O.3     1  UNL1       -0.4714
@<TRIPOS>BOND
     1    26    27    1
     2    27    20    1
     3    20    21   ar
     4    21    22   ar
     5    22    23   ar
     6    23    18    1
     7    18    19    3
     8    19     1    1
     9     1     2   ar
    10     2     3   ar
    11     3     4   ar
    12     4     8    1
    13     8     9    2
    14     8    10   am
    15    10    11    1
    16    11    12    1
    17    12    13    1
    18    13    14    1
    19    14    15    1
    20    14    16    1
    21     4     5   ar
    22     5     6    1
    23     5     7   ar
    24    23    24   ar
    25    24    25   ar
    26    25    20   ar
    27     7     1   ar
    28    16    10    1
    29    15    17    1
