@<TRIPOS>MOLECULE
*****
 22 25 0 0 0
SMALL
GASTEIGER

@<TRIPOS>ATOM
      1 C         -14.9143  -18.3875   25.0967 C.3     1  UNL1        0.0311
      2 C         -13.5333  -18.2581   24.5256 C.ar    1  UNL1       -0.0206
      3 C         -12.4322  -19.1508   25.0160 C.ar    1  UNL1       -0.0041
      4 C         -11.0513  -19.0214   24.4449 C.ar    1  UNL1        0.0048
      5 C         -10.7714  -17.9992   23.3834 C.ar    1  UNL1        0.0623
      6 C         -11.8725  -17.1065   22.8930 C.ar    1  UNL1        0.0771
      7 C         -13.2535  -17.2359   23.4642 C.ar    1  UNL1        0.0125
      8 N         -11.5927  -16.0842   21.8315 N.am    1  UNL1       -0.1721
      9 C         -10.2117  -15.9548   21.2604 C.2     1  UNL1        0.3160
     10 O          -9.9319  -14.9326   20.1989 O.2     1  UNL1       -0.2638
     11 C          -9.1106  -16.8476   21.7508 C.2     1  UNL1        0.2907
     12 N          -7.6612  -16.9509   21.3784 N.2     1  UNL1       -0.0256
     13 C          -7.0453  -18.0369   22.2098 C.2     1  UNL1        0.3765
     14 N          -8.1140  -18.6048   23.0960 N.2     1  UNL1       -0.0302
     15 C          -9.3904  -17.8698   22.8123 C.2     1  UNL1        0.2419
     16 C          -5.6122  -18.4776   22.1632 C.ar    1  UNL1        0.0989
     17 C          -4.5936  -17.8107   23.0393 C.ar    1  UNL1        0.0085
     18 C          -3.1606  -18.2514   22.9926 C.ar    1  UNL1        0.0003
     19 C          -2.7462  -19.3591   22.0699 C.ar    1  UNL1        0.0009
     20 C          -3.7649  -20.0260   21.1938 C.ar    1  UNL1        0.0116
     21 C          -5.1979  -19.5853   21.2404 C.ar    1  UNL1        0.0651
     22 CL         -6.2166  -20.2522   20.3643 Cl      1  UNL1       -0.0820
@<TRIPOS>BOND
     1     1     2    1
     2     2     3   ar
     3     3     4   ar
     4     4     5   ar
     5     5     6   ar
     6     6     7   ar
     7     6     8    2
     8     8     9    1
     9     9    10    2
    10     9    11    1
    11    11    12    2
    12    12    13    1
    13    13    16    1
    14    16    17   ar
    15    17    18   ar
    16    18    19   ar
    17    19    20   ar
    18    20    21   ar
    19    21    22    1
    20    13    14    2
    21    14    15    1
    22     7     2   ar
    23    15    11    1
    24    15     5    2
    25    21    16   ar
@<TRIPOS>MOLECULE
*****
 22 25 0 0 0
SMALL
GASTEIGER

@<TRIPOS>ATOM
      1 C          -1.5185  -19.6669   20.5613 C.3     1  UNL1        0.0311
      2 C          -2.8337  -19.1969   21.1085 C.ar    1  UNL1       -0.0206
      3 C          -4.0965  -19.9249   20.7547 C.ar    1  UNL1       -0.0041
      4 C          -5.4117  -19.4548   21.3019 C.ar    1  UNL1        0.0048
      5 C          -5.4640  -18.2568   22.2029 C.ar    1  UNL1        0.0623
      6 C          -4.2011  -17.5288   22.5567 C.ar    1  UNL1        0.0771
      7 C          -2.8860  -17.9989   22.0095 C.ar    1  UNL1        0.0125
      8 N          -4.2534  -16.3307   23.4578 N.am    1  UNL1       -0.1721
      9 C          -5.5686  -15.8606   24.0050 C.2     1  UNL1        0.3160
     10 O          -5.6209  -14.6626   24.9061 O.2     1  UNL1       -0.2638
     11 C          -6.8314  -16.5887   23.6511 C.2     1  UNL1        0.2907
     12 N          -8.2631  -16.3601   24.0358 N.2     1  UNL1       -0.0256
     13 C          -9.0957  -17.4169   23.3724 C.2     1  UNL1        0.3765
     14 N          -8.1785  -18.2986   22.5778 N.2     1  UNL1       -0.0302
     15 C          -6.7791  -17.7867   22.7501 C.2     1  UNL1        0.2419
     16 C         -10.5841  -17.5658   23.4841 C.ar    1  UNL1        0.0989
     17 C         -11.4891  -16.6688   22.6925 C.ar    1  UNL1        0.0085
     18 C         -12.9775  -16.8178   22.8042 C.ar    1  UNL1        0.0003
     19 C         -13.5609  -17.8637   23.7074 C.ar    1  UNL1        0.0009
     20 C         -12.6559  -18.7606   24.4989 C.ar    1  UNL1        0.0116
     21 C         -11.1676  -18.6116   24.3872 C.ar    1  UNL1        0.0651
     22 CL        -10.2625  -19.5086   25.1788 Cl      1  UNL1       -0.0820
@<TRIPOS>BOND
     1     1     2    1
     2     2     3   ar
     3     3     4   ar
     4     4     5   ar
     5     5     6   ar
     6     6     7   ar
     7     6     8    2
     8     8     9    1
     9     9    10    2
    10     9    11    1
    11    11    12    2
    12    12    13    1
    13    13    16    1
    14    16    17   ar
    15    17    18   ar
    16    18    19   ar
    17    19    20   ar
    18    20    21   ar
    19    21    22    1
    20    13    14    2
    21    14    15    1
    22     7     2   ar
    23    15    11    1
    24    15     5    2
    25    21    16   ar
@<TRIPOS>MOLECULE
*****
 22 25 0 0 0
SMALL
GASTEIGER

@<TRIPOS>ATOM
      1 C          -9.1134  -21.5199   17.0467 C.3     1  UNL1        0.0311
      2 C          -9.1078  -20.6202   18.2469 C.ar    1  UNL1       -0.0206
      3 C          -7.9146  -20.5892   19.1554 C.ar    1  UNL1       -0.0041
      4 C          -7.9090  -19.6895   20.3556 C.ar    1  UNL1        0.0048
      5 C          -9.0966  -18.8209   20.6474 C.ar    1  UNL1        0.0623
      6 C         -10.2897  -18.8519   19.7389 C.ar    1  UNL1        0.0771
      7 C         -10.2953  -19.7516   18.5387 C.ar    1  UNL1        0.0125
      8 N         -11.4774  -17.9833   20.0307 N.am    1  UNL1       -0.1721
      9 C         -11.4717  -17.0836   21.2309 C.2     1  UNL1        0.3160
     10 O         -12.6593  -16.2150   21.5227 O.2     1  UNL1       -0.2638
     11 C         -10.2785  -17.0526   22.1394 C.2     1  UNL1        0.2907
     12 N          -9.9873  -16.2731   23.3874 N.2     1  UNL1       -0.0256
     13 C          -8.6196  -16.6600   23.8669 C.2     1  UNL1        0.3765
     14 N          -8.0657  -17.6786   22.9153 N.2     1  UNL1       -0.0302
     15 C          -9.0909  -17.9212   21.8476 C.2     1  UNL1        0.2419
     16 C          -7.9275  -16.1226   25.0844 C.ar    1  UNL1        0.0989
     17 C          -8.6208  -16.1489   26.4143 C.ar    1  UNL1        0.0085
     18 C          -7.9287  -15.6115   27.6317 C.ar    1  UNL1        0.0003
     19 C          -6.5432  -15.0479   27.5192 C.ar    1  UNL1        0.0009
     20 C          -5.8498  -15.0215   26.1894 C.ar    1  UNL1        0.0116
     21 C          -6.5420  -15.5589   24.9720 C.ar    1  UNL1        0.0651
     22 CL         -5.8486  -15.5326   23.6421 Cl      1  UNL1       -0.0820
@<TRIPOS>BOND
     1     1     2    1
     2     2     3   ar
     3     3     4   ar
     4     4     5   ar
     5     5     6   ar
     6     6     7   ar
     7     6     8    2
     8     8     9    1
     9     9    10    2
    10     9    11    1
    11    11    12    2
    12    12    13    1
    13    13    16    1
    14    16    17   ar
    15    17    18   ar
    16    18    19   ar
    17    19    20   ar
    18    20    21   ar
    19    21    22    1
    20    13    14    2
    21    14    15    1
    22     7     2   ar
    23    15    11    1
    24    15     5    2
    25    21    16   ar
@<TRIPOS>MOLECULE
*****
 22 25 0 0 0
SMALL
GASTEIGER

@<TRIPOS>ATOM
      1 C          -1.2640  -18.1010   22.2886 C.3     1  UNL1        0.0311
      2 C          -2.7522  -18.2784   22.2278 C.ar    1  UNL1       -0.0206
      3 C          -3.6310  -17.5920   23.2310 C.ar    1  UNL1       -0.0041
      4 C          -5.1193  -17.7694   23.1701 C.ar    1  UNL1        0.0048
      5 C          -5.7287  -18.6332   22.1060 C.ar    1  UNL1        0.0623
      6 C          -4.8499  -19.3196   21.1028 C.ar    1  UNL1        0.0771
      7 C          -3.3617  -19.1422   21.1637 C.ar    1  UNL1        0.0125
      8 N          -5.4594  -20.1835   20.0386 N.am    1  UNL1       -0.1721
      9 C          -6.9476  -20.3608   19.9778 C.2     1  UNL1        0.3160
     10 O          -7.5570  -21.2247   18.9137 O.2     1  UNL1       -0.2638
     11 C          -7.8264  -19.6744   20.9811 C.2     1  UNL1        0.2907
     12 N          -9.3144  -19.6618   21.1697 N.2     1  UNL1       -0.0256
     13 C          -9.6246  -18.7902   22.3504 C.2     1  UNL1        0.3765
     14 N          -8.3283  -18.2641   22.8915 N.2     1  UNL1       -0.0302
     15 C          -7.2169  -18.8106   22.0452 C.2     1  UNL1        0.2419
     16 C         -10.9913  -18.4963   22.8945 C.ar    1  UNL1        0.0989
     17 C         -11.3737  -18.9790   24.2622 C.ar    1  UNL1        0.0085
     18 C         -12.7403  -18.6851   24.8062 C.ar    1  UNL1        0.0003
     19 C         -13.7245  -17.9085   23.9825 C.ar    1  UNL1        0.0009
     20 C         -13.3420  -17.4259   22.6148 C.ar    1  UNL1        0.0116
     21 C         -11.9754  -17.7198   22.0708 C.ar    1  UNL1        0.0651
     22 CL        -11.5928  -17.2371   20.7030 Cl      1  UNL1       -0.0820
@<TRIPOS>BOND
     1     1     2    1
     2     2     3   ar
     3     3     4   ar
     4     4     5   ar
     5     5     6   ar
     6     6     7   ar
     7     6     8    2
     8     8     9    1
     9     9    10    2
    10     9    11    1
    11    11    12    2
    12    12    13    1
    13    13    16    1
    14    16    17   ar
    15    17    18   ar
    16    18    19   ar
    17    19    20   ar
    18    20    21   ar
    19    21    22    1
    20    13    14    2
    21    14    15    1
    22     7     2   ar
    23    15    11    1
    24    15     5    2
    25    21    16   ar
@<TRIPOS>MOLECULE
*****
 22 25 0 0 0
SMALL
GASTEIGER

@<TRIPOS>ATOM
      1 C           0.2659  -17.4476   20.4802 C.3     1  UNL1        0.0311
      2 C          -1.1740  -17.7685   20.7515 C.ar    1  UNL1       -0.0206
      3 C          -2.0135  -16.8242   21.5599 C.ar    1  UNL1       -0.0041
      4 C          -3.4534  -17.1451   21.8311 C.ar    1  UNL1        0.0048
      5 C          -4.0539  -18.4103   21.2939 C.ar    1  UNL1        0.0623
      6 C          -3.2144  -19.3546   20.4854 C.ar    1  UNL1        0.0771
      7 C          -1.7745  -19.0337   20.2142 C.ar    1  UNL1        0.0125
      8 N          -3.8149  -20.6198   19.9481 N.am    1  UNL1       -0.1721
      9 C          -5.2549  -20.9408   20.2194 C.2     1  UNL1        0.3160
     10 O          -5.8554  -22.2059   19.6821 O.2     1  UNL1       -0.2638
     11 C          -6.0943  -19.9964   21.0279 C.2     1  UNL1        0.2907
     12 N          -7.5315  -20.0452   21.4547 N.2     1  UNL1       -0.0256
     13 C          -7.8192  -18.8100   22.2557 C.2     1  UNL1        0.3765
     14 N          -6.5599  -17.9980   22.3240 N.2     1  UNL1       -0.0302
     15 C          -5.4938  -18.7312   21.5651 C.2     1  UNL1        0.2419
     16 C          -9.1353  -18.4501   22.8791 C.ar    1  UNL1        0.0989
     17 C          -9.7682  -17.1232   22.5816 C.ar    1  UNL1        0.0085
     18 C         -11.0842  -16.7634   23.2049 C.ar    1  UNL1        0.0003
     19 C         -11.7673  -17.7305   24.1258 C.ar    1  UNL1        0.0009
     20 C         -11.1344  -19.0574   24.4234 C.ar    1  UNL1        0.0116
     21 C          -9.8184  -19.4173   23.8000 C.ar    1  UNL1        0.0651
     22 CL         -9.1854  -20.7443   24.0976 Cl      1  UNL1       -0.0820
@<TRIPOS>BOND
     1     1     2    1
     2     2     3   ar
     3     3     4   ar
     4     4     5   ar
     5     5     6   ar
     6     6     7   ar
     7     6     8    2
     8     8     9    1
     9     9    10    2
    10     9    11    1
    11    11    12    2
    12    12    13    1
    13    13    16    1
    14    16    17   ar
    15    17    18   ar
    16    18    19   ar
    17    19    20   ar
    18    20    21   ar
    19    21    22    1
    20    13    14    2
    21    14    15    1
    22     7     2   ar
    23    15    11    1
    24    15     5    2
    25    21    16   ar
@<TRIPOS>MOLECULE
*****
 22 25 0 0 0
SMALL
GASTEIGER

@<TRIPOS>ATOM
      1 C           0.0825  -18.5426   19.7260 C.3     1  UNL1        0.0311
      2 C          -1.3327  -18.4055   20.2037 C.ar    1  UNL1       -0.0206
      3 C          -2.4626  -18.9104   19.3562 C.ar    1  UNL1       -0.0041
      4 C          -3.8779  -18.7733   19.8340 C.ar    1  UNL1        0.0048
      5 C          -4.1632  -18.1312   21.1592 C.ar    1  UNL1        0.0623
      6 C          -3.0333  -17.6263   22.0067 C.ar    1  UNL1        0.0771
      7 C          -1.6181  -17.7634   21.5290 C.ar    1  UNL1        0.0125
      8 N          -3.3186  -16.9842   23.3320 N.am    1  UNL1       -0.1721
      9 C          -4.7339  -16.8471   23.8098 C.2     1  UNL1        0.3160
     10 O          -5.0192  -16.2050   25.1350 O.2     1  UNL1       -0.2638
     11 C          -5.8638  -17.3520   22.9622 C.2     1  UNL1        0.2907
     12 N          -7.3495  -17.3556   23.1688 N.2     1  UNL1       -0.0256
     13 C          -7.9824  -17.9998   21.9711 C.2     1  UNL1        0.3765
     14 N          -6.8879  -18.3945   21.0244 N.2     1  UNL1       -0.0302
     15 C          -5.5785  -17.9941   21.6370 C.2     1  UNL1        0.2419
     16 C          -9.4519  -18.2122   21.7577 C.ar    1  UNL1        0.0989
     17 C         -10.0284  -19.5950   21.8316 C.ar    1  UNL1        0.0085
     18 C         -11.4979  -19.8073   21.6181 C.ar    1  UNL1        0.0003
     19 C         -12.3908  -18.6368   21.3307 C.ar    1  UNL1        0.0009
     20 C         -11.8143  -17.2540   21.2568 C.ar    1  UNL1        0.0116
     21 C         -10.3449  -17.0417   21.4703 C.ar    1  UNL1        0.0651
     22 CL         -9.7683  -15.6589   21.3964 Cl      1  UNL1       -0.0820
@<TRIPOS>BOND
     1     1     2    1
     2     2     3   ar
     3     3     4   ar
     4     4     5   ar
     5     5     6   ar
     6     6     7   ar
     7     6     8    2
     8     8     9    1
     9     9    10    2
    10     9    11    1
    11    11    12    2
    12    12    13    1
    13    13    16    1
    14    16    17   ar
    15    17    18   ar
    16    18    19   ar
    17    19    20   ar
    18    20    21   ar
    19    21    22    1
    20    13    14    2
    21    14    15    1
    22     7     2   ar
    23    15    11    1
    24    15     5    2
    25    21    16   ar
@<TRIPOS>MOLECULE
*****
 22 25 0 0 0
SMALL
GASTEIGER

@<TRIPOS>ATOM
      1 C           1.1621    0.0610   19.2344 C.3     1  UNL1        0.0311
      2 C           2.1032   -0.6919   20.1273 C.ar    1  UNL1       -0.0206
      3 C           2.8605   -1.8718   19.5940 C.ar    1  UNL1       -0.0041
      4 C           3.8017   -2.6248   20.4869 C.ar    1  UNL1        0.0048
      5 C           3.9855   -2.1979   21.9131 C.ar    1  UNL1        0.0623
      6 C           3.2282   -1.0181   22.4463 C.ar    1  UNL1        0.0771
      7 C           2.2870   -0.2651   21.5534 C.ar    1  UNL1        0.0125
      8 N           3.4119   -0.5912   23.8726 N.am    1  UNL1       -0.1721
      9 C           4.3531   -1.3441   24.7655 C.2     1  UNL1        0.3160
     10 O           4.5369   -0.9173   26.1916 O.2     1  UNL1       -0.2638
     11 C           5.1104   -2.5240   24.2321 C.2     1  UNL1        0.2907
     12 N           6.0998   -3.4534   24.8704 N.2     1  UNL1       -0.0256
     13 C           6.5275   -4.4547   23.8386 C.2     1  UNL1        0.3765
     14 N           5.8024   -4.1441   22.5628 N.2     1  UNL1       -0.0302
     15 C           4.9266   -2.9509   22.8060 C.2     1  UNL1        0.2419
     16 C           7.5082   -5.5706   24.0463 C.ar    1  UNL1        0.0989
     17 C           7.4424   -6.4049   25.2911 C.ar    1  UNL1        0.0085
     18 C           8.4230   -7.5208   25.4987 C.ar    1  UNL1        0.0003
     19 C           9.4694   -7.8024   24.4615 C.ar    1  UNL1        0.0009
     20 C           9.5352   -6.9681   23.2167 C.ar    1  UNL1        0.0116
     21 C           8.5546   -5.8522   23.0091 C.ar    1  UNL1        0.0651
     22 CL          8.6203   -5.0179   21.7642 Cl      1  UNL1       -0.0820
@<TRIPOS>BOND
     1     1     2    1
     2     2     3   ar
     3     3     4   ar
     4     4     5   ar
     5     5     6   ar
     6     6     7   ar
     7     6     8    2
     8     8     9    1
     9     9    10    2
    10     9    11    1
    11    11    12    2
    12    12    13    1
    13    13    16    1
    14    16    17   ar
    15    17    18   ar
    16    18    19   ar
    17    19    20   ar
    18    20    21   ar
    19    21    22    1
    20    13    14    2
    21    14    15    1
    22     7     2   ar
    23    15    11    1
    24    15     5    2
    25    21    16   ar
@<TRIPOS>MOLECULE
*****
 22 25 0 0 0
SMALL
GASTEIGER

@<TRIPOS>ATOM
      1 C           2.1687    0.2901   18.2180 C.3     1  UNL1        0.0311
      2 C           3.1707   -0.5597   18.9417 C.ar    1  UNL1       -0.0206
      3 C           2.7624   -1.3205   20.1682 C.ar    1  UNL1       -0.0041
      4 C           3.7644   -2.1703   20.8918 C.ar    1  UNL1        0.0048
      5 C           5.1748   -2.2593   20.3891 C.ar    1  UNL1        0.0623
      6 C           5.5832   -1.4984   19.1626 C.ar    1  UNL1        0.0771
      7 C           4.5811   -0.6486   18.4389 C.ar    1  UNL1        0.0125
      8 N           6.9936   -1.5873   18.6597 N.am    1  UNL1       -0.1721
      9 C           7.9957   -2.4371   19.3834 C.2     1  UNL1        0.3160
     10 O           9.4061   -2.5261   18.8806 O.2     1  UNL1       -0.2638
     11 C           7.5873   -3.1980   20.6100 C.2     1  UNL1        0.2907
     12 N           8.3491   -4.1099   21.5254 N.2     1  UNL1       -0.0256
     13 C           7.4096   -4.5845   22.5940 C.2     1  UNL1        0.3765
     14 N           6.0671   -3.9660   22.3390 N.2     1  UNL1       -0.0302
     15 C           6.1769   -3.1091   21.1127 C.2     1  UNL1        0.2419
     16 C           7.7524   -5.5145   23.7200 C.ar    1  UNL1        0.0989
     17 C           8.4826   -6.7943   23.4397 C.ar    1  UNL1        0.0085
     18 C           8.8254   -7.7242   24.5657 C.ar    1  UNL1        0.0003
     19 C           8.4379   -7.3742   25.9719 C.ar    1  UNL1        0.0009
     20 C           7.7077   -6.0943   26.2521 C.ar    1  UNL1        0.0116
     21 C           7.3649   -5.1644   25.1261 C.ar    1  UNL1        0.0651
     22 CL          6.6346   -3.8845   25.4063 Cl      1  UNL1       -0.0820
@<TRIPOS>BOND
     1     1     2    1
     2     2     3   ar
     3     3     4   ar
     4     4     5   ar
     5     5     6   ar
     6     6     7   ar
     7     6     8    2
     8     8     9    1
     9     9    10    2
    10     9    11    1
    11    11    12    2
    12    12    13    1
    13    13    16    1
    14    16    17   ar
    15    17    18   ar
    16    18    19   ar
    17    19    20   ar
    18    20    21   ar
    19    21    22    1
    20    13    14    2
    21    14    15    1
    22     7     2   ar
    23    15    11    1
    24    15     5    2
    25    21    16   ar
@<TRIPOS>MOLECULE
*****
 22 25 0 0 0
SMALL
GASTEIGER

@<TRIPOS>ATOM
      1 C           0.3325    1.0718   20.1842 C.3     1  UNL1        0.0311
      2 C           1.3899    0.1793   20.7632 C.ar    1  UNL1       -0.0206
      3 C           1.9113    0.4338   22.1464 C.ar    1  UNL1       -0.0041
      4 C           2.9688   -0.4587   22.7253 C.ar    1  UNL1        0.0048
      5 C           3.5049   -1.6057   21.9210 C.ar    1  UNL1        0.0623
      6 C           2.9836   -1.8602   20.5378 C.ar    1  UNL1        0.0771
      7 C           1.9261   -0.9677   19.9589 C.ar    1  UNL1        0.0125
      8 N           3.5198   -3.0072   19.7334 N.am    1  UNL1       -0.1721
      9 C           4.5773   -3.8997   20.3123 C.2     1  UNL1        0.3160
     10 O           5.1134   -5.0466   19.5080 O.2     1  UNL1       -0.2638
     11 C           5.0986   -3.6452   21.6956 C.2     1  UNL1        0.2907
     12 N           6.1312   -4.3499   22.5245 N.2     1  UNL1       -0.0256
     13 C           6.2332   -3.6385   23.8411 C.2     1  UNL1        0.3765
     14 N           5.2637   -2.4941   23.8259 N.2     1  UNL1       -0.0302
     15 C           4.5624   -2.4982   22.5000 C.2     1  UNL1        0.2419
     16 C           7.1448   -4.0069   24.9740 C.ar    1  UNL1        0.0989
     17 C           6.7977   -5.1568   25.8724 C.ar    1  UNL1        0.0085
     18 C           7.7093   -5.5252   27.0052 C.ar    1  UNL1        0.0003
     19 C           8.9679   -4.7436   27.2396 C.ar    1  UNL1        0.0009
     20 C           9.3150   -3.5937   26.3412 C.ar    1  UNL1        0.0116
     21 C           8.4034   -3.2253   25.2084 C.ar    1  UNL1        0.0651
     22 CL          8.7505   -2.0754   24.3099 Cl      1  UNL1       -0.0820
@<TRIPOS>BOND
     1     1     2    1
     2     2     3   ar
     3     3     4   ar
     4     4     5   ar
     5     5     6   ar
     6     6     7   ar
     7     6     8    2
     8     8     9    1
     9     9    10    2
    10     9    11    1
    11    11    12    2
    12    12    13    1
    13    13    16    1
    14    16    17   ar
    15    17    18   ar
    16    18    19   ar
    17    19    20   ar
    18    20    21   ar
    19    21    22    1
    20    13    14    2
    21    14    15    1
    22     7     2   ar
    23    15    11    1
    24    15     5    2
    25    21    16   ar
