@<TRIPOS>MOLECULE
*****
 26 28 0 0 0
SMALL
GASTEIGER

@<TRIPOS>ATOM
      1 N          -8.4475  -19.1806   23.3244 N.am    1  UNL1       -0.2987
      2 C          -7.8717  -19.5549   21.9909 C.2     1  UNL1        0.2460
      3 O          -8.7116  -20.2948   20.9923 O.2     1  UNL1       -0.2701
      4 H          -7.8963  -18.6950   23.9798 H       1  UNL1        0.1500
      5 C          -6.4560  -19.1895   21.6560 C.ar    1  UNL1        0.0534
      6 C          -5.8996  -19.5089   20.3001 C.ar    1  UNL1        0.0045
      7 C          -4.4839  -19.1435   19.9652 C.ar    1  UNL1        0.0002
      8 C          -3.6245  -18.4585   20.9862 C.ar    1  UNL1        0.0016
      9 C          -4.1809  -18.1391   22.3421 C.ar    1  UNL1        0.0002
     10 C          -5.5966  -18.5046   22.6770 C.ar    1  UNL1        0.0045
     11 C          -2.2088  -18.0931   20.6513 C.ar    1  UNL1        0.0226
     12 C          -1.7183  -16.6958   20.8904 C.ar    1  UNL1        0.0241
     13 C          -0.3025  -16.3303   20.5555 C.ar    1  UNL1        0.1222
     14 N           0.6227  -17.3621   19.9815 N.ar    1  UNL1       -0.1464
     15 N           0.1321  -18.7593   19.7424 N.ar    1  UNL1       -0.1464
     16 C          -1.2836  -19.1248   20.0773 C.ar    1  UNL1        0.1221
     17 C          -9.8632  -19.5460   23.6593 C.3     1  UNL1        0.0945
     18 C         -10.1436  -20.7082   24.5652 C.3     1  UNL1        0.0262
     19 C         -12.0809  -17.4860   21.0925 C.ar    1  UNL1        0.1385
     20 C         -13.2693  -17.1558   21.9461 C.ar    1  UNL1        0.0369
     21 C         -13.3224  -17.6223   23.3707 C.ar    1  UNL1        0.0028
     22 C         -12.1871  -18.4191   23.9418 C.ar    1  UNL1       -0.0025
     23 C         -10.9987  -18.7492   23.0882 C.ar    1  UNL1       -0.0015
     24 C         -10.9456  -18.2827   21.6636 C.ar    1  UNL1        0.0342
     25 C         -11.4589  -15.6706   19.3412 C.3     1  UNL1        0.2525
     26 O         -12.0278  -17.0194   19.6679 O.3     1  UNL1       -0.4714
@<TRIPOS>BOND
     1    25    26    1
     2    26    19    1
     3    19    20   ar
     4    20    21   ar
     5    21    22   ar
     6    22    23   ar
     7    23    17    1
     8    17    18    1
     9    17     1    1
    10     1     2   am
    11     2     3    2
    12     2     5    1
    13     5     6   ar
    14     6     7   ar
    15     7     8   ar
    16     8    11    1
    17    11    12   ar
    18    12    13   ar
    19    13    14   ar
    20    14    15   ar
    21    15    16   ar
    22     8     9   ar
    23     9    10   ar
    24    23    24   ar
    25    24    19   ar
    26    10     5   ar
    27    16    11   ar
    28     1     4    1
@<TRIPOS>MOLECULE
*****
 26 28 0 0 0
SMALL
GASTEIGER

@<TRIPOS>ATOM
      1 N          -1.4038    2.4553   20.8754 N.am    1  UNL1       -0.2987
      2 C          -0.0234    2.4262   21.4615 C.2     1  UNL1        0.2460
      3 O           0.4707    3.5859   22.2746 O.2     1  UNL1       -0.2701
      4 H          -1.7281    1.6941   20.3417 H       1  UNL1        0.1500
      5 C           0.8629    1.2376   21.2347 C.ar    1  UNL1        0.0534
      6 C           2.0560    1.0126   22.1157 C.ar    1  UNL1        0.0045
      7 C           2.9423   -0.1761   21.8888 C.ar    1  UNL1        0.0002
      8 C           2.6356   -1.1398   20.7809 C.ar    1  UNL1        0.0016
      9 C           1.4426   -0.9148   19.9000 C.ar    1  UNL1        0.0002
     10 C           0.5563    0.2739   20.1269 C.ar    1  UNL1        0.0045
     11 C           3.5219   -2.3285   20.5540 C.ar    1  UNL1        0.0226
     12 C           3.5519   -2.9962   19.2112 C.ar    1  UNL1        0.0241
     13 C           4.4382   -4.1849   18.9843 C.ar    1  UNL1        0.1222
     14 N           5.2946   -4.7058   20.1003 N.ar    1  UNL1       -0.1464
     15 N           5.2646   -4.0380   21.4431 N.ar    1  UNL1       -0.1464
     16 C           4.3782   -2.8494   21.6700 C.ar    1  UNL1        0.1221
     17 C          -2.2901    3.6439   21.1022 C.3     1  UNL1        0.0945
     18 C          -2.2362    4.8103   20.1606 C.3     1  UNL1        0.0262
     19 C          -5.6493    3.7943   23.2102 C.ar    1  UNL1        0.1385
     20 C          -5.1109    3.7108   24.6077 C.ar    1  UNL1        0.0369
     21 C          -3.6323    3.6050   24.8368 C.ar    1  UNL1        0.0028
     22 C          -2.6920    3.5827   23.6683 C.ar    1  UNL1       -0.0025
     23 C          -3.2304    3.6662   22.2708 C.ar    1  UNL1       -0.0015
     24 C          -4.7090    3.7720   22.0417 C.ar    1  UNL1        0.0342
     25 C          -7.9188    4.9723   23.6702 C.3     1  UNL1        0.2525
     26 O          -7.1279    3.9001   22.9811 O.3     1  UNL1       -0.4714
@<TRIPOS>BOND
     1    25    26    1
     2    26    19    1
     3    19    20   ar
     4    20    21   ar
     5    21    22   ar
     6    22    23   ar
     7    23    17    1
     8    17    18    1
     9    17     1    1
    10     1     2   am
    11     2     3    2
    12     2     5    1
    13     5     6   ar
    14     6     7   ar
    15     7     8   ar
    16     8    11    1
    17    11    12   ar
    18    12    13   ar
    19    13    14   ar
    20    14    15   ar
    21    15    16   ar
    22     8     9   ar
    23     9    10   ar
    24    23    24   ar
    25    24    19   ar
    26    10     5   ar
    27    16    11   ar
    28     1     4    1
@<TRIPOS>MOLECULE
*****
 26 28 0 0 0
SMALL
GASTEIGER

@<TRIPOS>ATOM
      1 N          -2.3058    2.4585   20.4816 N.am    1  UNL1       -0.2987
      2 C          -0.8921    2.9238   20.2949 C.2     1  UNL1        0.2460
      3 O          -0.5444    4.3683   20.5015 O.2     1  UNL1       -0.2701
      4 H          -2.5340    1.5105   20.3460 H       1  UNL1        0.1500
      5 C           0.1740    1.9446   19.9016 C.ar    1  UNL1        0.0534
      6 C           0.2089    0.5821   20.5281 C.ar    1  UNL1        0.0045
      7 C           1.2750   -0.3971   20.1348 C.ar    1  UNL1        0.0002
      8 C           2.3062   -0.0137   19.1150 C.ar    1  UNL1        0.0016
      9 C           2.2712    1.3487   18.4886 C.ar    1  UNL1        0.0002
     10 C           1.2051    2.3279   18.8819 C.ar    1  UNL1        0.0045
     11 C           3.3723   -0.9929   18.7218 C.ar    1  UNL1        0.0226
     12 C           3.4038   -2.3574   19.3440 C.ar    1  UNL1        0.0241
     13 C           4.4699   -3.3366   18.9508 C.ar    1  UNL1        0.1222
     14 N           5.5044   -2.9512   17.9352 N.ar    1  UNL1       -0.1464
     15 N           5.4729   -1.5868   17.3130 N.ar    1  UNL1       -0.1464
     16 C           4.4068   -0.6076   17.7063 C.ar    1  UNL1        0.1221
     17 C          -3.3719    3.4377   20.8749 C.3     1  UNL1        0.0945
     18 C          -4.0185    4.3013   19.8327 C.3     1  UNL1        0.0262
     19 C          -3.1771    3.6560   24.8327 C.ar    1  UNL1        0.1385
     20 C          -4.6303    3.7845   25.1814 C.ar    1  UNL1        0.0369
     21 C          -5.6641    3.7973   24.0946 C.ar    1  UNL1        0.0028
     22 C          -5.2447    3.6817   22.6591 C.ar    1  UNL1       -0.0025
     23 C          -3.7914    3.5533   22.3104 C.ar    1  UNL1       -0.0015
     24 C          -2.7577    3.5404   23.3972 C.ar    1  UNL1        0.0342
     25 C          -1.1276    2.5409   25.9754 C.3     1  UNL1        0.2525
     26 O          -2.1434    3.6431   25.9195 O.3     1  UNL1       -0.4714
@<TRIPOS>BOND
     1    25    26    1
     2    26    19    1
     3    19    20   ar
     4    20    21   ar
     5    21    22   ar
     6    22    23   ar
     7    23    17    1
     8    17    18    1
     9    17     1    1
    10     1     2   am
    11     2     3    2
    12     2     5    1
    13     5     6   ar
    14     6     7   ar
    15     7     8   ar
    16     8    11    1
    17    11    12   ar
    18    12    13   ar
    19    13    14   ar
    20    14    15   ar
    21    15    16   ar
    22     8     9   ar
    23     9    10   ar
    24    23    24   ar
    25    24    19   ar
    26    10     5   ar
    27    16    11   ar
    28     1     4    1
@<TRIPOS>MOLECULE
*****
 26 28 0 0 0
SMALL
GASTEIGER

@<TRIPOS>ATOM
      1 N          -0.5462    3.0262   20.2364 N.am    1  UNL1       -0.2987
      2 C           0.0978    2.3851   19.0431 C.2     1  UNL1        0.2460
      3 O          -0.1584    2.9303   17.6692 O.2     1  UNL1       -0.2701
      4 H          -0.3781    2.6684   21.1381 H       1  UNL1        0.1500
      5 C           0.9981    1.1989   19.2234 C.ar    1  UNL1        0.0534
      6 C           0.6862    0.1733   20.2727 C.ar    1  UNL1        0.0045
      7 C           1.5864   -1.0129   20.4530 C.ar    1  UNL1        0.0002
      8 C           2.7985   -1.1734   19.5840 C.ar    1  UNL1        0.0016
      9 C           3.1104   -0.1478   18.5348 C.ar    1  UNL1        0.0002
     10 C           2.2101    1.0384   18.3545 C.ar    1  UNL1        0.0045
     11 C           3.6988   -2.3596   19.7643 C.ar    1  UNL1        0.0226
     12 C           4.0362   -3.2304   18.5905 C.ar    1  UNL1        0.0241
     13 C           4.9364   -4.4166   18.7708 C.ar    1  UNL1        0.1222
     14 N           5.4993   -4.7320   20.1250 N.ar    1  UNL1       -0.1464
     15 N           5.1619   -3.8612   21.2988 N.ar    1  UNL1       -0.1464
     16 C           4.2616   -2.6750   21.1185 C.ar    1  UNL1        0.1221
     17 C          -1.4465    4.2124   20.0561 C.3     1  UNL1        0.0945
     18 C          -0.8596    5.5869   19.9289 C.3     1  UNL1        0.0262
     19 C          -5.2070    3.7113   21.2213 C.ar    1  UNL1        0.1385
     20 C          -5.9080    3.6472   19.8968 C.ar    1  UNL1        0.0369
     21 C          -5.1219    3.7715   18.6254 C.ar    1  UNL1        0.0028
     22 C          -3.6347    3.9599   18.6784 C.ar    1  UNL1       -0.0025
     23 C          -2.9337    4.0240   20.0030 C.ar    1  UNL1       -0.0015
     24 C          -3.7199    3.8997   21.2744 C.ar    1  UNL1        0.0342
     25 C          -7.1909    4.4603   22.7223 C.3     1  UNL1        0.2525
     26 O          -5.9931    3.5871   22.4928 O.3     1  UNL1       -0.4714
@<TRIPOS>BOND
     1    25    26    1
     2    26    19    1
     3    19    20   ar
     4    20    21   ar
     5    21    22   ar
     6    22    23   ar
     7    23    17    1
     8    17    18    1
     9    17     1    1
    10     1     2   am
    11     2     3    2
    12     2     5    1
    13     5     6   ar
    14     6     7   ar
    15     7     8   ar
    16     8    11    1
    17    11    12   ar
    18    12    13   ar
    19    13    14   ar
    20    14    15   ar
    21    15    16   ar
    22     8     9   ar
    23     9    10   ar
    24    23    24   ar
    25    24    19   ar
    26    10     5   ar
    27    16    11   ar
    28     1     4    1
@<TRIPOS>MOLECULE
*****
 26 28 0 0 0
SMALL
GASTEIGER

@<TRIPOS>ATOM
      1 N           6.8225   -3.2851   22.2483 N.am    1  UNL1       -0.2987
      2 C           5.5965   -3.4649   21.4029 C.2     1  UNL1        0.2460
      3 O           5.4728   -4.6606   20.5057 O.2     1  UNL1       -0.2701
      4 H           6.9037   -2.5003   22.8371 H       1  UNL1        0.1500
      5 C           4.4943   -2.4488   21.4547 C.ar    1  UNL1        0.0534
      6 C           4.1790   -1.7493   22.7437 C.ar    1  UNL1        0.0045
      7 C           3.0767   -0.7333   22.7955 C.ar    1  UNL1        0.0002
      8 C           2.2897   -0.4168   21.5583 C.ar    1  UNL1        0.0016
      9 C           2.6050   -1.1163   20.2694 C.ar    1  UNL1        0.0002
     10 C           3.7073   -2.1323   20.2176 C.ar    1  UNL1        0.0045
     11 C           1.1874    0.5992   21.6101 C.ar    1  UNL1        0.0226
     12 C           1.0160    1.4584   22.8277 C.ar    1  UNL1        0.0241
     13 C          -0.0863    2.4744   22.8794 C.ar    1  UNL1        0.1222
     14 N          -1.0172    2.6312   21.7137 N.ar    1  UNL1       -0.1464
     15 N          -0.8458    1.7719   20.4962 N.ar    1  UNL1       -0.1464
     16 C           0.2565    0.7559   20.4444 C.ar    1  UNL1        0.1221
     17 C           7.9248   -4.3011   22.1965 C.3     1  UNL1        0.0945
     18 C           8.9245   -4.2668   21.0787 C.3     1  UNL1        0.0262
     19 C           7.4073   -6.2218   25.6306 C.ar    1  UNL1        0.1385
     20 C           8.2324   -7.4520   25.3945 C.ar    1  UNL1        0.0369
     21 C           8.9550   -7.6319   24.0924 C.ar    1  UNL1        0.0028
     22 C           8.8525   -6.5817   23.0264 C.ar    1  UNL1       -0.0025
     23 C           8.0274   -5.3515   23.2625 C.ar    1  UNL1       -0.0015
     24 C           7.3048   -5.1716   24.5646 C.ar    1  UNL1        0.0342
     25 C           7.4598   -5.9431   28.2132 C.3     1  UNL1        0.2525
     26 O           6.6847   -6.0419   26.9327 O.3     1  UNL1       -0.4714
@<TRIPOS>BOND
     1    25    26    1
     2    26    19    1
     3    19    20   ar
     4    20    21   ar
     5    21    22   ar
     6    22    23   ar
     7    23    17    1
     8    17    18    1
     9    17     1    1
    10     1     2   am
    11     2     3    2
    12     2     5    1
    13     5     6   ar
    14     6     7   ar
    15     7     8   ar
    16     8    11    1
    17    11    12   ar
    18    12    13   ar
    19    13    14   ar
    20    14    15   ar
    21    15    16   ar
    22     8     9   ar
    23     9    10   ar
    24    23    24   ar
    25    24    19   ar
    26    10     5   ar
    27    16    11   ar
    28     1     4    1
@<TRIPOS>MOLECULE
*****
 26 28 0 0 0
SMALL
GASTEIGER

@<TRIPOS>ATOM
      1 N          -1.3908    2.4357   20.8595 N.am    1  UNL1       -0.2987
      2 C          -0.0109    2.4078   21.4469 C.2     1  UNL1        0.2460
      3 O           0.4842    3.5710   22.2544 O.2     1  UNL1       -0.2701
      4 H          -1.7157    1.6723   20.3296 H       1  UNL1        0.1500
      5 C           0.8740    1.2168   21.2268 C.ar    1  UNL1        0.0534
      6 C           1.8970    0.8418   22.2578 C.ar    1  UNL1        0.0045
      7 C           2.7819   -0.3493   22.0378 C.ar    1  UNL1        0.0002
      8 C           2.6437   -1.1653   20.7868 C.ar    1  UNL1        0.0016
      9 C           1.6207   -0.7903   19.7558 C.ar    1  UNL1        0.0002
     10 C           0.7358    0.4007   19.9759 C.ar    1  UNL1        0.0045
     11 C           3.5286   -2.3564   20.5667 C.ar    1  UNL1        0.0226
     12 C           3.5404   -3.0461   19.2347 C.ar    1  UNL1        0.0241
     13 C           4.4253   -4.2371   19.0146 C.ar    1  UNL1        0.1222
     14 N           5.2983   -4.7385   20.1266 N.ar    1  UNL1       -0.1464
     15 N           5.2865   -4.0488   21.4586 N.ar    1  UNL1       -0.1464
     16 C           4.4016   -2.8578   21.6786 C.ar    1  UNL1        0.1221
     17 C          -2.2757    3.6267   21.0796 C.3     1  UNL1        0.0945
     18 C          -2.1845    4.8088   20.1607 C.3     1  UNL1        0.0262
     19 C          -3.7293    3.6577   24.7723 C.ar    1  UNL1        0.1385
     20 C          -5.2037    3.6536   24.4966 C.ar    1  UNL1        0.0369
     21 C          -5.7021    3.6406   23.0819 C.ar    1  UNL1        0.0028
     22 C          -4.7261    3.6316   21.9429 C.ar    1  UNL1       -0.0025
     23 C          -3.2517    3.6357   22.2186 C.ar    1  UNL1       -0.0015
     24 C          -2.7533    3.6488   23.6333 C.ar    1  UNL1        0.0342
     25 C          -1.9138    4.3108   26.5123 C.3     1  UNL1        0.2525
     26 O          -3.2308    3.6708   26.1870 O.3     1  UNL1       -0.4714
@<TRIPOS>BOND
     1    25    26    1
     2    26    19    1
     3    19    20   ar
     4    20    21   ar
     5    21    22   ar
     6    22    23   ar
     7    23    17    1
     8    17    18    1
     9    17     1    1
    10     1     2   am
    11     2     3    2
    12     2     5    1
    13     5     6   ar
    14     6     7   ar
    15     7     8   ar
    16     8    11    1
    17    11    12   ar
    18    12    13   ar
    19    13    14   ar
    20    14    15   ar
    21    15    16   ar
    22     8     9   ar
    23     9    10   ar
    24    23    24   ar
    25    24    19   ar
    26    10     5   ar
    27    16    11   ar
    28     1     4    1
@<TRIPOS>MOLECULE
*****
 26 28 0 0 0
SMALL
GASTEIGER

@<TRIPOS>ATOM
      1 N           1.9215   -0.4401   21.2649 N.am    1  UNL1       -0.2987
      2 C           2.3507    0.7597   22.0564 C.2     1  UNL1        0.2460
      3 O           3.0273    1.9086   21.3692 O.2     1  UNL1       -0.2701
      4 H           1.4774   -1.1941   21.7159 H       1  UNL1        0.1500
      5 C           2.1033    0.8105   23.5350 C.ar    1  UNL1        0.0534
      6 C           0.7993    1.3344   24.0596 C.ar    1  UNL1        0.0045
      7 C           0.5519    1.3852   25.5382 C.ar    1  UNL1        0.0002
      8 C           1.6085    0.9121   26.4921 C.ar    1  UNL1        0.0016
      9 C           2.9124    0.3882   25.9674 C.ar    1  UNL1        0.0002
     10 C           3.1598    0.3374   24.4889 C.ar    1  UNL1        0.0045
     11 C           1.3611    0.9629   27.9707 C.ar    1  UNL1        0.0226
     12 C           0.7921    2.2032   28.5937 C.ar    1  UNL1        0.0241
     13 C           0.5447    2.2540   30.0723 C.ar    1  UNL1        0.1222
     14 N           0.8663    1.0646   30.9279 N.ar    1  UNL1       -0.1464
     15 N           1.4353   -0.1756   30.3048 N.ar    1  UNL1       -0.1464
     16 C           1.6827   -0.2264   28.8263 C.ar    1  UNL1        0.1221
     17 C           2.1689   -0.4909   19.7863 C.3     1  UNL1        0.0945
     18 C           1.2945    0.2920   18.8523 C.3     1  UNL1        0.0262
     19 C           5.5164   -1.5111   17.9145 C.ar    1  UNL1        0.1385
     20 C           5.5344   -2.9919   18.1529 C.ar    1  UNL1        0.0369
     21 C           4.4306   -3.6390   18.9357 C.ar    1  UNL1        0.0028
     22 C           3.3088   -2.8054   19.4802 C.ar    1  UNL1       -0.0025
     23 C           3.2908   -1.3246   19.2418 C.ar    1  UNL1       -0.0015
     24 C           4.3946   -0.6774   18.4590 C.ar    1  UNL1        0.0342
     25 C           6.4937    0.5667   16.6989 C.3     1  UNL1        0.2525
     26 O           6.6202   -0.8639   17.1317 O.3     1  UNL1       -0.4714
@<TRIPOS>BOND
     1    25    26    1
     2    26    19    1
     3    19    20   ar
     4    20    21   ar
     5    21    22   ar
     6    22    23   ar
     7    23    17    1
     8    17    18    1
     9    17     1    1
    10     1     2   am
    11     2     3    2
    12     2     5    1
    13     5     6   ar
    14     6     7   ar
    15     7     8   ar
    16     8    11    1
    17    11    12   ar
    18    12    13   ar
    19    13    14   ar
    20    14    15   ar
    21    15    16   ar
    22     8     9   ar
    23     9    10   ar
    24    23    24   ar
    25    24    19   ar
    26    10     5   ar
    27    16    11   ar
    28     1     4    1
@<TRIPOS>MOLECULE
*****
 26 28 0 0 0
SMALL
GASTEIGER

@<TRIPOS>ATOM
      1 N         -15.5506    0.1123   19.0136 N.am    1  UNL1       -0.2987
      2 C         -14.0778    0.0996   18.7298 C.2     1  UNL1        0.2460
      3 O         -13.3500    1.3882   18.4850 O.2     1  UNL1       -0.2701
      4 H         -16.0283   -0.7334   19.1742 H       1  UNL1        0.1500
      5 C         -13.3328   -1.2017   18.6907 C.ar    1  UNL1        0.0534
      6 C         -11.8543   -1.2121   18.4374 C.ar    1  UNL1        0.0045
      7 C         -11.1092   -2.5134   18.3983 C.ar    1  UNL1        0.0002
      8 C         -11.8426   -3.8043   18.6124 C.ar    1  UNL1        0.0016
      9 C         -13.3210   -3.7938   18.8657 C.ar    1  UNL1        0.0002
     10 C         -14.0661   -2.4925   18.9048 C.ar    1  UNL1        0.0045
     11 C         -11.0976   -5.1056   18.5733 C.ar    1  UNL1        0.0226
     12 C         -11.6473   -6.2613   17.7909 C.ar    1  UNL1        0.0241
     13 C         -10.9023   -7.5626   17.7518 C.ar    1  UNL1        0.1222
     14 N          -9.6075   -7.7082   18.4951 N.ar    1  UNL1       -0.1464
     15 N          -9.0578   -6.5524   19.2775 N.ar    1  UNL1       -0.1464
     16 C          -9.8029   -5.2512   19.3166 C.ar    1  UNL1        0.1221
     17 C         -16.2957    1.4136   19.0527 C.3     1  UNL1        0.0945
     18 C         -16.9415    1.9458   17.8079 C.3     1  UNL1        0.0262
     19 C         -17.3087    2.4105   22.7581 C.ar    1  UNL1        0.1385
     20 C         -16.5935    3.7208   22.9048 C.ar    1  UNL1        0.0369
     21 C         -15.7790    4.2621   21.7674 C.ar    1  UNL1        0.0028
     22 C         -15.6797    3.4930   20.4834 C.ar    1  UNL1       -0.0025
     23 C         -16.3949    2.1827   20.3368 C.ar    1  UNL1       -0.0015
     24 C         -17.2094    1.6414   21.4741 C.ar    1  UNL1        0.0342
     25 C         -19.5391    2.3254   24.0878 C.3     1  UNL1        0.2525
     26 O         -18.1232    1.8692   23.8955 O.3     1  UNL1       -0.4714
@<TRIPOS>BOND
     1    25    26    1
     2    26    19    1
     3    19    20   ar
     4    20    21   ar
     5    21    22   ar
     6    22    23   ar
     7    23    17    1
     8    17    18    1
     9    17     1    1
    10     1     2   am
    11     2     3    2
    12     2     5    1
    13     5     6   ar
    14     6     7   ar
    15     7     8   ar
    16     8    11    1
    17    11    12   ar
    18    12    13   ar
    19    13    14   ar
    20    14    15   ar
    21    15    16   ar
    22     8     9   ar
    23     9    10   ar
    24    23    24   ar
    25    24    19   ar
    26    10     5   ar
    27    16    11   ar
    28     1     4    1
@<TRIPOS>MOLECULE
*****
 26 28 0 0 0
SMALL
GASTEIGER

@<TRIPOS>ATOM
      1 N           0.5629    0.6877   25.9483 N.am    1  UNL1       -0.2987
      2 C           1.6166    1.2352   25.0319 C.2     1  UNL1        0.2460
      3 O           2.0862    2.6510   25.1901 O.2     1  UNL1       -0.2701
      4 H           0.2547   -0.2415   25.8445 H       1  UNL1        0.1500
      5 C           2.2009    0.3669   23.9574 C.ar    1  UNL1        0.0534
      6 C           1.7535    0.5305   22.5350 C.ar    1  UNL1        0.0045
      7 C           2.3377   -0.3378   21.4604 C.ar    1  UNL1        0.0002
      8 C           3.3694   -1.3698   21.8083 C.ar    1  UNL1        0.0016
      9 C           3.8167   -1.5333   23.2306 C.ar    1  UNL1        0.0002
     10 C           3.2325   -0.6650   24.3052 C.ar    1  UNL1        0.0045
     11 C           3.9536   -2.2381   20.7337 C.ar    1  UNL1        0.0226
     12 C           3.9845   -1.7556   19.3137 C.ar    1  UNL1        0.0241
     13 C           4.5688   -2.6239   18.2391 C.ar    1  UNL1        0.1222
     14 N           5.1221   -3.9747   18.5846 N.ar    1  UNL1       -0.1464
     15 N           5.0912   -4.4571   20.0045 N.ar    1  UNL1       -0.1464
     16 C           4.5070   -3.5888   21.0791 C.ar    1  UNL1        0.1221
     17 C          -0.0214    1.5560   27.0229 C.3     1  UNL1        0.0945
     18 C          -1.2178    2.4114   26.7281 C.3     1  UNL1        0.0262
     19 C           1.7781    0.3220   30.3379 C.ar    1  UNL1        0.1385
     20 C           1.8152    1.5947   31.1308 C.ar    1  UNL1        0.0369
     21 C           1.2402    2.8545   30.5545 C.ar    1  UNL1        0.0028
     22 C           0.6280    2.8416   29.1852 C.ar    1  UNL1       -0.0025
     23 C           0.5908    1.5690   28.3923 C.ar    1  UNL1       -0.0015
     24 C           1.1659    0.3091   28.9686 C.ar    1  UNL1        0.0342
     25 C           3.5710   -0.8753   31.7877 C.3     1  UNL1        0.2525
     26 O           2.3531   -0.9378   30.9142 O.3     1  UNL1       -0.4714
@<TRIPOS>BOND
     1    25    26    1
     2    26    19    1
     3    19    20   ar
     4    20    21   ar
     5    21    22   ar
     6    22    23   ar
     7    23    17    1
     8    17    18    1
     9    17     1    1
    10     1     2   am
    11     2     3    2
    12     2     5    1
    13     5     6   ar
    14     6     7   ar
    15     7     8   ar
    16     8    11    1
    17    11    12   ar
    18    12    13   ar
    19    13    14   ar
    20    14    15   ar
    21    15    16   ar
    22     8     9   ar
    23     9    10   ar
    24    23    24   ar
    25    24    19   ar
    26    10     5   ar
    27    16    11   ar
    28     1     4    1
