@<TRIPOS>MOLECULE
*****
 32 34 0 0 0
SMALL
GASTEIGER

@<TRIPOS>ATOM
      1 N           6.3999   -5.5717   26.1907 N.am    1  UNL1       -0.2946
      2 C           7.1176   -4.6778   25.2234 C.2     1  UNL1        0.2618
      3 O           8.6078   -4.7712   25.0796 O.2     1  UNL1       -0.2686
      4 H           5.4218   -5.5104   26.2851 H       1  UNL1        0.1501
      5 C           6.3451   -3.6904   24.3998 C.ar    1  UNL1        0.1107
      6 C           5.5591   -2.5264   24.9265 C.ar    1  UNL1        0.0231
      7 C           4.9513   -1.8103   23.7571 C.ar    1  UNL1        0.0186
      8 C           5.3616   -2.5316   22.5076 C.ar    1  UNL1        0.0569
      9 N           6.2230   -3.6936   22.9047 N.ar    1  UNL1       -0.3496
     10 H           6.6358   -4.3441   22.2918 H       1  UNL1        0.1661
     11 C           4.9778   -2.1568   21.1067 C.ar    1  UNL1        0.0201
     12 C           5.9389   -2.3878   19.9785 C.ar    1  UNL1        0.0321
     13 C           5.5551   -2.0129   18.5777 C.ar    1  UNL1        0.1528
     14 F           6.5162   -2.2439   17.4494 F       1  UNL1       -0.2032
     15 C           4.2102   -1.4071   18.3052 C.ar    1  UNL1        0.1124
     16 CL          3.8264   -1.0323   16.9043 Cl      1  UNL1       -0.0775
     17 C           3.2491   -1.1761   19.4334 C.ar    1  UNL1        0.1528
     18 F           1.9042   -0.5703   19.1608 F       1  UNL1       -0.2032
     19 C           3.6329   -1.5509   20.8342 C.ar    1  UNL1        0.0321
     20 C           7.1723   -6.5591   27.0144 C.3     1  UNL1        0.1341
     21 C           7.5172   -6.2403   28.4389 C.ar    1  UNL1        0.1072
     22 N           8.6247   -6.8607   29.2380 N.ar    1  UNL1       -0.2397
     23 C           8.6071   -6.2489   30.6075 C.ar    1  UNL1        0.1037
     24 C           7.4888   -5.2504   30.6548 C.ar    1  UNL1        0.0568
     25 S           6.8152   -5.2450   29.3145 S.2     1  UNL1       -0.0710
     26 C           7.1105   -4.4055   31.8350 C.3     1  UNL1        0.1717
     27 O           6.0776   -4.8941   32.8069 O.3     1  UNL1       -0.3767
     28 H           5.2166   -4.9484   32.3635 H       1  UNL1        0.2109
     29 N           7.5013   -9.1283   27.2165 N.3     1  UNL1       -0.3194
     30 C           7.5999   -7.8653   26.4134 C.3     1  UNL1        0.0917
     31 H           7.8320   -9.9140   26.6564 H       1  UNL1        0.1189
     32 H           6.5297   -9.2863   27.4838 H       1  UNL1        0.1189
@<TRIPOS>BOND
     1    29    30    1
     2    30    20    1
     3    20     1    1
     4     1     2   am
     5     2     3    2
     6     2     5    1
     7     5     6   ar
     8     6     7   ar
     9     7     8   ar
    10     8    11    1
    11    11    12   ar
    12    12    13   ar
    13    13    14    1
    14    13    15   ar
    15    15    16    1
    16    15    17   ar
    17    17    18    1
    18    17    19   ar
    19     8     9   ar
    20    20    21    1
    21    21    22   ar
    22    22    23   ar
    23    23    24   ar
    24    24    26    1
    25    26    27    1
    26    24    25   ar
    27     9     5   ar
    28    25    21   ar
    29    19    11   ar
    30    29    31    1
    31    29    32    1
    32     1     4    1
    33     9    10    1
    34    27    28    1
@<TRIPOS>MOLECULE
*****
 32 34 0 0 0
SMALL
GASTEIGER

@<TRIPOS>ATOM
      1 N           6.4809   -5.2612   25.4620 N.am    1  UNL1       -0.2946
      2 C           7.4102   -4.5075   24.5574 C.2     1  UNL1        0.2618
      3 O           8.8268   -4.2537   24.9804 O.2     1  UNL1       -0.2686
      4 H           5.5511   -5.4277   25.1844 H       1  UNL1        0.1501
      5 C           6.9229   -4.0075   23.2298 C.ar    1  UNL1        0.1107
      6 C           7.5632   -4.2714   21.8992 C.ar    1  UNL1        0.0231
      7 C           6.7458   -3.5828   20.8467 C.ar    1  UNL1        0.0186
      8 C           5.6003   -2.8933   21.5268 C.ar    1  UNL1        0.0569
      9 N           5.7098   -3.1558   22.9996 N.ar    1  UNL1       -0.3496
     10 H           5.0936   -2.8268   23.6934 H       1  UNL1        0.1661
     11 C           4.5328   -2.0835   20.8525 C.ar    1  UNL1        0.0201
     12 C           3.4646   -1.4209   21.6710 C.ar    1  UNL1        0.0321
     13 C           2.3972   -0.6111   20.9966 C.ar    1  UNL1        0.1528
     14 F           1.3289    0.0516   21.8151 F       1  UNL1       -0.2032
     15 C           2.3978   -0.4640   19.5039 C.ar    1  UNL1        0.1124
     16 CL          1.3303    0.3458   18.8296 Cl      1  UNL1       -0.0775
     17 C           3.4660   -1.1267   18.6854 C.ar    1  UNL1        0.1528
     18 F           3.4667   -0.9796   17.1926 F       1  UNL1       -0.2032
     19 C           4.5335   -1.9364   19.3597 C.ar    1  UNL1        0.0321
     20 C           6.9682   -5.7612   26.7896 C.3     1  UNL1        0.1341
     21 C           6.8254   -4.9040   28.0122 C.ar    1  UNL1        0.1072
     22 N           6.5266   -3.4341   28.0285 N.ar    1  UNL1       -0.2397
     23 C           6.4729   -2.9879   29.4596 C.ar    1  UNL1        0.1037
     24 C           6.7384   -4.1819   30.3278 C.ar    1  UNL1        0.0568
     25 S           6.9563   -5.3661   29.4333 S.2     1  UNL1       -0.0710
     26 C           6.7790   -4.1902   31.8272 C.3     1  UNL1        0.1717
     27 O           6.3764   -5.4226   32.5815 O.3     1  UNL1       -0.3767
     28 H           5.4312   -5.5916   32.4438 H       1  UNL1        0.2109
     29 N           6.7893   -8.3459   26.5966 N.3     1  UNL1       -0.3194
     30 C           7.5982   -7.1184   26.8946 C.3     1  UNL1        0.0917
     31 H           7.3718   -9.1745   26.7171 H       1  UNL1        0.1189
     32 H           6.4510   -8.3050   25.6352 H       1  UNL1        0.1189
@<TRIPOS>BOND
     1    29    30    1
     2    30    20    1
     3    20     1    1
     4     1     2   am
     5     2     3    2
     6     2     5    1
     7     5     6   ar
     8     6     7   ar
     9     7     8   ar
    10     8    11    1
    11    11    12   ar
    12    12    13   ar
    13    13    14    1
    14    13    15   ar
    15    15    16    1
    16    15    17   ar
    17    17    18    1
    18    17    19   ar
    19     8     9   ar
    20    20    21    1
    21    21    22   ar
    22    22    23   ar
    23    23    24   ar
    24    24    26    1
    25    26    27    1
    26    24    25   ar
    27     9     5   ar
    28    25    21   ar
    29    19    11   ar
    30    29    31    1
    31    29    32    1
    32     1     4    1
    33     9    10    1
    34    27    28    1
@<TRIPOS>MOLECULE
*****
 32 34 0 0 0
SMALL
GASTEIGER

@<TRIPOS>ATOM
      1 N          -3.4220    2.7364   20.8326 N.am    1  UNL1       -0.2946
      2 C          -2.1463    3.4501   20.4960 C.2     1  UNL1        0.2618
      3 O          -2.0945    4.9488   20.5279 O.2     1  UNL1       -0.2686
      4 H          -3.4559    1.7527   20.8117 H       1  UNL1        0.1501
      5 C          -0.9224    2.6650   20.1276 C.ar    1  UNL1        0.1107
      6 C          -0.1216    2.8196   18.8686 C.ar    1  UNL1        0.0231
      7 C           1.0113    1.8376   18.9163 C.ar    1  UNL1        0.0186
      8 C           0.9108    1.0762   20.2048 C.ar    1  UNL1        0.0569
      9 N          -0.2843    1.5876   20.9534 N.ar    1  UNL1       -0.3496
     10 H          -0.5952    1.2715   21.8324 H       1  UNL1        0.1661
     11 C           1.8419   -0.0065   20.6641 C.ar    1  UNL1        0.0201
     12 C           2.3633   -1.0136   19.6824 C.ar    1  UNL1        0.0321
     13 C           3.2943   -2.0963   20.1417 C.ar    1  UNL1        0.1528
     14 F           3.8158   -3.1035   19.1600 F       1  UNL1       -0.2032
     15 C           3.7040   -2.1717   21.5827 C.ar    1  UNL1        0.1124
     16 CL          4.6351   -3.2545   22.0420 Cl      1  UNL1       -0.0775
     17 C           3.1826   -1.1646   22.5644 C.ar    1  UNL1        0.1528
     18 F           3.5922   -1.2401   24.0054 F       1  UNL1       -0.2032
     19 C           2.2515   -0.0820   22.1051 C.ar    1  UNL1        0.0321
     20 C          -4.6458    3.5214   21.2011 C.3     1  UNL1        0.1341
     21 C          -4.9706    3.7707   22.6441 C.ar    1  UNL1        0.1072
     22 N          -6.2989    4.2092   23.1859 N.ar    1  UNL1       -0.2397
     23 C          -6.1733    4.3348   24.6754 C.ar    1  UNL1        0.1037
     24 C          -4.7674    3.9740   25.0541 C.ar    1  UNL1        0.0568
     25 S          -4.0242    3.6254   23.7987 S.2     1  UNL1       -0.0710
     26 C          -4.2038    3.9637   26.4442 C.3     1  UNL1        0.1717
     27 O          -4.8560    4.7754   27.5239 O.3     1  UNL1       -0.3767
     28 H          -4.7647    5.7190   27.3188 H       1  UNL1        0.2109
     29 N          -7.0182    4.1863   20.3767 N.3     1  UNL1       -0.3194
     30 C          -5.5449    4.0571   20.1265 C.3     1  UNL1        0.0917
     31 H          -7.4724    4.5643   19.5453 H       1  UNL1        0.1189
     32 H          -7.1755    4.8140   21.1651 H       1  UNL1        0.1189
@<TRIPOS>BOND
     1    29    30    1
     2    30    20    1
     3    20     1    1
     4     1     2   am
     5     2     3    2
     6     2     5    1
     7     5     6   ar
     8     6     7   ar
     9     7     8   ar
    10     8    11    1
    11    11    12   ar
    12    12    13   ar
    13    13    14    1
    14    13    15   ar
    15    15    16    1
    16    15    17   ar
    17    17    18    1
    18    17    19   ar
    19     8     9   ar
    20    20    21    1
    21    21    22   ar
    22    22    23   ar
    23    23    24   ar
    24    24    26    1
    25    26    27    1
    26    24    25   ar
    27     9     5   ar
    28    25    21   ar
    29    19    11   ar
    30    29    31    1
    31    29    32    1
    32     1     4    1
    33     9    10    1
    34    27    28    1
@<TRIPOS>MOLECULE
*****
 32 34 0 0 0
SMALL
GASTEIGER

@<TRIPOS>ATOM
      1 N          -3.6632    2.8559   21.0887 N.am    1  UNL1       -0.2946
      2 C          -2.2560    3.3540   21.2364 C.2     1  UNL1        0.2618
      3 O          -1.9221    4.3523   22.3050 O.2     1  UNL1       -0.2686
      4 H          -3.8823    2.2006   20.3874 H       1  UNL1        0.1501
      5 C          -1.1828    2.8539   20.3156 C.ar    1  UNL1        0.1107
      6 C          -0.8044    3.4545   18.9941 C.ar    1  UNL1        0.0231
      7 C           0.3127    2.6372   18.4163 C.ar    1  UNL1        0.0186
      8 C           0.6248    1.5314   19.3805 C.ar    1  UNL1        0.0569
      9 N          -0.2995    1.6653   20.5543 N.ar    1  UNL1       -0.3496
     10 H          -0.3224    1.0765   21.3430 H       1  UNL1        0.1661
     11 C           1.6765    0.4767   19.2023 C.ar    1  UNL1        0.0201
     12 C           2.0036   -0.4547   20.3316 C.ar    1  UNL1        0.0321
     13 C           3.0552   -1.5093   20.1533 C.ar    1  UNL1        0.1528
     14 F           3.3824   -2.4408   21.2827 F       1  UNL1       -0.2032
     15 C           3.7798   -1.6324   18.8457 C.ar    1  UNL1        0.1124
     16 CL          4.8315   -2.6871   18.6675 Cl      1  UNL1       -0.0775
     17 C           3.4528   -0.7010   17.7164 C.ar    1  UNL1        0.1528
     18 F           4.1774   -0.8242   16.4088 F       1  UNL1       -0.2032
     19 C           2.4011    0.3536   17.8947 C.ar    1  UNL1        0.0321
     20 C          -4.7364    3.3560   22.0096 C.3     1  UNL1        0.1341
     21 C          -5.7042    4.3997   21.5364 C.ar    1  UNL1        0.1072
     22 N          -6.0858    5.6480   22.2754 N.ar    1  UNL1       -0.2397
     23 C          -7.0778    6.3982   21.4369 C.ar    1  UNL1        0.1037
     24 C          -7.3093    5.6136   20.1796 C.ar    1  UNL1        0.0568
     25 S          -6.4604    4.3785   20.2411 S.2     1  UNL1       -0.0710
     26 C          -8.2283    5.9968   19.0578 C.3     1  UNL1        0.1717
     27 O          -9.1504    4.9750   18.4613 O.3     1  UNL1       -0.3767
     28 H          -8.6285    4.2890   18.0164 H       1  UNL1        0.2109
     29 N          -5.8063    3.4238   24.3762 N.3     1  UNL1       -0.3194
     30 C          -4.8418    2.8123   23.4037 C.3     1  UNL1        0.0917
     31 H          -5.7460    2.9336   25.2686 H       1  UNL1        0.1189
     32 H          -6.7547    3.3459   24.0089 H       1  UNL1        0.1189
@<TRIPOS>BOND
     1    29    30    1
     2    30    20    1
     3    20     1    1
     4     1     2   am
     5     2     3    2
     6     2     5    1
     7     5     6   ar
     8     6     7   ar
     9     7     8   ar
    10     8    11    1
    11    11    12   ar
    12    12    13   ar
    13    13    14    1
    14    13    15   ar
    15    15    16    1
    16    15    17   ar
    17    17    18    1
    18    17    19   ar
    19     8     9   ar
    20    20    21    1
    21    21    22   ar
    22    22    23   ar
    23    23    24   ar
    24    24    26    1
    25    26    27    1
    26    24    25   ar
    27     9     5   ar
    28    25    21   ar
    29    19    11   ar
    30    29    31    1
    31    29    32    1
    32     1     4    1
    33     9    10    1
    34    27    28    1
@<TRIPOS>MOLECULE
*****
 32 34 0 0 0
SMALL
GASTEIGER

@<TRIPOS>ATOM
      1 N           3.9264    0.4497   29.3603 N.am    1  UNL1       -0.2946
      2 C           3.0100   -0.1204   28.3185 C.2     1  UNL1        0.2618
      3 O           1.7788   -0.8706   28.7322 O.2     1  UNL1       -0.2686
      4 H           4.7346    0.9421   29.0888 H       1  UNL1        0.1501
      5 C           3.3249    0.0598   26.8631 C.ar    1  UNL1        0.1107
      6 C           3.8557    1.3087   26.2238 C.ar    1  UNL1        0.0231
      7 C           4.0232    1.0435   24.7570 C.ar    1  UNL1        0.0186
      8 C           3.5959   -0.3693   24.4896 C.ar    1  UNL1        0.0569
      9 N           3.1644   -0.9772   25.7913 N.ar    1  UNL1       -0.3496
     10 H           2.8338   -1.8956   25.9196 H       1  UNL1        0.1661
     11 C           3.5995   -1.0540   23.1550 C.ar    1  UNL1        0.0201
     12 C           2.7342   -0.5367   22.0443 C.ar    1  UNL1        0.0321
     13 C           2.7379   -1.2214   20.7098 C.ar    1  UNL1        0.1528
     14 F           1.8726   -0.7041   19.5990 F       1  UNL1       -0.2032
     15 C           3.6068   -2.4234   20.4859 C.ar    1  UNL1        0.1124
     16 CL          3.6104   -3.1081   19.1512 Cl      1  UNL1       -0.0775
     17 C           4.4721   -2.9407   21.5965 C.ar    1  UNL1        0.1528
     18 F           5.3410   -4.1427   21.3726 F       1  UNL1       -0.2032
     19 C           4.4685   -2.2560   22.9311 C.ar    1  UNL1        0.0321
     20 C           3.6115    0.2695   30.8158 C.3     1  UNL1        0.1341
     21 C           4.2022   -0.8821   31.5739 C.ar    1  UNL1        0.1072
     22 N           3.7299   -1.3997   32.9002 N.ar    1  UNL1       -0.2397
     23 C           4.6047   -2.5558   33.2848 C.ar    1  UNL1        0.1037
     24 C           5.6178   -2.7528   32.1963 C.ar    1  UNL1        0.0568
     25 S           5.3690   -1.7184   31.1389 S.2     1  UNL1       -0.0710
     26 C           6.6912   -3.8003   32.1699 C.3     1  UNL1        0.1717
     27 O           6.3790   -5.2049   32.5933 O.3     1  UNL1       -0.3767
     28 H           6.1635   -5.2172   33.5390 H       1  UNL1        0.2109
     29 N           1.2317    1.2231   31.2367 N.3     1  UNL1       -0.3194
     30 C           2.7059    1.2410   31.5130 C.3     1  UNL1        0.0917
     31 H           0.7728    1.9449   31.7925 H       1  UNL1        0.1189
     32 H           0.8505    0.3099   31.4838 H       1  UNL1        0.1189
@<TRIPOS>BOND
     1    29    30    1
     2    30    20    1
     3    20     1    1
     4     1     2   am
     5     2     3    2
     6     2     5    1
     7     5     6   ar
     8     6     7   ar
     9     7     8   ar
    10     8    11    1
    11    11    12   ar
    12    12    13   ar
    13    13    14    1
    14    13    15   ar
    15    15    16    1
    16    15    17   ar
    17    17    18    1
    18    17    19   ar
    19     8     9   ar
    20    20    21    1
    21    21    22   ar
    22    22    23   ar
    23    23    24   ar
    24    24    26    1
    25    26    27    1
    26    24    25   ar
    27     9     5   ar
    28    25    21   ar
    29    19    11   ar
    30    29    31    1
    31    29    32    1
    32     1     4    1
    33     9    10    1
    34    27    28    1
@<TRIPOS>MOLECULE
*****
 32 34 0 0 0
SMALL
GASTEIGER

@<TRIPOS>ATOM
      1 N           4.8968   -1.0992   19.6762 N.am    1  UNL1       -0.2946
      2 C           5.1256   -2.5816   19.6595 C.2     1  UNL1        0.2618
      3 O           4.3319   -3.4526   18.7315 O.2     1  UNL1       -0.2686
      4 H           5.4178   -0.5275   20.2852 H       1  UNL1        0.1501
      5 C           6.1483   -3.1929   20.5708 C.ar    1  UNL1        0.1107
      6 C           7.6267   -3.2516   20.3237 C.ar    1  UNL1        0.0231
      7 C           8.2642   -3.9478   21.4894 C.ar    1  UNL1        0.0186
      8 C           7.1799   -4.3194   22.4569 C.ar    1  UNL1        0.0569
      9 N           5.8722   -3.8528   21.8892 N.ar    1  UNL1       -0.3496
     10 H           4.9879   -3.9607   22.3084 H       1  UNL1        0.1661
     11 C           7.3699   -5.0323   23.7630 C.ar    1  UNL1        0.0201
     12 C           8.2106   -6.2730   23.8248 C.ar    1  UNL1        0.0321
     13 C           8.4006   -6.9858   25.1308 C.ar    1  UNL1        0.1528
     14 F           9.2414   -8.2266   25.1927 F       1  UNL1       -0.2032
     15 C           7.7497   -6.4581   26.3750 C.ar    1  UNL1        0.1124
     16 CL          7.9397   -7.1711   27.6810 Cl      1  UNL1       -0.0775
     17 C           6.9090   -5.2175   26.3131 C.ar    1  UNL1        0.1528
     18 F           6.2581   -4.6897   27.5573 F       1  UNL1       -0.2032
     19 C           6.7190   -4.5046   25.0071 C.ar    1  UNL1        0.0321
     20 C           3.8741   -0.4879   18.7649 C.3     1  UNL1        0.1341
     21 C           2.5430   -0.0622   19.3098 C.ar    1  UNL1        0.1072
     22 N           1.6167   -0.9066   20.1337 N.ar    1  UNL1       -0.2397
     23 C           0.4057   -0.0835   20.4595 C.ar    1  UNL1        0.1037
     24 C           0.5836    1.2695   19.8370 C.ar    1  UNL1        0.0568
     25 S           1.9045    1.2827   19.1264 S.2     1  UNL1       -0.0710
     26 C          -0.3887    2.4093   19.9118 C.3     1  UNL1        0.1717
     27 O          -1.3608    2.4922   21.0512 O.3     1  UNL1       -0.3767
     28 H          -1.9838    1.7505   20.9993 H       1  UNL1        0.2109
     29 N           3.7991   -1.3629   16.3197 N.3     1  UNL1       -0.3194
     30 C           4.1826   -0.3023   17.3087 C.3     1  UNL1        0.0917
     31 H           4.0825   -1.0733   15.3836 H       1  UNL1        0.1189
     32 H           2.7885   -1.4992   16.3421 H       1  UNL1        0.1189
@<TRIPOS>BOND
     1    29    30    1
     2    30    20    1
     3    20     1    1
     4     1     2   am
     5     2     3    2
     6     2     5    1
     7     5     6   ar
     8     6     7   ar
     9     7     8   ar
    10     8    11    1
    11    11    12   ar
    12    12    13   ar
    13    13    14    1
    14    13    15   ar
    15    15    16    1
    16    15    17   ar
    17    17    18    1
    18    17    19   ar
    19     8     9   ar
    20    20    21    1
    21    21    22   ar
    22    22    23   ar
    23    23    24   ar
    24    24    26    1
    25    26    27    1
    26    24    25   ar
    27     9     5   ar
    28    25    21   ar
    29    19    11   ar
    30    29    31    1
    31    29    32    1
    32     1     4    1
    33     9    10    1
    34    27    28    1
@<TRIPOS>MOLECULE
*****
 32 34 0 0 0
SMALL
GASTEIGER

@<TRIPOS>ATOM
      1 N          -4.6774    5.0695   22.4629 N.am    1  UNL1       -0.2946
      2 C          -4.1561    3.7744   21.9143 C.2     1  UNL1        0.2618
      3 O          -4.8639    2.4890   22.2252 O.2     1  UNL1       -0.2686
      4 H          -4.2128    5.9131   22.2589 H       1  UNL1        0.1501
      5 C          -2.9268    3.7647   21.0548 C.ar    1  UNL1        0.1107
      6 C          -2.5009    4.8517   20.1128 C.ar    1  UNL1        0.0231
      7 C          -1.2185    4.4251   19.4622 C.ar    1  UNL1        0.0186
      8 C          -0.8516    3.0746   20.0021 C.ar    1  UNL1        0.0569
      9 N          -1.9074    2.6664   20.9864 N.ar    1  UNL1       -0.3496
     10 H          -1.9278    1.8254   21.4977 H       1  UNL1        0.1661
     11 C           0.3585    2.2728   19.6241 C.ar    1  UNL1        0.0201
     12 C           0.4396    0.8201   19.9886 C.ar    1  UNL1        0.0321
     13 C           1.6497    0.0185   19.6106 C.ar    1  UNL1        0.1528
     14 F           1.7309   -1.4343   19.9752 F       1  UNL1       -0.2032
     15 C           2.7788    0.6696   18.8680 C.ar    1  UNL1        0.1124
     16 CL          3.9889   -0.1322   18.4900 Cl      1  UNL1       -0.0775
     17 C           2.6976    2.1223   18.5035 C.ar    1  UNL1        0.1528
     18 F           3.8267    2.7734   17.7609 F       1  UNL1       -0.2032
     19 C           1.4875    2.9239   18.8815 C.ar    1  UNL1        0.0321
     20 C          -5.9067    5.0792   23.3224 C.3     1  UNL1        0.1341
     21 C          -5.7821    5.2481   24.8076 C.ar    1  UNL1        0.1072
     22 N          -4.6678    4.7240   25.6642 N.ar    1  UNL1       -0.2397
     23 C          -4.9469    5.1228   27.0830 C.ar    1  UNL1        0.1037
     24 C          -6.2337    5.8933   27.1034 C.ar    1  UNL1        0.0568
     25 S          -6.7499    5.9707   25.6971 S.2     1  UNL1       -0.0710
     26 C          -6.8892    6.4829   28.3169 C.3     1  UNL1        0.1717
     27 O          -8.1236    5.8481   28.8856 O.3     1  UNL1       -0.3767
     28 H          -8.8521    5.9320   28.2507 H       1  UNL1        0.2109
     29 N          -8.1942    3.8545   23.1898 N.3     1  UNL1       -0.3194
     30 C          -7.2607    4.9200   22.6967 C.3     1  UNL1        0.0917
     31 H          -9.0625    3.8895   22.6558 H       1  UNL1        0.1189
     32 H          -8.3959    4.0097   24.1775 H       1  UNL1        0.1189
@<TRIPOS>BOND
     1    29    30    1
     2    30    20    1
     3    20     1    1
     4     1     2   am
     5     2     3    2
     6     2     5    1
     7     5     6   ar
     8     6     7   ar
     9     7     8   ar
    10     8    11    1
    11    11    12   ar
    12    12    13   ar
    13    13    14    1
    14    13    15   ar
    15    15    16    1
    16    15    17   ar
    17    17    18    1
    18    17    19   ar
    19     8     9   ar
    20    20    21    1
    21    21    22   ar
    22    22    23   ar
    23    23    24   ar
    24    24    26    1
    25    26    27    1
    26    24    25   ar
    27     9     5   ar
    28    25    21   ar
    29    19    11   ar
    30    29    31    1
    31    29    32    1
    32     1     4    1
    33     9    10    1
    34    27    28    1
@<TRIPOS>MOLECULE
*****
 32 34 0 0 0
SMALL
GASTEIGER

@<TRIPOS>ATOM
      1 N           7.6491   -3.6182   28.1247 N.am    1  UNL1       -0.2946
      2 C           6.9348   -4.6503   27.3034 C.2     1  UNL1        0.2618
      3 O           6.2384   -5.7951   27.9776 O.2     1  UNL1       -0.2686
      4 H           8.1061   -2.8669   27.6822 H       1  UNL1        0.1501
      5 C           6.9168   -4.5377   25.8077 C.ar    1  UNL1        0.1107
      6 C           7.9002   -5.1648   24.8644 C.ar    1  UNL1        0.0231
      7 C           7.5035   -4.7928   23.4665 C.ar    1  UNL1        0.0186
      8 C           6.2750   -3.9358   23.5457 C.ar    1  UNL1        0.0569
      9 N           5.9125   -3.7781   24.9927 N.ar    1  UNL1       -0.3496
     10 H           5.1493   -3.2660   25.3455 H       1  UNL1        0.1661
     11 C           5.5384   -3.3408   22.3823 C.ar    1  UNL1        0.0201
     12 C           5.9718   -3.6538   20.9808 C.ar    1  UNL1        0.0321
     13 C           5.2351   -3.0589   19.8175 C.ar    1  UNL1        0.1528
     14 F           5.6685   -3.3719   18.4160 F       1  UNL1       -0.2032
     15 C           4.0651   -2.1510   20.0557 C.ar    1  UNL1        0.1124
     16 CL          3.3285   -1.5560   18.8922 Cl      1  UNL1       -0.0775
     17 C           3.6317   -1.8380   21.4571 C.ar    1  UNL1        0.1528
     18 F           2.4617   -0.9301   21.6953 F       1  UNL1       -0.2032
     19 C           4.3684   -2.4329   22.6204 C.ar    1  UNL1        0.0321
     20 C           7.6670   -3.7309   29.6204 C.3     1  UNL1        0.1341
     21 C           6.6820   -2.9542   30.4428 C.ar    1  UNL1        0.1072
     22 N           6.0312   -1.6610   30.0502 N.ar    1  UNL1       -0.2397
     23 C           5.1219   -1.2419   31.1671 C.ar    1  UNL1        0.1037
     24 C           5.2106   -2.2760   32.2500 C.ar    1  UNL1        0.0568
     25 S           6.1749   -3.3342   31.8024 S.2     1  UNL1       -0.0710
     26 C           4.4660   -2.2554   33.5519 C.3     1  UNL1        0.1717
     27 O           3.5445   -3.3845   33.9068 O.3     1  UNL1       -0.3767
     28 H           2.7950   -3.3958   33.2913 H       1  UNL1        0.2109
     29 N           8.4278   -6.0985   30.3725 N.3     1  UNL1       -0.3194
     30 C           8.6699   -4.6203   30.2935 C.3     1  UNL1        0.0917
     31 H           9.2050   -6.5448   30.8595 H       1  UNL1        0.1189
     32 H           8.3522   -6.4815   29.4301 H       1  UNL1        0.1189
@<TRIPOS>BOND
     1    29    30    1
     2    30    20    1
     3    20     1    1
     4     1     2   am
     5     2     3    2
     6     2     5    1
     7     5     6   ar
     8     6     7   ar
     9     7     8   ar
    10     8    11    1
    11    11    12   ar
    12    12    13   ar
    13    13    14    1
    14    13    15   ar
    15    15    16    1
    16    15    17   ar
    17    17    18    1
    18    17    19   ar
    19     8     9   ar
    20    20    21    1
    21    21    22   ar
    22    22    23   ar
    23    23    24   ar
    24    24    26    1
    25    26    27    1
    26    24    25   ar
    27     9     5   ar
    28    25    21   ar
    29    19    11   ar
    30    29    31    1
    31    29    32    1
    32     1     4    1
    33     9    10    1
    34    27    28    1
@<TRIPOS>MOLECULE
*****
 32 34 0 0 0
SMALL
GASTEIGER

@<TRIPOS>ATOM
      1 N           5.9098   -2.4924   21.1396 N.am    1  UNL1       -0.2946
      2 C           5.4855   -3.6727   21.9623 C.2     1  UNL1        0.2618
      3 O           4.3541   -4.5419   21.4994 O.2     1  UNL1       -0.2686
      4 H           6.6524   -1.9219   21.4434 H       1  UNL1        0.1501
      5 C           6.1926   -3.9838   23.2481 C.ar    1  UNL1        0.1107
      6 C           7.4681   -4.7610   23.3872 C.ar    1  UNL1        0.0231
      7 C           7.8122   -4.8298   24.8456 C.ar    1  UNL1        0.0186
      8 C           6.7495   -4.0952   25.6078 C.ar    1  UNL1        0.0569
      9 N           5.7485   -3.5724   24.6205 N.ar    1  UNL1       -0.3496
     10 H           4.9417   -3.0507   24.8355 H       1  UNL1        0.1661
     11 C           6.6969   -3.9151   27.0961 C.ar    1  UNL1        0.0201
     12 C           6.7642   -5.1109   27.9991 C.ar    1  UNL1        0.0321
     13 C           6.7116   -4.9307   29.4873 C.ar    1  UNL1        0.1528
     14 F           6.7789   -6.1265   30.3904 F       1  UNL1       -0.2032
     15 C           6.5917   -3.5547   30.0724 C.ar    1  UNL1        0.1124
     16 CL          6.5391   -3.3746   31.5607 Cl      1  UNL1       -0.0775
     17 C           6.5244   -2.3590   29.1694 C.ar    1  UNL1        0.1528
     18 F           6.4044   -0.9830   29.7545 F       1  UNL1       -0.2032
     19 C           6.5770   -2.5391   27.6812 C.ar    1  UNL1        0.0321
     20 C           5.2027   -2.1814   19.8538 C.3     1  UNL1        0.1341
     21 C           4.2547   -1.0212   19.7809 C.ar    1  UNL1        0.1072
     22 N           4.6102    0.3854   19.3999 N.ar    1  UNL1       -0.2397
     23 C           3.3600    1.2119   19.4598 C.ar    1  UNL1        0.1037
     24 C           2.2317    0.3163   19.8779 C.ar    1  UNL1        0.0568
     25 S           2.7847   -1.0638   20.0764 S.2     1  UNL1       -0.0710
     26 C           0.8016    0.7284   20.0647 C.3     1  UNL1        0.1717
     27 O          -0.2187   -0.2804   20.5020 O.3     1  UNL1       -0.3767
     28 H          -0.3316   -0.9480   19.8075 H       1  UNL1        0.2109
     29 N           4.5762   -4.2257   18.3779 N.3     1  UNL1       -0.3194
     30 C           5.4435   -3.0305   18.6409 C.3     1  UNL1        0.0917
     31 H           4.8789   -4.6827   17.5178 H       1  UNL1        0.1189
     32 H           3.6058   -3.9268   18.2807 H       1  UNL1        0.1189
@<TRIPOS>BOND
     1    29    30    1
     2    30    20    1
     3    20     1    1
     4     1     2   am
     5     2     3    2
     6     2     5    1
     7     5     6   ar
     8     6     7   ar
     9     7     8   ar
    10     8    11    1
    11    11    12   ar
    12    12    13   ar
    13    13    14    1
    14    13    15   ar
    15    15    16    1
    16    15    17   ar
    17    17    18    1
    18    17    19   ar
    19     8     9   ar
    20    20    21    1
    21    21    22   ar
    22    22    23   ar
    23    23    24   ar
    24    24    26    1
    25    26    27    1
    26    24    25   ar
    27     9     5   ar
    28    25    21   ar
    29    19    11   ar
    30    29    31    1
    31    29    32    1
    32     1     4    1
    33     9    10    1
    34    27    28    1
