@<TRIPOS>MOLECULE
*****
 24 26 0 0 0
SMALL
GASTEIGER

@<TRIPOS>ATOM
      1 C          -8.5634  -17.2795   22.3727 C.3     1  UNL1        0.0935
      2 C          -9.9754  -17.5036   22.8269 C.ar    1  UNL1        0.0001
      3 C         -10.2546  -18.4119   23.9875 C.ar    1  UNL1       -0.0017
      4 C         -11.6664  -18.6360   24.4418 C.ar    1  UNL1        0.0112
      5 C         -12.7992  -17.9518   23.7355 C.ar    1  UNL1        0.0585
      6 CL        -14.2110  -18.1759   24.1897 Cl      1  UNL1       -0.0822
      7 C         -12.5199  -17.0435   22.5749 C.ar    1  UNL1        0.0225
      8 C         -11.1080  -16.8194   22.1206 C.ar    1  UNL1        0.0554
      9 CL        -10.8288  -15.9111   20.9600 Cl      1  UNL1       -0.0825
     10 S          -7.8542  -18.3365   21.5791 S.3     1  UNL1       -0.1298
     11 C          -6.7405  -19.1230   22.2043 C.3     1  UNL1        0.0841
     12 CL         -1.1681  -18.6883   20.0227 Cl      1  UNL1       -0.0822
     13 C          -2.5612  -18.7969   20.5681 C.ar    1  UNL1        0.0577
     14 C          -2.8136  -18.5764   22.0301 C.ar    1  UNL1        0.0111
     15 C          -4.2067  -18.6851   22.5755 C.ar    1  UNL1       -0.0025
     16 C          -5.3474  -19.0143   21.6589 C.ar    1  UNL1       -0.0113
     17 C          -5.0951  -19.2348   20.1968 C.ar    1  UNL1       -0.0025
     18 C          -3.7020  -19.1262   19.6514 C.ar    1  UNL1        0.0111
     19 C          -7.8608  -15.9985   22.7121 C.3     1  UNL1        0.1228
     20 N          -7.2252  -15.8259   24.0598 N.ar    1  UNL1       -0.3066
     21 C          -7.9502  -15.7013   25.3670 C.ar    1  UNL1        0.0981
     22 C          -6.9261  -15.5461   26.4520 C.ar    1  UNL1        0.1193
     23 N          -5.5683  -15.5747   25.8154 N.ar    1  UNL1       -0.2223
     24 C          -5.7531  -15.7477   24.3369 C.ar    1  UNL1        0.1786
@<TRIPOS>BOND
     1    12    13    1
     2    13    14   ar
     3    14    15   ar
     4    15    16   ar
     5    16    11    1
     6    11    10    1
     7    10     1    1
     8     1    19    1
     9    19    20    1
    10    20    21   ar
    11    21    22   ar
    12    22    23   ar
    13    23    24   ar
    14     1     2    1
    15     2     3   ar
    16     3     4   ar
    17     4     5   ar
    18     5     6    1
    19     5     7   ar
    20     7     8   ar
    21     8     9    1
    22    16    17   ar
    23    17    18   ar
    24    18    13   ar
    25    24    20   ar
    26     8     2   ar
@<TRIPOS>MOLECULE
*****
 24 26 0 0 0
SMALL
GASTEIGER

@<TRIPOS>ATOM
      1 C          -8.4928  -18.9135   21.1716 C.3     1  UNL1        0.0935
      2 C          -8.5379  -18.0463   22.3948 C.ar    1  UNL1        0.0001
      3 C          -8.0276  -16.6371   22.3343 C.ar    1  UNL1       -0.0017
      4 C          -8.0728  -15.7700   23.5574 C.ar    1  UNL1        0.0112
      5 C          -8.6283  -16.3121   24.8410 C.ar    1  UNL1        0.0585
      6 CL         -8.6734  -15.4449   26.0641 Cl      1  UNL1       -0.0822
      7 C          -9.1386  -17.7213   24.9015 C.ar    1  UNL1        0.0225
      8 C          -9.0934  -18.5884   23.6783 C.ar    1  UNL1        0.0554
      9 CL         -9.6037  -19.9977   23.7388 Cl      1  UNL1       -0.0825
     10 S          -7.2194  -19.6096   20.7924 S.3     1  UNL1       -0.1298
     11 C          -6.0824  -19.6776   21.7684 C.3     1  UNL1        0.0841
     12 CL         -0.5481  -18.1338   20.0398 Cl      1  UNL1       -0.0822
     13 C          -1.9317  -18.5197   20.4720 C.ar    1  UNL1        0.0577
     14 C          -2.9793  -18.8299   19.4442 C.ar    1  UNL1        0.0111
     15 C          -4.3629  -19.2158   19.8764 C.ar    1  UNL1       -0.0025
     16 C          -4.6988  -19.2916   21.3363 C.ar    1  UNL1       -0.0113
     17 C          -3.6512  -18.9815   22.3640 C.ar    1  UNL1       -0.0025
     18 C          -2.2677  -18.5955   21.9319 C.ar    1  UNL1        0.0111
     19 C          -9.7210  -19.0844   20.3277 C.3     1  UNL1        0.1228
     20 N         -10.9263  -18.2266   20.5750 N.ar    1  UNL1       -0.3066
     21 C         -12.0243  -18.5107   21.5567 C.ar    1  UNL1        0.0981
     22 C         -13.0219  -17.3937   21.4726 C.ar    1  UNL1        0.1193
     23 N         -12.5405  -16.4192   20.4389 N.ar    1  UNL1       -0.2223
     24 C         -11.2454  -16.9340   19.8842 C.ar    1  UNL1        0.1786
@<TRIPOS>BOND
     1    12    13    1
     2    13    14   ar
     3    14    15   ar
     4    15    16   ar
     5    16    11    1
     6    11    10    1
     7    10     1    1
     8     1    19    1
     9    19    20    1
    10    20    21   ar
    11    21    22   ar
    12    22    23   ar
    13    23    24   ar
    14     1     2    1
    15     2     3   ar
    16     3     4   ar
    17     4     5   ar
    18     5     6    1
    19     5     7   ar
    20     7     8   ar
    21     8     9    1
    22    16    17   ar
    23    17    18   ar
    24    18    13   ar
    25    24    20   ar
    26     8     2   ar
@<TRIPOS>MOLECULE
*****
 24 26 0 0 0
SMALL
GASTEIGER

@<TRIPOS>ATOM
      1 C          -9.6688  -18.3712   23.5087 C.3     1  UNL1        0.0935
      2 C          -9.0588  -17.4731   24.5439 C.ar    1  UNL1        0.0001
      3 C          -9.2424  -17.7758   26.0015 C.ar    1  UNL1       -0.0017
      4 C          -8.6325  -16.8778   27.0366 C.ar    1  UNL1        0.0112
      5 C          -7.8389  -15.6770   26.6142 C.ar    1  UNL1        0.0585
      6 CL         -7.2290  -14.7790   27.6493 Cl      1  UNL1       -0.0822
      7 C          -7.6553  -15.3743   25.1565 C.ar    1  UNL1        0.0225
      8 C          -8.2653  -16.2724   24.1214 C.ar    1  UNL1        0.0554
      9 CL         -8.0817  -15.9697   22.6638 Cl      1  UNL1       -0.0825
     10 S          -8.8771  -19.5152   22.9480 S.3     1  UNL1       -0.1298
     11 C          -8.2323  -19.3913   21.5993 C.3     1  UNL1        0.0841
     12 CL         -2.2709  -19.8217   21.0733 Cl      1  UNL1       -0.0822
     13 C          -3.7613  -19.7141   21.2048 C.ar    1  UNL1        0.0577
     14 C          -4.6536  -20.4887   20.2809 C.ar    1  UNL1        0.0111
     15 C          -6.1439  -20.3811   20.4124 C.ar    1  UNL1       -0.0025
     16 C          -6.7420  -19.4989   21.4678 C.ar    1  UNL1       -0.0113
     17 C          -5.8497  -18.7243   22.3918 C.ar    1  UNL1       -0.0025
     18 C          -4.3593  -18.8319   22.2603 C.ar    1  UNL1        0.0111
     19 C         -11.0704  -18.1252   23.0344 C.3     1  UNL1        0.1228
     20 N         -11.3091  -17.5040   21.6901 N.ar    1  UNL1       -0.3066
     21 C         -11.3655  -16.0343   21.3955 C.ar    1  UNL1        0.0981
     22 C         -11.6246  -15.8653   19.9277 C.ar    1  UNL1        0.1193
     23 N         -11.7283  -17.2306   19.3152 N.ar    1  UNL1       -0.2223
     24 C         -11.5333  -18.2433   20.4044 C.ar    1  UNL1        0.1786
@<TRIPOS>BOND
     1    12    13    1
     2    13    14   ar
     3    14    15   ar
     4    15    16   ar
     5    16    11    1
     6    11    10    1
     7    10     1    1
     8     1    19    1
     9    19    20    1
    10    20    21   ar
    11    21    22   ar
    12    22    23   ar
    13    23    24   ar
    14     1     2    1
    15     2     3   ar
    16     3     4   ar
    17     4     5   ar
    18     5     6    1
    19     5     7   ar
    20     7     8   ar
    21     8     9    1
    22    16    17   ar
    23    17    18   ar
    24    18    13   ar
    25    24    20   ar
    26     8     2   ar
@<TRIPOS>MOLECULE
*****
 24 26 0 0 0
SMALL
GASTEIGER

@<TRIPOS>ATOM
      1 C          -8.0780  -18.2611   22.3043 C.3     1  UNL1        0.0935
      2 C          -8.1263  -17.4617   23.5726 C.ar    1  UNL1        0.0001
      3 C          -9.2387  -17.6802   24.5549 C.ar    1  UNL1       -0.0017
      4 C          -9.2872  -16.8808   25.8232 C.ar    1  UNL1        0.0112
      5 C          -8.2232  -15.8629   26.1093 C.ar    1  UNL1        0.0585
      6 CL         -8.2716  -15.0636   27.3776 Cl      1  UNL1       -0.0822
      7 C          -7.1108  -15.6444   25.1271 C.ar    1  UNL1        0.0225
      8 C          -7.0624  -16.4438   23.8587 C.ar    1  UNL1        0.0554
      9 CL         -5.9500  -16.2253   22.8764 Cl      1  UNL1       -0.0825
     10 S          -7.2790  -19.5293   22.2471 S.3     1  UNL1       -0.1298
     11 C          -6.4464  -19.8373   21.0380 C.3     1  UNL1        0.0841
     12 CL         -0.8178  -17.7917   20.6709 Cl      1  UNL1       -0.0822
     13 C          -2.2249  -18.3031   20.7627 C.ar    1  UNL1        0.0577
     14 C          -2.8555  -18.5270   22.1052 C.ar    1  UNL1        0.0111
     15 C          -4.2627  -19.0384   22.1969 C.ar    1  UNL1       -0.0025
     16 C          -5.0392  -19.3259   20.9463 C.ar    1  UNL1       -0.0113
     17 C          -4.4086  -19.1021   19.6038 C.ar    1  UNL1       -0.0025
     18 C          -3.0015  -18.5907   19.5120 C.ar    1  UNL1        0.0111
     19 C          -8.8285  -17.7923   21.0932 C.3     1  UNL1        0.1228
     20 N         -10.2986  -17.5088   21.1851 N.ar    1  UNL1       -0.3066
     21 C         -10.9243  -16.1680   21.4312 C.ar    1  UNL1        0.0981
     22 C         -12.4136  -16.3469   21.4452 C.ar    1  UNL1        0.1193
     23 N         -12.7083  -17.7983   21.2078 N.ar    1  UNL1       -0.2223
     24 C         -11.4012  -18.5164   21.0470 C.ar    1  UNL1        0.1786
@<TRIPOS>BOND
     1    12    13    1
     2    13    14   ar
     3    14    15   ar
     4    15    16   ar
     5    16    11    1
     6    11    10    1
     7    10     1    1
     8     1    19    1
     9    19    20    1
    10    20    21   ar
    11    21    22   ar
    12    22    23   ar
    13    23    24   ar
    14     1     2    1
    15     2     3   ar
    16     3     4   ar
    17     4     5   ar
    18     5     6    1
    19     5     7   ar
    20     7     8   ar
    21     8     9    1
    22    16    17   ar
    23    17    18   ar
    24    18    13   ar
    25    24    20   ar
    26     8     2   ar
@<TRIPOS>MOLECULE
*****
 24 26 0 0 0
SMALL
GASTEIGER

@<TRIPOS>ATOM
      1 C         -13.3345   -5.1277   17.1382 C.3     1  UNL1        0.0935
      2 C         -13.9729   -4.0150   17.9157 C.ar    1  UNL1        0.0001
      3 C         -14.5675   -2.8415   17.1951 C.ar    1  UNL1       -0.0017
      4 C         -15.2058   -1.7288   17.9726 C.ar    1  UNL1        0.0112
      5 C         -15.2496   -1.7897   19.4707 C.ar    1  UNL1        0.0585
      6 CL        -15.8880   -0.6770   20.2482 Cl      1  UNL1       -0.0822
      7 C         -14.6550   -2.9632   20.1914 C.ar    1  UNL1        0.0225
      8 C         -14.0167   -4.0759   19.4138 C.ar    1  UNL1        0.0554
      9 CL        -13.4221   -5.2494   20.1344 Cl      1  UNL1       -0.0825
     10 S         -14.1629   -6.2878   16.6714 S.3     1  UNL1       -0.1298
     11 C         -14.3409   -7.4862   17.5558 C.3     1  UNL1        0.0841
     12 CL        -19.3240   -8.0730   20.8459 Cl      1  UNL1       -0.0822
     13 C         -18.0782   -7.9263   20.0234 C.ar    1  UNL1        0.0577
     14 C         -17.8596   -6.6866   19.2078 C.ar    1  UNL1        0.0111
     15 C         -16.6139   -6.5399   18.3853 C.ar    1  UNL1       -0.0025
     16 C         -15.5867   -7.6329   18.3783 C.ar    1  UNL1       -0.0113
     17 C         -15.8053   -8.8727   19.1939 C.ar    1  UNL1       -0.0025
     18 C         -17.0510   -9.0194   20.0164 C.ar    1  UNL1        0.0111
     19 C         -11.8679   -5.0801   16.8274 C.3     1  UNL1        0.1228
     20 N         -10.8730   -5.5986   17.8231 N.ar    1  UNL1       -0.3066
     21 C         -10.5043   -7.0372   18.0339 C.ar    1  UNL1        0.0981
     22 C          -9.4756   -7.0972   19.1239 C.ar    1  UNL1        0.1193
     23 N          -9.2086   -5.6956   19.5869 N.ar    1  UNL1       -0.2223
     24 C         -10.0722   -4.7694   18.7829 C.ar    1  UNL1        0.1786
@<TRIPOS>BOND
     1    12    13    1
     2    13    14   ar
     3    14    15   ar
     4    15    16   ar
     5    16    11    1
     6    11    10    1
     7    10     1    1
     8     1    19    1
     9    19    20    1
    10    20    21   ar
    11    21    22   ar
    12    22    23   ar
    13    23    24   ar
    14     1     2    1
    15     2     3   ar
    16     3     4   ar
    17     4     5   ar
    18     5     6    1
    19     5     7   ar
    20     7     8   ar
    21     8     9    1
    22    16    17   ar
    23    17    18   ar
    24    18    13   ar
    25    24    20   ar
    26     8     2   ar
@<TRIPOS>MOLECULE
*****
 24 26 0 0 0
SMALL
GASTEIGER

@<TRIPOS>ATOM
      1 C         -14.9916   -5.5227   18.6601 C.3     1  UNL1        0.0935
      2 C         -13.5402   -5.4505   18.2881 C.ar    1  UNL1        0.0001
      3 C         -12.5161   -6.1626   19.1213 C.ar    1  UNL1       -0.0017
      4 C         -11.0648   -6.0905   18.7493 C.ar    1  UNL1        0.0112
      5 C         -10.6374   -5.3063   17.5442 C.ar    1  UNL1        0.0585
      6 CL         -9.1861   -5.2342   17.1722 Cl      1  UNL1       -0.0822
      7 C         -11.6615   -4.5941   16.7110 C.ar    1  UNL1        0.0225
      8 C         -13.1129   -4.6663   17.0830 C.ar    1  UNL1        0.0554
      9 CL        -14.1369   -3.9541   16.2498 Cl      1  UNL1       -0.0825
     10 S         -15.5270   -4.6581   19.7627 S.3     1  UNL1       -0.1298
     11 C         -14.6183   -3.6981   20.4716 C.3     1  UNL1        0.0841
     12 CL        -12.0681    0.8110   17.4443 Cl      1  UNL1       -0.0822
     13 C         -12.7057   -0.3163   18.2012 C.ar    1  UNL1        0.0577
     14 C         -11.8490   -1.3185   18.9165 C.ar    1  UNL1        0.0111
     15 C         -12.4866   -2.4458   19.6733 C.ar    1  UNL1       -0.0025
     16 C         -13.9807   -2.5708   19.7148 C.ar    1  UNL1       -0.0113
     17 C         -14.8374   -1.5686   18.9995 C.ar    1  UNL1       -0.0025
     18 C         -14.1998   -0.4413   18.2427 C.ar    1  UNL1        0.0111
     19 C         -15.9074   -6.4593   17.9295 C.3     1  UNL1        0.1228
     20 N         -16.0595   -7.8764   18.3971 N.ar    1  UNL1       -0.3066
     21 C         -17.0547   -8.3704   19.4048 C.ar    1  UNL1        0.0981
     22 C         -16.8534   -9.8476   19.5696 C.ar    1  UNL1        0.1193
     23 N         -15.7337  -10.2667   18.6637 N.ar    1  UNL1       -0.2223
     24 C         -15.2430   -9.0484   17.9391 C.ar    1  UNL1        0.1786
@<TRIPOS>BOND
     1    12    13    1
     2    13    14   ar
     3    14    15   ar
     4    15    16   ar
     5    16    11    1
     6    11    10    1
     7    10     1    1
     8     1    19    1
     9    19    20    1
    10    20    21   ar
    11    21    22   ar
    12    22    23   ar
    13    23    24   ar
    14     1     2    1
    15     2     3   ar
    16     3     4   ar
    17     4     5   ar
    18     5     6    1
    19     5     7   ar
    20     7     8   ar
    21     8     9    1
    22    16    17   ar
    23    17    18   ar
    24    18    13   ar
    25    24    20   ar
    26     8     2   ar
@<TRIPOS>MOLECULE
*****
 24 26 0 0 0
SMALL
GASTEIGER

@<TRIPOS>ATOM
      1 C         -13.9646   -4.6539   19.3485 C.3     1  UNL1        0.0935
      2 C         -13.1849   -3.5607   18.6800 C.ar    1  UNL1        0.0001
      3 C         -12.5113   -2.5062   19.5073 C.ar    1  UNL1       -0.0017
      4 C         -11.7316   -1.4130   18.8388 C.ar    1  UNL1        0.0112
      5 C         -11.6253   -1.3742   17.3430 C.ar    1  UNL1        0.0585
      6 CL        -10.8456   -0.2810   16.6746 Cl      1  UNL1       -0.0822
      7 C         -12.2989   -2.4287   16.5158 C.ar    1  UNL1        0.0225
      8 C         -13.0787   -3.5220   17.1843 C.ar    1  UNL1        0.0554
      9 CL        -13.7522   -4.5765   16.3570 Cl      1  UNL1       -0.0825
     10 S         -15.4326   -4.4803   19.6030 S.3     1  UNL1       -0.1298
     11 C         -16.4334   -5.1339   18.6969 C.3     1  UNL1        0.0841
     12 CL        -17.0121  -11.1059   18.6780 Cl      1  UNL1       -0.0822
     13 C         -16.8675   -9.6129   18.6827 C.ar    1  UNL1        0.0577
     14 C         -17.5043   -8.8011   19.7715 C.ar    1  UNL1        0.0111
     15 C         -17.3596   -7.3081   19.7762 C.ar    1  UNL1       -0.0025
     16 C         -16.5781   -6.6269   18.6922 C.ar    1  UNL1       -0.0113
     17 C         -15.9413   -7.4387   17.6034 C.ar    1  UNL1       -0.0025
     18 C         -16.0860   -8.9317   17.5987 C.ar    1  UNL1        0.0111
     19 C         -13.2764   -5.9208   19.7624 C.3     1  UNL1        0.1228
     20 N         -12.1613   -6.4760   18.9269 N.ar    1  UNL1       -0.3066
     21 C         -10.7166   -6.0808   19.0094 C.ar    1  UNL1        0.0981
     22 C          -9.9575   -6.8845   17.9956 C.ar    1  UNL1        0.1193
     23 N         -10.9330   -7.7764   17.2865 N.ar    1  UNL1       -0.2223
     24 C         -12.2950   -7.5240   17.8620 C.ar    1  UNL1        0.1786
@<TRIPOS>BOND
     1    12    13    1
     2    13    14   ar
     3    14    15   ar
     4    15    16   ar
     5    16    11    1
     6    11    10    1
     7    10     1    1
     8     1    19    1
     9    19    20    1
    10    20    21   ar
    11    21    22   ar
    12    22    23   ar
    13    23    24   ar
    14     1     2    1
    15     2     3   ar
    16     3     4   ar
    17     4     5   ar
    18     5     6    1
    19     5     7   ar
    20     7     8   ar
    21     8     9    1
    22    16    17   ar
    23    17    18   ar
    24    18    13   ar
    25    24    20   ar
    26     8     2   ar
@<TRIPOS>MOLECULE
*****
 24 26 0 0 0
SMALL
GASTEIGER

@<TRIPOS>ATOM
      1 C         -14.0100   -2.0813   17.9920 C.3     1  UNL1        0.0935
      2 C         -14.3760   -3.4970   18.3264 C.ar    1  UNL1        0.0001
      3 C         -15.0124   -4.3725   17.2878 C.ar    1  UNL1       -0.0017
      4 C         -15.3784   -5.7881   17.6222 C.ar    1  UNL1        0.0112
      5 C         -15.1082   -6.3284   18.9953 C.ar    1  UNL1        0.0585
      6 CL        -15.4743   -7.7440   19.3296 Cl      1  UNL1       -0.0822
      7 C         -14.4718   -5.4529   20.0338 C.ar    1  UNL1        0.0225
      8 C         -14.1058   -4.0372   19.6994 C.ar    1  UNL1        0.0554
      9 CL        -13.4694   -3.1618   20.7380 Cl      1  UNL1       -0.0825
     10 S         -12.5672   -1.6783   17.9130 S.3     1  UNL1       -0.1298
     11 C         -11.6228   -2.4406   17.0316 C.3     1  UNL1        0.0841
     12 CL         -9.4035   -7.7071   18.8587 Cl      1  UNL1       -0.0822
     13 C          -9.9584   -6.3905   18.4019 C.ar    1  UNL1        0.0577
     14 C         -10.7950   -6.3198   17.1590 C.ar    1  UNL1        0.0111
     15 C         -11.3499   -5.0032   16.7022 C.ar    1  UNL1       -0.0025
     16 C         -11.0680   -3.7572   17.4884 C.ar    1  UNL1       -0.0113
     17 C         -10.2313   -3.8279   18.7313 C.ar    1  UNL1       -0.0025
     18 C          -9.6765   -5.1446   19.1881 C.ar    1  UNL1        0.0111
     19 C         -15.0866   -1.0686   17.7365 C.3     1  UNL1        0.1228
     20 N         -16.0046   -0.6533   18.8477 N.ar    1  UNL1       -0.3066
     21 C         -15.9134    0.6183   19.6380 C.ar    1  UNL1        0.0981
     22 C         -17.0275    0.6208   20.6424 C.ar    1  UNL1        0.1193
     23 N         -17.8072   -0.6493   20.4729 N.ar    1  UNL1       -0.2223
     24 C         -17.1750   -1.4368   19.3637 C.ar    1  UNL1        0.1786
@<TRIPOS>BOND
     1    12    13    1
     2    13    14   ar
     3    14    15   ar
     4    15    16   ar
     5    16    11    1
     6    11    10    1
     7    10     1    1
     8     1    19    1
     9    19    20    1
    10    20    21   ar
    11    21    22   ar
    12    22    23   ar
    13    23    24   ar
    14     1     2    1
    15     2     3   ar
    16     3     4   ar
    17     4     5   ar
    18     5     6    1
    19     5     7   ar
    20     7     8   ar
    21     8     9    1
    22    16    17   ar
    23    17    18   ar
    24    18    13   ar
    25    24    20   ar
    26     8     2   ar
@<TRIPOS>MOLECULE
*****
 24 26 0 0 0
SMALL
GASTEIGER

@<TRIPOS>ATOM
      1 C          -7.5886  -16.8536   23.3489 C.3     1  UNL1        0.0935
      2 C          -7.8647  -17.7450   22.1744 C.ar    1  UNL1        0.0001
      3 C          -7.0493  -18.9869   21.9675 C.ar    1  UNL1       -0.0017
      4 C          -7.3252  -19.8783   20.7931 C.ar    1  UNL1        0.0112
      5 C          -8.4166  -19.5278   19.8255 C.ar    1  UNL1        0.0585
      6 CL         -8.6926  -20.4191   18.6511 Cl      1  UNL1       -0.0822
      7 C          -9.2320  -18.2858   20.0324 C.ar    1  UNL1        0.0225
      8 C          -8.9560  -17.3944   21.2069 C.ar    1  UNL1        0.0554
      9 CL         -9.7713  -16.1525   21.4138 Cl      1  UNL1       -0.0825
     10 S          -6.3431  -16.0184   23.3801 S.3     1  UNL1       -0.1298
     11 C          -5.0737  -16.5855   23.9431 C.3     1  UNL1        0.0841
     12 CL         -0.6817  -18.3501   20.2557 Cl      1  UNL1       -0.0822
     13 C          -1.7797  -17.9089   21.1776 C.ar    1  UNL1        0.0577
     14 C          -1.9970  -16.4482   21.4401 C.ar    1  UNL1        0.0111
     15 C          -3.0950  -16.0070   22.3619 C.ar    1  UNL1       -0.0025
     16 C          -3.9757  -17.0266   23.0212 C.ar    1  UNL1       -0.0113
     17 C          -3.7584  -18.4874   22.7587 C.ar    1  UNL1       -0.0025
     18 C          -2.6604  -18.9285   21.8369 C.ar    1  UNL1        0.0111
     19 C          -8.5582  -16.7975   24.4920 C.3     1  UNL1        0.1228
     20 N          -9.7622  -17.6920   24.4988 N.ar    1  UNL1       -0.3066
     21 C          -9.8154  -19.0950   25.0268 C.ar    1  UNL1        0.0981
     22 C         -11.2106  -19.6107   24.8332 C.ar    1  UNL1        0.1193
     23 N         -12.0198  -18.5264   24.1855 N.ar    1  UNL1       -0.2223
     24 C         -11.1246  -17.3406   23.9788 C.ar    1  UNL1        0.1786
@<TRIPOS>BOND
     1    12    13    1
     2    13    14   ar
     3    14    15   ar
     4    15    16   ar
     5    16    11    1
     6    11    10    1
     7    10     1    1
     8     1    19    1
     9    19    20    1
    10    20    21   ar
    11    21    22   ar
    12    22    23   ar
    13    23    24   ar
    14     1     2    1
    15     2     3   ar
    16     3     4   ar
    17     4     5   ar
    18     5     6    1
    19     5     7   ar
    20     7     8   ar
    21     8     9    1
    22    16    17   ar
    23    17    18   ar
    24    18    13   ar
    25    24    20   ar
    26     8     2   ar
