@<TRIPOS>MOLECULE
*****
 38 43 0 0 0
SMALL
GASTEIGER

@<TRIPOS>ATOM
      1 C          -9.2765  -17.4537   25.2943 C.3     1  UNL1        0.0932
      2 C          -9.0514  -17.1177   23.8498 C.3     1  UNL1        0.0286
      3 C          -8.0052  -16.1130   23.4677 C.3     1  UNL1        0.0193
      4 C          -7.1840  -15.4444   24.5301 C.3     1  UNL1        0.0700
      5 C          -7.4090  -15.7804   25.9746 C.3     1  UNL1        0.0193
      6 C          -8.4553  -16.7852   26.3566 C.3     1  UNL1        0.0286
      7 C          -7.7456  -15.9884   24.7881 C.3     1  UNL1        0.1562
      8 O          -8.6917  -16.8968   25.1337 O.3     1  UNL1       -0.3572
      9 N          -6.1377  -14.4397   24.1480 N.3     1  UNL1       -0.2926
     10 H          -6.2623  -13.6362   24.7638 H       1  UNL1        0.1236
     11 C          -4.6853  -14.8099   24.2075 C.3     1  UNL1        0.1152
     12 C          -4.1867  -16.0124   23.4624 C.ar    1  UNL1        0.0765
     13 C          -4.6369  -17.3850   23.8664 C.ar    1  UNL1        0.0193
     14 C          -4.1383  -18.5875   23.1213 C.ar    1  UNL1        0.0411
     15 C          -3.1894  -18.4175   21.9722 C.ar    1  UNL1        0.1708
     16 C          -2.7391  -17.0450   21.5681 C.ar    1  UNL1        0.1682
     17 N          -3.2377  -15.8424   22.3132 N.ar    1  UNL1       -0.2304
     18 N          -1.7902  -16.8750   20.4189 N.am    1  UNL1       -0.2639
     19 C          -1.2915  -18.0775   19.6738 C.2     1  UNL1        0.2718
     20 O          -0.3426  -17.9075   18.5246 O.2     1  UNL1       -0.2707
     21 C          -1.7418  -19.4501   20.0778 C.3     1  UNL1        0.2898
     22 O          -2.6907  -19.6202   21.2270 O.3     1  UNL1       -0.4628
     23 H          -1.4946  -15.9741   20.1537 H       1  UNL1        0.1565
     24 C         -10.3227  -18.4584   25.6764 C.3     1  UNL1        0.0320
     25 C         -10.8709  -19.3996   24.6450 C.3     1  UNL1        0.0327
     26 C          -8.6665  -19.5910   20.7266 C.ar    1  UNL1        0.1492
     27 C          -9.3032  -19.0502   19.4807 C.ar    1  UNL1        0.0312
     28 C         -10.6746  -18.4456   19.5410 C.ar    1  UNL1        0.0229
     29 C         -11.4094  -18.3818   20.8471 C.ar    1  UNL1        0.0988
     30 N         -12.7808  -17.7772   20.9073 N.ar    1  UNL1       -0.2400
     31 C         -13.5157  -17.7134   22.2134 C.ar    1  UNL1        0.1281
     32 C         -12.8790  -18.2542   23.4594 C.ar    1  UNL1        0.1566
     33 F         -13.6138  -18.1904   24.7655 F       1  UNL1       -0.2028
     34 C         -11.5076  -18.8588   23.3991 C.ar    1  UNL1        0.0260
     35 C         -10.7728  -18.9226   22.0929 C.ar    1  UNL1        0.0978
     36 N          -9.4013  -19.5272   22.0327 N.ar    1  UNL1       -0.2338
     37 N          -5.9236  -20.8001   20.6061 N.1     1  UNL1       -0.1893
     38 C          -7.2951  -20.1955   20.6664 C.1     1  UNL1        0.1198
@<TRIPOS>BOND
     1    37    38    3
     2    38    26    1
     3    26    27   ar
     4    27    28   ar
     5    28    29   ar
     6    29    30   ar
     7    30    31   ar
     8    31    32   ar
     9    32    33    1
    10    32    34   ar
    11    34    25    1
    12    25    24    1
    13    24     1    1
    14     1     2    1
    15     2     3    1
    16     3     4    1
    17     4     9    1
    18     9    11    1
    19    11    12    1
    20    12    13   ar
    21    13    14   ar
    22    14    15   ar
    23    15    16   ar
    24    16    17   ar
    25    16    18    1
    26    18    19   am
    27    19    20    2
    28    19    21    1
    29    21    22    1
    30     4     5    1
    31     5     6    1
    32     4     7    1
    33     7     8    1
    34    34    35   ar
    35    35    36   ar
    36    36    26   ar
    37    35    29   ar
    38     6     1    1
    39     8     1    1
    40    17    12   ar
    41    22    15    1
    42     9    10    1
    43    18    23    1
@<TRIPOS>MOLECULE
*****
 38 43 0 0 0
SMALL
GASTEIGER

@<TRIPOS>ATOM
      1 C          -4.7696  -15.5363   23.6576 C.3     1  UNL1        0.0932
      2 C          -6.1369  -15.1137   23.2082 C.3     1  UNL1        0.0286
      3 C          -7.2969  -15.1972   24.1555 C.3     1  UNL1        0.0193
      4 C          -7.0896  -15.7034   25.5523 C.3     1  UNL1        0.0700
      5 C          -5.7223  -16.1261   26.0016 C.3     1  UNL1        0.0193
      6 C          -4.5623  -16.0425   25.0542 C.3     1  UNL1        0.0286
      7 C          -6.4235  -15.6757   25.0691 C.3     1  UNL1        0.1562
      8 O          -5.3746  -15.6001   24.2125 O.3     1  UNL1       -0.3572
      9 N          -8.2496  -15.7870   26.4996 N.3     1  UNL1       -0.2926
     10 H          -8.8229  -14.9592   26.3368 H       1  UNL1        0.1236
     11 C          -9.1723  -16.9687   26.4530 C.3     1  UNL1        0.1152
     12 C          -9.8136  -17.3690   25.1575 C.ar    1  UNL1        0.0765
     13 C         -10.4299  -18.7291   25.0144 C.ar    1  UNL1        0.0193
     14 C         -11.0713  -19.1293   23.7189 C.ar    1  UNL1        0.0411
     15 C         -11.0963  -18.1695   22.5664 C.ar    1  UNL1        0.1708
     16 C         -10.4801  -16.8095   22.7095 C.ar    1  UNL1        0.1682
     17 N          -9.8387  -16.4092   24.0050 N.ar    1  UNL1       -0.2304
     18 N         -10.5051  -15.8497   21.5570 N.am    1  UNL1       -0.2639
     19 C         -11.1465  -16.2500   20.2615 C.2     1  UNL1        0.2718
     20 O         -11.1715  -15.2902   19.1090 O.2     1  UNL1       -0.2707
     21 C         -11.7628  -17.6100   20.1184 C.3     1  UNL1        0.2898
     22 O         -11.7377  -18.5698   21.2708 O.3     1  UNL1       -0.4628
     23 H         -10.1006  -14.9571   21.6509 H       1  UNL1        0.1565
     24 C          -3.6096  -15.4527   22.7102 C.3     1  UNL1        0.0320
     25 C          -2.6072  -16.5671   22.6518 C.3     1  UNL1        0.0327
     26 C          -5.5302  -19.7410   21.3740 C.ar    1  UNL1        0.1492
     27 C          -5.3131  -20.4879   20.0915 C.ar    1  UNL1        0.0312
     28 C          -4.1216  -20.1769   19.2349 C.ar    1  UNL1        0.0229
     29 C          -3.1473  -19.1190   19.6608 C.ar    1  UNL1        0.0988
     30 N          -1.9559  -18.8080   18.8042 N.ar    1  UNL1       -0.2400
     31 C          -0.9816  -17.7501   19.2301 C.ar    1  UNL1        0.1281
     32 C          -1.1987  -17.0030   20.5127 C.ar    1  UNL1        0.1566
     33 F          -0.2244  -15.9451   20.9386 F       1  UNL1       -0.2028
     34 C          -2.3901  -17.3140   21.3693 C.ar    1  UNL1        0.0260
     35 C          -3.3644  -18.3720   20.9433 C.ar    1  UNL1        0.0978
     36 N          -4.5559  -18.6830   21.7999 N.ar    1  UNL1       -0.2338
     37 N          -7.9130  -20.3630   23.0872 N.1     1  UNL1       -0.1893
     38 C          -6.7216  -20.0520   22.2306 C.1     1  UNL1        0.1198
@<TRIPOS>BOND
     1    37    38    3
     2    38    26    1
     3    26    27   ar
     4    27    28   ar
     5    28    29   ar
     6    29    30   ar
     7    30    31   ar
     8    31    32   ar
     9    32    33    1
    10    32    34   ar
    11    34    25    1
    12    25    24    1
    13    24     1    1
    14     1     2    1
    15     2     3    1
    16     3     4    1
    17     4     9    1
    18     9    11    1
    19    11    12    1
    20    12    13   ar
    21    13    14   ar
    22    14    15   ar
    23    15    16   ar
    24    16    17   ar
    25    16    18    1
    26    18    19   am
    27    19    20    2
    28    19    21    1
    29    21    22    1
    30     4     5    1
    31     5     6    1
    32     4     7    1
    33     7     8    1
    34    34    35   ar
    35    35    36   ar
    36    36    26   ar
    37    35    29   ar
    38     6     1    1
    39     8     1    1
    40    17    12   ar
    41    22    15    1
    42     9    10    1
    43    18    23    1
@<TRIPOS>MOLECULE
*****
 38 43 0 0 0
SMALL
GASTEIGER

@<TRIPOS>ATOM
      1 C         -11.3685  -18.9278   23.3057 C.3     1  UNL1        0.0932
      2 C         -10.6327  -19.3075   24.5564 C.3     1  UNL1        0.0286
      3 C          -9.3122  -20.0129   24.4649 C.3     1  UNL1        0.0193
      4 C          -8.7273  -20.3387   23.1225 C.3     1  UNL1        0.0700
      5 C          -9.4631  -19.9589   21.8717 C.3     1  UNL1        0.0193
      6 C         -10.7838  -19.2535   21.9633 C.3     1  UNL1        0.0286
      7 C          -9.4538  -19.9511   23.1223 C.3     1  UNL1        0.1562
      8 O         -10.6479  -19.3132   23.2051 O.3     1  UNL1       -0.3572
      9 N          -7.4068  -21.0441   23.0309 N.3     1  UNL1       -0.2926
     10 H          -7.6013  -22.0431   23.0986 H       1  UNL1        0.1236
     11 C          -6.5365  -20.8532   21.8242 C.3     1  UNL1        0.1152
     12 C          -5.4538  -19.8152   21.8370 C.ar    1  UNL1        0.0765
     13 C          -5.5079  -18.6870   22.8241 C.ar    1  UNL1        0.0193
     14 C          -4.4251  -17.6491   22.8369 C.ar    1  UNL1        0.0411
     15 C          -3.2882  -17.7392   21.8626 C.ar    1  UNL1        0.1708
     16 C          -3.2341  -18.8673   20.8755 C.ar    1  UNL1        0.1682
     17 N          -4.3169  -19.9053   20.8626 N.ar    1  UNL1       -0.2304
     18 N          -2.0972  -18.9574   19.9011 N.am    1  UNL1       -0.2639
     19 C          -1.0144  -17.9194   19.9139 C.2     1  UNL1        0.2718
     20 O           0.1225  -18.0095   18.9396 O.2     1  UNL1       -0.2707
     21 C          -1.0685  -16.7913   20.9011 C.3     1  UNL1        0.2898
     22 O          -2.2054  -16.7012   21.8754 O.3     1  UNL1       -0.4628
     23 H          -2.0616  -19.6978   19.2532 H       1  UNL1        0.1565
     24 C         -12.6891  -18.2223   23.3972 C.3     1  UNL1        0.0320
     25 C         -12.8079  -16.7930   22.9580 C.3     1  UNL1        0.0327
     26 C          -8.6877  -15.7696   24.4499 C.ar    1  UNL1        0.1492
     27 C          -7.6734  -15.1867   23.5110 C.ar    1  UNL1        0.0312
     28 C          -8.0325  -14.9449   22.0749 C.ar    1  UNL1        0.0229
     29 C          -9.4059  -15.2860   21.5776 C.ar    1  UNL1        0.0988
     30 N          -9.7651  -15.0443   20.1414 N.ar    1  UNL1       -0.2400
     31 C         -11.1385  -15.3854   19.6441 C.ar    1  UNL1        0.1281
     32 C         -12.1528  -15.9683   20.5829 C.ar    1  UNL1        0.1566
     33 F         -13.5262  -16.3095   20.0856 F       1  UNL1       -0.2028
     34 C         -11.7937  -16.2101   22.0191 C.ar    1  UNL1        0.0260
     35 C         -10.4202  -15.8689   22.5164 C.ar    1  UNL1        0.0978
     36 N         -10.0611  -16.1107   23.9526 N.ar    1  UNL1       -0.2338
     37 N          -7.9694  -16.2531   27.3222 N.1     1  UNL1       -0.1893
     38 C          -8.3285  -16.0113   25.8861 C.1     1  UNL1        0.1198
@<TRIPOS>BOND
     1    37    38    3
     2    38    26    1
     3    26    27   ar
     4    27    28   ar
     5    28    29   ar
     6    29    30   ar
     7    30    31   ar
     8    31    32   ar
     9    32    33    1
    10    32    34   ar
    11    34    25    1
    12    25    24    1
    13    24     1    1
    14     1     2    1
    15     2     3    1
    16     3     4    1
    17     4     9    1
    18     9    11    1
    19    11    12    1
    20    12    13   ar
    21    13    14   ar
    22    14    15   ar
    23    15    16   ar
    24    16    17   ar
    25    16    18    1
    26    18    19   am
    27    19    20    2
    28    19    21    1
    29    21    22    1
    30     4     5    1
    31     5     6    1
    32     4     7    1
    33     7     8    1
    34    34    35   ar
    35    35    36   ar
    36    36    26   ar
    37    35    29   ar
    38     6     1    1
    39     8     1    1
    40    17    12   ar
    41    22    15    1
    42     9    10    1
    43    18    23    1
@<TRIPOS>MOLECULE
*****
 38 43 0 0 0
SMALL
GASTEIGER

@<TRIPOS>ATOM
      1 C           2.9173    0.8571   18.1681 C.3     1  UNL1        0.0932
      2 C           3.5284   -0.3272   17.4795 C.3     1  UNL1        0.0286
      3 C           4.9790   -0.3070   17.0983 C.3     1  UNL1        0.0193
      4 C           5.8186    0.8975   17.4056 C.3     1  UNL1        0.0700
      5 C           5.2075    2.0818   18.0942 C.3     1  UNL1        0.0193
      6 C           3.7569    2.0615   18.4754 C.3     1  UNL1        0.0286
      7 C           5.0282    0.9328   17.6338 C.3     1  UNL1        0.1562
      8 O           3.7166    0.9146   17.9786 O.3     1  UNL1       -0.3572
      9 N           7.2691    0.9176   17.0244 N.3     1  UNL1       -0.2926
     10 H           7.3985    1.7139   16.4002 H       1  UNL1        0.1236
     11 C           8.3225    1.0248   18.0869 C.3     1  UNL1        0.1152
     12 C           8.2383    0.1684   19.3155 C.ar    1  UNL1        0.0765
     13 C           8.0670    0.8048   20.6631 C.ar    1  UNL1        0.0193
     14 C           7.9829   -0.0516   21.8916 C.ar    1  UNL1        0.0411
     15 C           8.0699   -1.5444   21.7728 C.ar    1  UNL1        0.1708
     16 C           8.2411   -2.1807   20.4253 C.ar    1  UNL1        0.1682
     17 N           8.3253   -1.3243   19.1966 N.ar    1  UNL1       -0.2304
     18 N           8.3281   -3.6735   20.3065 N.am    1  UNL1       -0.2639
     19 C           8.2440   -4.5299   21.5350 C.2     1  UNL1        0.2718
     20 O           8.3310   -6.0226   21.4162 O.2     1  UNL1       -0.2707
     21 C           8.0727   -3.8935   22.8826 C.3     1  UNL1        0.2898
     22 O           7.9857   -2.4008   23.0015 O.3     1  UNL1       -0.4628
     23 H           8.4405   -4.0911   19.4220 H       1  UNL1        0.1565
     24 C           1.4668    0.8369   18.5493 C.3     1  UNL1        0.0320
     25 C           0.9880   -0.0868   19.6300 C.3     1  UNL1        0.0327
     26 C           4.0442   -3.1707   20.8130 C.ar    1  UNL1        0.1492
     27 C           4.6716   -3.1210   22.1745 C.ar    1  UNL1        0.0312
     28 C           4.2803   -2.0433   23.1417 C.ar    1  UNL1        0.0229
     29 C           3.2616   -1.0153   22.7474 C.ar    1  UNL1        0.0988
     30 N           2.8703    0.0623   23.7146 N.ar    1  UNL1       -0.2400
     31 C           1.8517    1.0903   23.3203 C.ar    1  UNL1        0.1281
     32 C           1.2242    1.0406   21.9587 C.ar    1  UNL1        0.1566
     33 F           0.2055    2.0686   21.5644 F       1  UNL1       -0.2028
     34 C           1.6155   -0.0370   20.9915 C.ar    1  UNL1        0.0260
     35 C           2.6342   -1.0650   21.3859 C.ar    1  UNL1        0.0978
     36 N           3.0255   -2.1427   20.4187 N.ar    1  UNL1       -0.2338
     37 N           4.8267   -5.3260   18.8785 N.1     1  UNL1       -0.1893
     38 C           4.4354   -4.2484   19.8457 C.1     1  UNL1        0.1198
@<TRIPOS>BOND
     1    37    38    3
     2    38    26    1
     3    26    27   ar
     4    27    28   ar
     5    28    29   ar
     6    29    30   ar
     7    30    31   ar
     8    31    32   ar
     9    32    33    1
    10    32    34   ar
    11    34    25    1
    12    25    24    1
    13    24     1    1
    14     1     2    1
    15     2     3    1
    16     3     4    1
    17     4     9    1
    18     9    11    1
    19    11    12    1
    20    12    13   ar
    21    13    14   ar
    22    14    15   ar
    23    15    16   ar
    24    16    17   ar
    25    16    18    1
    26    18    19   am
    27    19    20    2
    28    19    21    1
    29    21    22    1
    30     4     5    1
    31     5     6    1
    32     4     7    1
    33     7     8    1
    34    34    35   ar
    35    35    36   ar
    36    36    26   ar
    37    35    29   ar
    38     6     1    1
    39     8     1    1
    40    17    12   ar
    41    22    15    1
    42     9    10    1
    43    18    23    1
@<TRIPOS>MOLECULE
*****
 38 43 0 0 0
SMALL
GASTEIGER

@<TRIPOS>ATOM
      1 C           2.1877    0.4193   18.8394 C.3     1  UNL1        0.0932
      2 C           1.3397   -0.3496   19.8088 C.3     1  UNL1        0.0286
      3 C           0.2002    0.3283   20.5102 C.3     1  UNL1        0.0193
      4 C          -0.0913    1.7751   20.2422 C.3     1  UNL1        0.0700
      5 C           0.7566    2.5440   19.2728 C.3     1  UNL1        0.0193
      6 C           1.8962    1.8661   18.5714 C.3     1  UNL1        0.0286
      7 C           0.5438    1.4467   19.8339 C.3     1  UNL1        0.1562
      8 O           1.5742    0.8338   19.1996 O.3     1  UNL1       -0.3572
      9 N          -1.2308    2.4530   20.9436 N.3     1  UNL1       -0.2926
     10 H          -1.7753    1.7195   21.3975 H       1  UNL1        0.1236
     11 C          -0.9560    3.4962   21.9858 C.3     1  UNL1        0.1152
     12 C          -1.0006    3.1331   23.4405 C.ar    1  UNL1        0.0765
     13 C          -2.1069    3.6533   24.3098 C.ar    1  UNL1        0.0193
     14 C          -2.1515    3.2902   25.7645 C.ar    1  UNL1        0.0411
     15 C          -1.0899    2.4069   26.3499 C.ar    1  UNL1        0.1708
     16 C           0.0163    1.8866   25.4807 C.ar    1  UNL1        0.1682
     17 N           0.0609    2.2497   24.0259 N.ar    1  UNL1       -0.2304
     18 N           1.0779    1.0032   26.0661 N.am    1  UNL1       -0.2639
     19 C           1.0332    0.6401   27.5208 C.2     1  UNL1        0.2718
     20 O           2.0948   -0.2433   28.1062 O.2     1  UNL1       -0.2707
     21 C          -0.0730    1.1604   28.3901 C.3     1  UNL1        0.2898
     22 O          -1.1345    2.0438   27.8047 O.3     1  UNL1       -0.4628
     23 H           1.8039    0.6618   25.4956 H       1  UNL1        0.1565
     24 C           3.3272   -0.2585   18.1380 C.3     1  UNL1        0.0320
     25 C           4.6245   -0.4818   18.8573 C.3     1  UNL1        0.0327
     26 C           4.1854   -0.1723   23.3251 C.ar    1  UNL1        0.1492
     27 C           4.3677   -1.3893   24.1827 C.ar    1  UNL1        0.0312
     28 C           4.6963   -2.7096   23.5511 C.ar    1  UNL1        0.0229
     29 C           4.8426   -2.8127   22.0618 C.ar    1  UNL1        0.0988
     30 N           5.1712   -4.1330   21.4302 N.ar    1  UNL1       -0.2400
     31 C           5.3176   -4.2362   19.9409 C.ar    1  UNL1        0.1281
     32 C           5.1353   -3.0191   19.0832 C.ar    1  UNL1        0.1566
     33 F           5.2817   -3.1223   17.5940 F       1  UNL1       -0.2028
     34 C           4.8067   -1.6988   19.7149 C.ar    1  UNL1        0.0260
     35 C           4.6604   -1.5957   21.2042 C.ar    1  UNL1        0.0978
     36 N           4.3318   -0.2754   21.8359 N.ar    1  UNL1       -0.2338
     37 N           3.5283    2.4682   24.5884 N.1     1  UNL1       -0.1893
     38 C           3.8569    1.1480   23.9568 C.1     1  UNL1        0.1198
@<TRIPOS>BOND
     1    37    38    3
     2    38    26    1
     3    26    27   ar
     4    27    28   ar
     5    28    29   ar
     6    29    30   ar
     7    30    31   ar
     8    31    32   ar
     9    32    33    1
    10    32    34   ar
    11    34    25    1
    12    25    24    1
    13    24     1    1
    14     1     2    1
    15     2     3    1
    16     3     4    1
    17     4     9    1
    18     9    11    1
    19    11    12    1
    20    12    13   ar
    21    13    14   ar
    22    14    15   ar
    23    15    16   ar
    24    16    17   ar
    25    16    18    1
    26    18    19   am
    27    19    20    2
    28    19    21    1
    29    21    22    1
    30     4     5    1
    31     5     6    1
    32     4     7    1
    33     7     8    1
    34    34    35   ar
    35    35    36   ar
    36    36    26   ar
    37    35    29   ar
    38     6     1    1
    39     8     1    1
    40    17    12   ar
    41    22    15    1
    42     9    10    1
    43    18    23    1
@<TRIPOS>MOLECULE
*****
 38 43 0 0 0
SMALL
GASTEIGER

@<TRIPOS>ATOM
      1 C          -2.0100    3.6665   24.2648 C.3     1  UNL1        0.0932
      2 C          -0.9708    2.7016   24.7537 C.3     1  UNL1        0.0286
      3 C           0.0653    2.1719   23.8073 C.3     1  UNL1        0.0193
      4 C           0.0623    2.6071   22.3718 C.3     1  UNL1        0.0700
      5 C          -0.9769    3.5720   21.8828 C.3     1  UNL1        0.0193
      6 C          -2.0130    4.1017   22.8293 C.3     1  UNL1        0.0286
      7 C          -0.5256    2.9245   22.8530 C.3     1  UNL1        0.1562
      8 O          -1.4625    3.4035   23.7088 O.3     1  UNL1       -0.3572
      9 N           1.0984    2.0774   21.4253 N.3     1  UNL1       -0.2926
     10 H           1.8354    1.6642   21.9967 H       1  UNL1        0.1236
     11 C           0.7212    1.0520   20.3975 C.3     1  UNL1        0.1152
     12 C           1.7888    0.2718   19.6895 C.ar    1  UNL1        0.0765
     13 C           2.1336    0.5938   18.2656 C.ar    1  UNL1        0.0193
     14 C           3.2012   -0.1864   17.5575 C.ar    1  UNL1        0.0411
     15 C           3.9241   -1.2887   18.2733 C.ar    1  UNL1        0.1708
     16 C           3.5793   -1.6108   19.6972 C.ar    1  UNL1        0.1682
     17 N           2.5117   -0.8305   20.4053 N.ar    1  UNL1       -0.2304
     18 N           4.3022   -2.7131   20.4130 N.am    1  UNL1       -0.2639
     19 C           5.3698   -3.4933   19.7049 C.2     1  UNL1        0.2718
     20 O           6.0927   -4.5956   20.4207 O.2     1  UNL1       -0.2707
     21 C           5.7146   -3.1713   18.2810 C.3     1  UNL1        0.2898
     22 O           4.9917   -2.0690   17.5652 O.3     1  UNL1       -0.4628
     23 H           4.0760   -2.9244   21.3475 H       1  UNL1        0.1565
     24 C          -3.0461    4.1962   25.2112 C.3     1  UNL1        0.0320
     25 C          -4.4021    3.5577   25.2728 C.3     1  UNL1        0.0327
     26 C          -7.0819    6.6102   27.2094 C.ar    1  UNL1        0.1492
     27 C          -8.2249    7.2013   26.4387 C.ar    1  UNL1        0.0312
     28 C          -8.4747    6.7750   25.0224 C.ar    1  UNL1        0.0229
     29 C          -7.5814    5.7575   24.3769 C.ar    1  UNL1        0.0988
     30 N          -7.8312    5.3312   22.9606 N.ar    1  UNL1       -0.2400
     31 C          -6.9379    4.3137   22.3150 C.ar    1  UNL1        0.1281
     32 C          -5.7948    3.7225   23.0858 C.ar    1  UNL1        0.1566
     33 F          -4.9016    2.7050   22.4402 F       1  UNL1       -0.2028
     34 C          -5.5451    4.1488   24.5020 C.ar    1  UNL1        0.0260
     35 C          -6.4384    5.1664   25.1476 C.ar    1  UNL1        0.0978
     36 N          -6.1887    5.5927   26.5639 N.ar    1  UNL1       -0.2338
     37 N          -6.5824    7.4629   30.0420 N.1     1  UNL1       -0.1893
     38 C          -6.8322    7.0365   28.6257 C.1     1  UNL1        0.1198
@<TRIPOS>BOND
     1    37    38    3
     2    38    26    1
     3    26    27   ar
     4    27    28   ar
     5    28    29   ar
     6    29    30   ar
     7    30    31   ar
     8    31    32   ar
     9    32    33    1
    10    32    34   ar
    11    34    25    1
    12    25    24    1
    13    24     1    1
    14     1     2    1
    15     2     3    1
    16     3     4    1
    17     4     9    1
    18     9    11    1
    19    11    12    1
    20    12    13   ar
    21    13    14   ar
    22    14    15   ar
    23    15    16   ar
    24    16    17   ar
    25    16    18    1
    26    18    19   am
    27    19    20    2
    28    19    21    1
    29    21    22    1
    30     4     5    1
    31     5     6    1
    32     4     7    1
    33     7     8    1
    34    34    35   ar
    35    35    36   ar
    36    36    26   ar
    37    35    29   ar
    38     6     1    1
    39     8     1    1
    40    17    12   ar
    41    22    15    1
    42     9    10    1
    43    18    23    1
@<TRIPOS>MOLECULE
*****
 38 43 0 0 0
SMALL
GASTEIGER

@<TRIPOS>ATOM
      1 C           6.9479   -4.7122   25.3776 C.3     1  UNL1        0.0932
      2 C           6.1714   -3.5373   24.8612 C.3     1  UNL1        0.0286
      3 C           6.2729   -3.1477   23.4163 C.3     1  UNL1        0.0193
      4 C           7.1509   -3.9330   22.4876 C.3     1  UNL1        0.0700
      5 C           7.9275   -5.1079   23.0040 C.3     1  UNL1        0.0193
      6 C           7.8259   -5.4975   24.4490 C.3     1  UNL1        0.0286
      7 C           7.1274   -4.1845   23.2713 C.3     1  UNL1        0.1562
      8 O           7.0357   -4.5368   24.5778 O.3     1  UNL1       -0.3572
      9 N           7.2524   -3.5434   21.0427 N.3     1  UNL1       -0.2926
     10 H           8.1226   -3.9424   20.6906 H       1  UNL1        0.1236
     11 C           6.1728   -3.9422   20.0807 C.3     1  UNL1        0.1152
     12 C           5.2541   -2.9022   19.5113 C.ar    1  UNL1        0.0765
     13 C           5.5693   -2.2652   18.1903 C.ar    1  UNL1        0.0193
     14 C           4.6506   -1.2252   17.6208 C.ar    1  UNL1        0.0411
     15 C           3.4166   -0.8221   18.3723 C.ar    1  UNL1        0.1708
     16 C           3.1013   -1.4590   19.6932 C.ar    1  UNL1        0.1682
     17 N           4.0201   -2.4990   20.2628 N.ar    1  UNL1       -0.2304
     18 N           1.8673   -1.0558   20.4447 N.am    1  UNL1       -0.2639
     19 C           0.9486   -0.0158   19.8752 C.2     1  UNL1        0.2718
     20 O          -0.2854    0.3873   20.6267 O.2     1  UNL1       -0.2707
     21 C           1.2639    0.6211   18.5542 C.3     1  UNL1        0.2898
     22 O           2.4979    0.2180   17.8027 O.3     1  UNL1       -0.4628
     23 H           1.6604   -1.4739   21.3117 H       1  UNL1        0.1565
     24 C           6.8464   -5.1018   26.8225 C.3     1  UNL1        0.0320
     25 C           7.6646   -4.3813   27.8528 C.3     1  UNL1        0.0327
     26 C           5.8633   -0.8305   29.9497 C.ar    1  UNL1        0.1492
     27 C           5.4939   -0.9242   31.4004 C.ar    1  UNL1        0.0312
     28 C           5.7249   -2.2014   32.1522 C.ar    1  UNL1        0.0229
     29 C           6.3253   -3.3850   31.4533 C.ar    1  UNL1        0.0988
     30 N           6.5564   -4.6623   32.2052 N.ar    1  UNL1       -0.2400
     31 C           7.1568   -5.8459   31.5062 C.ar    1  UNL1        0.1281
     32 C           7.5262   -5.7523   30.0554 C.ar    1  UNL1        0.1566
     33 F           8.1267   -6.9358   29.3565 F       1  UNL1       -0.2028
     34 C           7.2952   -4.4750   29.3036 C.ar    1  UNL1        0.0260
     35 C           6.6947   -3.2914   30.0026 C.ar    1  UNL1        0.0978
     36 N           6.4637   -2.0141   29.2507 N.ar    1  UNL1       -0.2338
     37 N           5.4012    1.7240   28.4460 N.1     1  UNL1       -0.1893
     38 C           5.6322    0.4467   29.1978 C.1     1  UNL1        0.1198
@<TRIPOS>BOND
     1    37    38    3
     2    38    26    1
     3    26    27   ar
     4    27    28   ar
     5    28    29   ar
     6    29    30   ar
     7    30    31   ar
     8    31    32   ar
     9    32    33    1
    10    32    34   ar
    11    34    25    1
    12    25    24    1
    13    24     1    1
    14     1     2    1
    15     2     3    1
    16     3     4    1
    17     4     9    1
    18     9    11    1
    19    11    12    1
    20    12    13   ar
    21    13    14   ar
    22    14    15   ar
    23    15    16   ar
    24    16    17   ar
    25    16    18    1
    26    18    19   am
    27    19    20    2
    28    19    21    1
    29    21    22    1
    30     4     5    1
    31     5     6    1
    32     4     7    1
    33     7     8    1
    34    34    35   ar
    35    35    36   ar
    36    36    26   ar
    37    35    29   ar
    38     6     1    1
    39     8     1    1
    40    17    12   ar
    41    22    15    1
    42     9    10    1
    43    18    23    1
@<TRIPOS>MOLECULE
*****
 38 43 0 0 0
SMALL
GASTEIGER

@<TRIPOS>ATOM
      1 C           6.0452   -1.8440   23.9756 C.3     1  UNL1        0.0932
      2 C           7.1331   -1.7008   22.9529 C.3     1  UNL1        0.0286
      3 C           7.1087   -2.5394   21.7095 C.3     1  UNL1        0.0193
      4 C           5.9962   -3.5212   21.4887 C.3     1  UNL1        0.0700
      5 C           4.9083   -3.6643   22.5114 C.3     1  UNL1        0.0193
      6 C           4.9327   -2.8256   23.7549 C.3     1  UNL1        0.0286
      7 C           5.9669   -3.0836   22.1855 C.3     1  UNL1        0.1562
      8 O           5.9890   -2.3253   23.3099 O.3     1  UNL1       -0.3572
      9 N           5.9718   -4.3598   20.2453 N.3     1  UNL1       -0.2926
     10 H           5.9940   -5.3340   20.5467 H       1  UNL1        0.1236
     11 C           4.8335   -4.2320   19.2768 C.3     1  UNL1        0.1152
     12 C           4.2460   -2.8834   18.9836 C.ar    1  UNL1        0.0765
     13 C           4.8692   -2.0046   17.9398 C.ar    1  UNL1        0.0193
     14 C           4.2817   -0.6560   17.6466 C.ar    1  UNL1        0.0411
     15 C           3.0709   -0.1861   18.3971 C.ar    1  UNL1        0.1708
     16 C           2.4477   -1.0648   19.4408 C.ar    1  UNL1        0.1682
     17 N           3.0352   -2.4135   19.7341 N.ar    1  UNL1       -0.2304
     18 N           1.2370   -0.5949   20.1914 N.am    1  UNL1       -0.2639
     19 C           0.6494    0.7537   19.8982 C.2     1  UNL1        0.2718
     20 O          -0.5613    1.2236   20.6487 O.2     1  UNL1       -0.2707
     21 C           1.2727    1.6325   18.8544 C.3     1  UNL1        0.2898
     22 O           2.4834    1.1626   18.1039 O.3     1  UNL1       -0.4628
     23 H           0.8279   -1.1717   20.8764 H       1  UNL1        0.1565
     24 C           6.0696   -1.0054   25.2190 C.3     1  UNL1        0.0320
     25 C           5.6960    0.4459   25.1524 C.3     1  UNL1        0.0327
     26 C           1.8735    0.5443   27.5248 C.ar    1  UNL1        0.1492
     27 C           0.5918    0.9593   26.8651 C.ar    1  UNL1        0.0312
     28 C           0.5844    1.3415   25.4147 C.ar    1  UNL1        0.0229
     29 C           1.8585    1.3087   24.6239 C.ar    1  UNL1        0.0988
     30 N           1.8511    1.6909   23.1734 N.ar    1  UNL1       -0.2400
     31 C           3.1252    1.6581   22.3826 C.ar    1  UNL1        0.1281
     32 C           4.4069    1.2431   23.0423 C.ar    1  UNL1        0.1566
     33 F           5.6811    1.2103   22.2515 F       1  UNL1       -0.2028
     34 C           4.4144    0.8609   24.4927 C.ar    1  UNL1        0.0260
     35 C           3.1402    0.8937   25.2835 C.ar    1  UNL1        0.0978
     36 N           3.1476    0.5115   26.7340 N.ar    1  UNL1       -0.2338
     37 N           1.8884   -0.2201   30.4257 N.1     1  UNL1       -0.1893
     38 C           1.8809    0.1621   28.9753 C.1     1  UNL1        0.1198
@<TRIPOS>BOND
     1    37    38    3
     2    38    26    1
     3    26    27   ar
     4    27    28   ar
     5    28    29   ar
     6    29    30   ar
     7    30    31   ar
     8    31    32   ar
     9    32    33    1
    10    32    34   ar
    11    34    25    1
    12    25    24    1
    13    24     1    1
    14     1     2    1
    15     2     3    1
    16     3     4    1
    17     4     9    1
    18     9    11    1
    19    11    12    1
    20    12    13   ar
    21    13    14   ar
    22    14    15   ar
    23    15    16   ar
    24    16    17   ar
    25    16    18    1
    26    18    19   am
    27    19    20    2
    28    19    21    1
    29    21    22    1
    30     4     5    1
    31     5     6    1
    32     4     7    1
    33     7     8    1
    34    34    35   ar
    35    35    36   ar
    36    36    26   ar
    37    35    29   ar
    38     6     1    1
    39     8     1    1
    40    17    12   ar
    41    22    15    1
    42     9    10    1
    43    18    23    1
@<TRIPOS>MOLECULE
*****
 38 43 0 0 0
SMALL
GASTEIGER

@<TRIPOS>ATOM
      1 C          -0.3918    2.0425   27.1193 C.3     1  UNL1        0.0932
      2 C           0.8978    2.7211   27.4748 C.3     1  UNL1        0.0286
      3 C           1.5824    2.3993   28.7700 C.3     1  UNL1        0.0193
      4 C           0.9774    1.3988   29.7098 C.3     1  UNL1        0.0700
      5 C          -0.3122    0.7203   29.3543 C.3     1  UNL1        0.0193
      6 C          -0.9968    1.0421   28.0590 C.3     1  UNL1        0.0286
      7 C           0.5655    1.5426   29.0115 C.3     1  UNL1        0.1562
      8 O          -0.0536    1.8336   27.8403 O.3     1  UNL1       -0.3572
      9 N           1.6621    1.0770   31.0050 N.3     1  UNL1       -0.2926
     10 H           2.6513    0.9494   30.7914 H       1  UNL1        0.1236
     11 C           1.5876    2.0404   32.1524 C.3     1  UNL1        0.1152
     12 C           2.3706    1.7775   33.4045 C.ar    1  UNL1        0.0765
     13 C           3.5655    0.8715   33.3656 C.ar    1  UNL1        0.0193
     14 C           4.3485    0.6087   34.6177 C.ar    1  UNL1        0.0411
     15 C           3.9366    1.2518   35.9087 C.ar    1  UNL1        0.1708
     16 C           2.7418    2.1577   35.9477 C.ar    1  UNL1        0.1682
     17 N           1.9587    2.4206   34.6955 N.ar    1  UNL1       -0.2304
     18 N           2.3299    2.8008   37.2387 N.am    1  UNL1       -0.2639
     19 C           3.1129    2.5379   38.4908 C.2     1  UNL1        0.2718
     20 O           2.7010    3.1810   39.7819 O.2     1  UNL1       -0.2707
     21 C           4.3078    1.6320   38.4519 C.3     1  UNL1        0.2898
     22 O           4.7197    0.9889   37.1608 O.3     1  UNL1       -0.4628
     23 H           1.5457    3.3954   37.2643 H       1  UNL1        0.1565
     24 C          -1.0765    2.3644   25.8241 C.3     1  UNL1        0.0320
     25 C          -1.7953    3.6707   25.6600 C.3     1  UNL1        0.0327
     26 C          -1.8386    3.3334   21.1729 C.ar    1  UNL1        0.1492
     27 C          -3.1403    3.3850   20.4294 C.ar    1  UNL1        0.0312
     28 C          -4.4276    3.5490   21.1817 C.ar    1  UNL1        0.0229
     29 C          -4.4132    3.6615   22.6774 C.ar    1  UNL1        0.0988
     30 N          -5.7006    3.8255   23.4296 N.ar    1  UNL1       -0.2400
     31 C          -5.6861    3.9380   24.9253 C.ar    1  UNL1        0.1281
     32 C          -4.3843    3.8864   25.6688 C.ar    1  UNL1        0.1566
     33 F          -4.3699    3.9988   27.1645 F       1  UNL1       -0.2028
     34 C          -3.0970    3.7223   24.9166 C.ar    1  UNL1        0.0260
     35 C          -3.1115    3.6099   23.4208 C.ar    1  UNL1        0.0978
     36 N          -1.8241    3.4458   22.6686 N.ar    1  UNL1       -0.2338
     37 N           0.7361    3.0053   19.6684 N.1     1  UNL1       -0.1893
     38 C          -0.5512    3.1693   20.4206 C.1     1  UNL1        0.1198
@<TRIPOS>BOND
     1    37    38    3
     2    38    26    1
     3    26    27   ar
     4    27    28   ar
     5    28    29   ar
     6    29    30   ar
     7    30    31   ar
     8    31    32   ar
     9    32    33    1
    10    32    34   ar
    11    34    25    1
    12    25    24    1
    13    24     1    1
    14     1     2    1
    15     2     3    1
    16     3     4    1
    17     4     9    1
    18     9    11    1
    19    11    12    1
    20    12    13   ar
    21    13    14   ar
    22    14    15   ar
    23    15    16   ar
    24    16    17   ar
    25    16    18    1
    26    18    19   am
    27    19    20    2
    28    19    21    1
    29    21    22    1
    30     4     5    1
    31     5     6    1
    32     4     7    1
    33     7     8    1
    34    34    35   ar
    35    35    36   ar
    36    36    26   ar
    37    35    29   ar
    38     6     1    1
    39     8     1    1
    40    17    12   ar
    41    22    15    1
    42     9    10    1
    43    18    23    1
