@<TRIPOS>MOLECULE
*****
 32 36 0 0 0
SMALL
GASTEIGER

@<TRIPOS>ATOM
      1 O           3.0156    3.3606   21.2247 O.2     1  UNL1       -0.2729
      2 C           2.3739    2.2808   20.4047 C.2     1  UNL1        0.2474
      3 N           1.5197    1.2421   21.0689 N.am    1  UNL1       -0.2665
      4 H           1.0985    0.5335   20.5307 H       1  UNL1        0.1564
      5 C           1.3072    1.2830   22.5532 C.ar    1  UNL1        0.1560
      6 C           0.1705    2.0763   23.1266 C.ar    1  UNL1        0.0379
      7 C          -0.0420    2.1171   24.6109 C.ar    1  UNL1        0.0239
      8 C           0.8822    1.3647   25.5218 C.ar    1  UNL1        0.1045
      9 N           2.0188    0.5715   24.9485 N.ar    1  UNL1       -0.1467
     10 N           2.2313    0.5306   23.4642 N.ar    1  UNL1       -0.1328
     11 C           0.6697    1.4056   27.0061 C.ar    1  UNL1        0.0408
     12 C           1.6783    2.0777   27.8900 C.ar    1  UNL1        0.1005
     13 N           1.4658    2.1186   29.3743 N.ar    1  UNL1       -0.2399
     14 C           0.2447    1.4873   29.9748 C.ar    1  UNL1        0.1284
     15 C          -0.7638    0.8152   29.0910 C.ar    1  UNL1        0.1593
     16 F          -1.9849    0.1839   29.6915 F       1  UNL1       -0.2025
     17 C          -0.5513    0.7743   27.6067 C.ar    1  UNL1        0.0344
     18 C           2.5864    2.2400   18.9204 C.3     1  UNL1        0.1775
     19 N           3.9249    1.8529   18.3647 N.pl3   1  UNL1       -0.2964
     20 C           4.8554    2.9089   17.8461 C.3     1  UNL1        0.0917
     21 C           6.1938    2.5219   17.2905 C.3     1  UNL1        0.0263
     22 C           6.6017    1.0789   17.2535 C.3     1  UNL1        0.0342
     23 C           5.6712    0.0229   17.7721 C.2     1  UNL1        0.0496
     24 C           4.3328    0.4099   18.3277 C.2     1  UNL1        0.1032
     25 C           3.6321   -0.8426   18.7639 C.2     1  UNL1        0.2682
     26 O           2.2659   -0.9204   19.3783 O.2     1  UNL1       -0.2681
     27 N           4.5376   -2.0038   18.4779 N.am    1  UNL1       -0.2238
     28 C           5.7978   -1.4689   17.8649 C.2     1  UNL1        0.2523
     29 O           6.9775   -2.2828   17.4224 O.2     1  UNL1       -0.2698
     30 C           4.2358   -3.4466   18.7560 C.3     1  UNL1        0.0831
     31 C           4.6294   -4.8925   18.6886 C.3     1  UNL1        0.0220
     32 C           3.3196   -4.4998   19.3050 C.3     1  UNL1        0.0220
@<TRIPOS>BOND
     1     1     2    2
     2     2    18    1
     3    18    19    1
     4    19    20    1
     5    20    21    1
     6    21    22    1
     7    22    23    1
     8    23    24    2
     9    24    25    1
    10    25    26    2
    11    25    27   am
    12    27    30    1
    13    30    31    1
    14    31    32    1
    15    27    28   am
    16    28    29    2
    17     2     3   am
    18     3     5    1
    19     5     6   ar
    20     6     7   ar
    21     7     8   ar
    22     8    11    1
    23    11    12   ar
    24    12    13   ar
    25    13    14   ar
    26    14    15   ar
    27    15    16    1
    28    15    17   ar
    29     8     9   ar
    30     9    10   ar
    31    24    19    1
    32    32    30    1
    33    10     5   ar
    34    28    23    1
    35    17    11   ar
    36     3     4    1
@<TRIPOS>MOLECULE
*****
 32 36 0 0 0
SMALL
GASTEIGER

@<TRIPOS>ATOM
      1 O           2.6384    3.0686   21.8507 O.2     1  UNL1       -0.2729
      2 C           2.0393    1.8723   21.1725 C.2     1  UNL1        0.2474
      3 N           1.4510    0.7621   21.9917 N.am    1  UNL1       -0.2665
      4 H           1.0577   -0.0231   21.5465 H       1  UNL1        0.1564
      5 C           1.4617    0.8480   23.4891 C.ar    1  UNL1        0.1560
      6 C           0.3279    1.5149   24.2103 C.ar    1  UNL1        0.0379
      7 C           0.3387    1.6009   25.7078 C.ar    1  UNL1        0.0239
      8 C           1.4832    1.0199   26.4841 C.ar    1  UNL1        0.1045
      9 N           2.6169    0.3531   25.7630 N.ar    1  UNL1       -0.1467
     10 N           2.6061    0.2672   24.2655 N.ar    1  UNL1       -0.1328
     11 C           1.4939    1.1059   27.9816 C.ar    1  UNL1        0.0408
     12 C           1.6535   -0.1390   28.8032 C.ar    1  UNL1        0.1005
     13 N           1.6642   -0.0530   30.3007 N.ar    1  UNL1       -0.2399
     14 C           1.5154    1.2778   30.9766 C.ar    1  UNL1        0.1284
     15 C           1.3558    2.5226   30.1551 C.ar    1  UNL1        0.1593
     16 F           1.2070    3.8534   30.8310 F       1  UNL1       -0.2025
     17 C           1.3451    2.4366   28.6576 C.ar    1  UNL1        0.0344
     18 C           2.0286    1.7864   19.6750 C.3     1  UNL1        0.1775
     19 N           3.3093    1.5601   18.9275 N.pl3   1  UNL1       -0.2964
     20 C           4.0642    2.7266   18.3627 C.3     1  UNL1        0.0917
     21 C           5.3449    2.5003   17.6153 C.3     1  UNL1        0.0263
     22 C           5.8706    1.1073   17.4327 C.3     1  UNL1        0.0342
     23 C           5.1156   -0.0593   17.9976 C.2     1  UNL1        0.0496
     24 C           3.8350    0.1671   18.7450 C.2     1  UNL1        0.1032
     25 C           3.3133   -1.1684   19.1859 C.2     1  UNL1        0.2682
     26 O           2.0544   -1.4097   19.9649 O.2     1  UNL1       -0.2681
     27 N           4.2716   -2.2201   18.7110 N.am    1  UNL1       -0.2238
     28 C           5.3855   -1.5346   17.9765 C.2     1  UNL1        0.2523
     29 O           6.5626   -2.2065   17.3339 O.2     1  UNL1       -0.2698
     30 C           4.1392   -3.6979   18.9317 C.3     1  UNL1        0.0831
     31 C           4.6844   -5.0874   18.7835 C.3     1  UNL1        0.0220
     32 C           3.3649   -4.8680   19.4622 C.3     1  UNL1        0.0220
@<TRIPOS>BOND
     1     1     2    2
     2     2    18    1
     3    18    19    1
     4    19    20    1
     5    20    21    1
     6    21    22    1
     7    22    23    1
     8    23    24    2
     9    24    25    1
    10    25    26    2
    11    25    27   am
    12    27    30    1
    13    30    31    1
    14    31    32    1
    15    27    28   am
    16    28    29    2
    17     2     3   am
    18     3     5    1
    19     5     6   ar
    20     6     7   ar
    21     7     8   ar
    22     8    11    1
    23    11    12   ar
    24    12    13   ar
    25    13    14   ar
    26    14    15   ar
    27    15    16    1
    28    15    17   ar
    29     8     9   ar
    30     9    10   ar
    31    24    19    1
    32    32    30    1
    33    10     5   ar
    34    28    23    1
    35    17    11   ar
    36     3     4    1
@<TRIPOS>MOLECULE
*****
 32 36 0 0 0
SMALL
GASTEIGER

@<TRIPOS>ATOM
      1 O           0.3336    3.3992   21.4870 O.2     1  UNL1       -0.2729
      2 C          -0.4019    3.5495   20.1883 C.2     1  UNL1        0.2474
      3 N          -0.1304    2.6010   19.0584 N.am    1  UNL1       -0.2665
      4 H          -0.6132    2.6997   18.2061 H       1  UNL1        0.1564
      5 C           0.8764    1.5020   19.2272 C.ar    1  UNL1        0.1560
      6 C           0.5204    0.2721   20.0087 C.ar    1  UNL1        0.0379
      7 C           1.5273   -0.8269   20.1775 C.ar    1  UNL1        0.0239
      8 C           2.8902   -0.6959   19.5648 C.ar    1  UNL1        0.1045
      9 N           3.2462    0.5340   18.7834 N.ar    1  UNL1       -0.1467
     10 N           2.2393    1.6329   18.6146 N.ar    1  UNL1       -0.1328
     11 C           3.8971   -1.7948   19.7336 C.ar    1  UNL1        0.0408
     12 C           5.0417   -1.6232   20.6878 C.ar    1  UNL1        0.1005
     13 N           6.0486   -2.7222   20.8566 N.ar    1  UNL1       -0.2399
     14 C           5.9109   -3.9927   20.0712 C.ar    1  UNL1        0.1284
     15 C           4.7663   -4.1643   19.1170 C.ar    1  UNL1        0.1593
     16 F           4.6285   -5.4348   18.3316 F       1  UNL1       -0.2025
     17 C           3.7594   -3.0653   18.9483 C.ar    1  UNL1        0.0344
     18 C          -1.4087    4.6485   20.0195 C.3     1  UNL1        0.1775
     19 N          -2.8684    4.3188   19.9156 N.pl3   1  UNL1       -0.2964
     20 C          -3.4757    4.0165   18.5778 C.3     1  UNL1        0.0917
     21 C          -4.9353    3.6869   18.4740 C.3     1  UNL1        0.0263
     22 C          -5.7877    3.6596   19.7081 C.3     1  UNL1        0.0342
     23 C          -5.1804    3.9619   21.0459 C.2     1  UNL1        0.0496
     24 C          -3.7208    4.2915   21.1496 C.2     1  UNL1        0.1032
     25 C          -3.4042    4.5444   22.5939 C.2     1  UNL1        0.2682
     26 O          -2.0597    4.9069   23.1515 O.2     1  UNL1       -0.2681
     27 N          -4.6682    4.3710   23.3827 N.am    1  UNL1       -0.2238
     28 C          -5.7659    4.0110   22.4260 C.2     1  UNL1        0.2523
     29 O          -7.1978    3.7465   22.7861 O.2     1  UNL1       -0.2698
     30 C          -4.8097    4.5298   24.8676 C.3     1  UNL1        0.0831
     31 C          -5.5324    5.1047   26.0495 C.3     1  UNL1        0.0220
     32 C          -4.3320    4.2298   26.2575 C.3     1  UNL1        0.0220
@<TRIPOS>BOND
     1     1     2    2
     2     2    18    1
     3    18    19    1
     4    19    20    1
     5    20    21    1
     6    21    22    1
     7    22    23    1
     8    23    24    2
     9    24    25    1
    10    25    26    2
    11    25    27   am
    12    27    30    1
    13    30    31    1
    14    31    32    1
    15    27    28   am
    16    28    29    2
    17     2     3   am
    18     3     5    1
    19     5     6   ar
    20     6     7   ar
    21     7     8   ar
    22     8    11    1
    23    11    12   ar
    24    12    13   ar
    25    13    14   ar
    26    14    15   ar
    27    15    16    1
    28    15    17   ar
    29     8     9   ar
    30     9    10   ar
    31    24    19    1
    32    32    30    1
    33    10     5   ar
    34    28    23    1
    35    17    11   ar
    36     3     4    1
@<TRIPOS>MOLECULE
*****
 32 36 0 0 0
SMALL
GASTEIGER

@<TRIPOS>ATOM
      1 O           3.9121   -5.0409   20.6264 O.2     1  UNL1       -0.2729
      2 C           4.2618   -3.6146   20.3205 C.2     1  UNL1        0.2474
      3 N           5.2819   -2.8972   21.1540 N.am    1  UNL1       -0.2665
      4 H           5.5114   -1.9611   20.9532 H       1  UNL1        0.1564
      5 C           5.9524   -3.6060   22.2933 C.ar    1  UNL1        0.1560
      6 C           5.6104   -3.2428   23.7079 C.ar    1  UNL1        0.0379
      7 C           6.2808   -3.9517   24.8472 C.ar    1  UNL1        0.0239
      8 C           7.2933   -5.0236   24.5719 C.ar    1  UNL1        0.1045
      9 N           7.6353   -5.3868   23.1573 N.ar    1  UNL1       -0.1467
     10 N           6.9648   -4.6779   22.0180 N.ar    1  UNL1       -0.1328
     11 C           7.9638   -5.7325   25.7112 C.ar    1  UNL1        0.0408
     12 C           8.8650   -4.9741   26.6401 C.ar    1  UNL1        0.1005
     13 N           9.5355   -5.6829   27.7794 N.ar    1  UNL1       -0.2399
     14 C           9.3048   -7.1501   27.9898 C.ar    1  UNL1        0.1284
     15 C           8.4036   -7.9084   27.0609 C.ar    1  UNL1        0.1593
     16 F           8.1729   -9.3756   27.2713 F       1  UNL1       -0.2025
     17 C           7.7332   -7.1996   25.9216 C.ar    1  UNL1        0.0344
     18 C           3.5913   -2.9057   19.1812 C.3     1  UNL1        0.1775
     19 N           4.1768   -1.6353   18.6396 N.pl3   1  UNL1       -0.2964
     20 C           5.5138   -1.6556   17.9601 C.3     1  UNL1        0.0917
     21 C           6.0993   -0.3852   17.4185 C.3     1  UNL1        0.0263
     22 C           5.3476    0.9055   17.5566 C.3     1  UNL1        0.0342
     23 C           4.0106    0.9259   18.2361 C.2     1  UNL1        0.0496
     24 C           3.4252   -0.3445   18.7777 C.2     1  UNL1        0.1032
     25 C           2.0973   -0.0173   19.3940 C.2     1  UNL1        0.2682
     26 O           1.1679   -0.9916   20.0549 O.2     1  UNL1       -0.2681
     27 N           1.8621    1.4554   19.2334 N.am    1  UNL1       -0.2238
     28 C           3.0446    2.0383   18.5177 C.2     1  UNL1        0.2523
     29 O           3.2288    3.4804   18.1486 O.2     1  UNL1       -0.2698
     30 C           0.6562    2.2124   19.7054 C.3     1  UNL1        0.0831
     31 C          -0.2971    3.3608   19.5563 C.3     1  UNL1        0.0220
     32 C          -0.4791    2.3751   20.6721 C.3     1  UNL1        0.0220
@<TRIPOS>BOND
     1     1     2    2
     2     2    18    1
     3    18    19    1
     4    19    20    1
     5    20    21    1
     6    21    22    1
     7    22    23    1
     8    23    24    2
     9    24    25    1
    10    25    26    2
    11    25    27   am
    12    27    30    1
    13    30    31    1
    14    31    32    1
    15    27    28   am
    16    28    29    2
    17     2     3   am
    18     3     5    1
    19     5     6   ar
    20     6     7   ar
    21     7     8   ar
    22     8    11    1
    23    11    12   ar
    24    12    13   ar
    25    13    14   ar
    26    14    15   ar
    27    15    16    1
    28    15    17   ar
    29     8     9   ar
    30     9    10   ar
    31    24    19    1
    32    32    30    1
    33    10     5   ar
    34    28    23    1
    35    17    11   ar
    36     3     4    1
@<TRIPOS>MOLECULE
*****
 32 36 0 0 0
SMALL
GASTEIGER

@<TRIPOS>ATOM
      1 O           1.8831    4.1695   19.5878 O.2     1  UNL1       -0.2729
      2 C           0.5417    3.8678   18.9881 C.2     1  UNL1        0.2474
      3 N           0.1806    2.4568   18.6297 N.am    1  UNL1       -0.2665
      4 H          -0.6999    2.2588   18.2362 H       1  UNL1        0.1564
      5 C           1.1609    1.3474   18.8710 C.ar    1  UNL1        0.1560
      6 C           0.7528    0.1471   19.6728 C.ar    1  UNL1        0.0379
      7 C           1.7331   -0.9624   19.9140 C.ar    1  UNL1        0.0239
      8 C           3.1215   -0.8715   19.3534 C.ar    1  UNL1        0.1045
      9 N           3.5295    0.3288   18.5517 N.ar    1  UNL1       -0.1467
     10 N           2.5492    1.4382   18.3104 N.ar    1  UNL1       -0.1328
     11 C           4.1018   -1.9809   19.5947 C.ar    1  UNL1        0.0408
     12 C           5.3450   -1.7227   20.3935 C.ar    1  UNL1        0.1005
     13 N           6.3253   -2.8321   20.6347 N.ar    1  UNL1       -0.2399
     14 C           6.0624   -4.1997   20.0772 C.ar    1  UNL1        0.1284
     15 C           4.8193   -4.4578   19.2784 C.ar    1  UNL1        0.1593
     16 F           4.5565   -5.8253   18.7209 F       1  UNL1       -0.2025
     17 C           3.8390   -3.3484   19.0372 C.ar    1  UNL1        0.0344
     18 C          -0.4387    4.9772   18.7469 C.3     1  UNL1        0.1775
     19 N          -1.7665    4.6806   18.1152 N.pl3   1  UNL1       -0.2964
     20 C          -1.9114    4.7147   16.6226 C.3     1  UNL1        0.0917
     21 C          -3.2392    4.4181   15.9911 C.3     1  UNL1        0.0263
     22 C          -4.4221    4.0874   16.8520 C.3     1  UNL1        0.0342
     23 C          -4.2772    4.0533   18.3446 C.2     1  UNL1        0.0496
     24 C          -2.9494    4.3499   18.9762 C.2     1  UNL1        0.1032
     25 C          -3.1091    4.2412   20.4638 C.2     1  UNL1        0.2682
     26 O          -2.0314    4.4582   21.4843 O.2     1  UNL1       -0.2681
     27 N          -4.5355    3.8774   20.7515 N.am    1  UNL1       -0.2238
     28 C          -5.2575    3.7613   19.4418 C.2     1  UNL1        0.2523
     29 O          -6.7055    3.4141   19.2610 O.2     1  UNL1       -0.2698
     30 C          -5.1349    3.6668   22.1104 C.3     1  UNL1        0.0831
     31 C          -6.2737    3.8466   23.0699 C.3     1  UNL1        0.0220
     32 C          -5.0342    3.1221   23.5043 C.3     1  UNL1        0.0220
@<TRIPOS>BOND
     1     1     2    2
     2     2    18    1
     3    18    19    1
     4    19    20    1
     5    20    21    1
     6    21    22    1
     7    22    23    1
     8    23    24    2
     9    24    25    1
    10    25    26    2
    11    25    27   am
    12    27    30    1
    13    30    31    1
    14    31    32    1
    15    27    28   am
    16    28    29    2
    17     2     3   am
    18     3     5    1
    19     5     6   ar
    20     6     7   ar
    21     7     8   ar
    22     8    11    1
    23    11    12   ar
    24    12    13   ar
    25    13    14   ar
    26    14    15   ar
    27    15    16    1
    28    15    17   ar
    29     8     9   ar
    30     9    10   ar
    31    24    19    1
    32    32    30    1
    33    10     5   ar
    34    28    23    1
    35    17    11   ar
    36     3     4    1
@<TRIPOS>MOLECULE
*****
 32 36 0 0 0
SMALL
GASTEIGER

@<TRIPOS>ATOM
      1 O           5.0758    0.1102   27.1463 O.2     1  UNL1       -0.2729
      2 C           3.9420   -0.7815   26.7348 C.2     1  UNL1        0.2474
      3 N           2.8625   -1.1244   27.7181 N.am    1  UNL1       -0.2665
      4 H           2.1183   -1.7096   27.4480 H       1  UNL1        0.1564
      5 C           2.9167   -0.5756   29.1131 C.ar    1  UNL1        0.1560
      6 C           4.1336   -0.8009   29.9608 C.ar    1  UNL1        0.0379
      7 C           4.1879   -0.2521   31.3558 C.ar    1  UNL1        0.0239
      8 C           3.0253    0.5219   31.9030 C.ar    1  UNL1        0.1045
      9 N           1.8085    0.7471   31.0553 N.ar    1  UNL1       -0.1467
     10 N           1.7543    0.1984   29.6603 N.ar    1  UNL1       -0.1328
     11 C           3.0796    1.0707   33.2980 C.ar    1  UNL1        0.0408
     12 C           2.1052    2.1275   33.7266 C.ar    1  UNL1        0.1005
     13 N           2.1594    2.6763   35.1216 N.ar    1  UNL1       -0.2399
     14 C           3.1882    2.1682   36.0879 C.ar    1  UNL1        0.1284
     15 C           4.1625    1.1115   35.6592 C.ar    1  UNL1        0.1593
     16 F           5.1913    0.6034   36.6255 F       1  UNL1       -0.2025
     17 C           4.1083    0.5627   34.2642 C.ar    1  UNL1        0.0344
     18 C           3.8877   -1.3303   25.3398 C.3     1  UNL1        0.1775
     19 N           3.1431   -0.5876   24.2701 N.pl3   1  UNL1       -0.2964
     20 C           2.3495    0.6361   24.6204 C.3     1  UNL1        0.0917
     21 C           1.6050    1.3787   23.5507 C.3     1  UNL1        0.0263
     22 C           1.6542    0.8977   22.1308 C.3     1  UNL1        0.0342
     23 C           2.4478   -0.3260   21.7805 C.2     1  UNL1        0.0496
     24 C           3.1923   -1.0686   22.8502 C.2     1  UNL1        0.1032
     25 C           3.8852   -2.2342   22.2088 C.2     1  UNL1        0.2682
     26 O           4.7436   -3.2447   22.9103 O.2     1  UNL1       -0.2681
     27 N           3.5688   -2.2119   20.7427 N.am    1  UNL1       -0.2238
     28 C           2.6805   -1.0326   20.4780 C.2     1  UNL1        0.2523
     29 O           2.1228   -0.6304   19.1449 O.2     1  UNL1       -0.2698
     30 C           4.0554   -3.1962   19.7206 C.3     1  UNL1        0.0831
     31 C           3.8700   -4.4728   18.9552 C.3     1  UNL1        0.0220
     32 C           5.0836   -3.6243   18.7158 C.3     1  UNL1        0.0220
@<TRIPOS>BOND
     1     1     2    2
     2     2    18    1
     3    18    19    1
     4    19    20    1
     5    20    21    1
     6    21    22    1
     7    22    23    1
     8    23    24    2
     9    24    25    1
    10    25    26    2
    11    25    27   am
    12    27    30    1
    13    30    31    1
    14    31    32    1
    15    27    28   am
    16    28    29    2
    17     2     3   am
    18     3     5    1
    19     5     6   ar
    20     6     7   ar
    21     7     8   ar
    22     8    11    1
    23    11    12   ar
    24    12    13   ar
    25    13    14   ar
    26    14    15   ar
    27    15    16    1
    28    15    17   ar
    29     8     9   ar
    30     9    10   ar
    31    24    19    1
    32    32    30    1
    33    10     5   ar
    34    28    23    1
    35    17    11   ar
    36     3     4    1
@<TRIPOS>MOLECULE
*****
 32 36 0 0 0
SMALL
GASTEIGER

@<TRIPOS>ATOM
      1 O           0.9072    0.5324   18.0563 O.2     1  UNL1       -0.2729
      2 C           1.9766    1.2567   18.8191 C.2     1  UNL1        0.2474
      3 N           1.6119    2.3978   19.7219 N.am    1  UNL1       -0.2665
      4 H           2.3138    2.8731   20.2225 H       1  UNL1        0.1564
      5 C           0.1778    2.8146   19.8618 C.ar    1  UNL1        0.1560
      6 C          -0.4500    3.7010   18.8272 C.ar    1  UNL1        0.0379
      7 C          -1.8841    4.1178   18.9672 C.ar    1  UNL1        0.0239
      8 C          -2.6904    3.6482   20.1417 C.ar    1  UNL1        0.1045
      9 N          -2.0626    2.7619   21.1762 N.ar    1  UNL1       -0.1467
     10 N          -0.6285    2.3451   21.0363 N.ar    1  UNL1       -0.1328
     11 C          -4.1245    4.0650   20.2817 C.ar    1  UNL1        0.0408
     12 C          -4.5362    4.9706   21.4044 C.ar    1  UNL1        0.1005
     13 N          -5.9703    5.3874   21.5444 N.ar    1  UNL1       -0.2399
     14 C          -6.9928    4.8986   20.5616 C.ar    1  UNL1        0.1284
     15 C          -6.5811    3.9931   19.4390 C.ar    1  UNL1        0.1593
     16 F          -7.6035    3.5043   18.4562 F       1  UNL1       -0.2025
     17 C          -5.1469    3.5763   19.2990 C.ar    1  UNL1        0.0344
     18 C           3.4108    0.8399   18.6792 C.3     1  UNL1        0.1775
     19 N           3.8223   -0.5600   19.0272 N.pl3   1  UNL1       -0.2964
     20 C           4.1774   -1.5297   17.9393 C.3     1  UNL1        0.0917
     21 C           4.5889   -2.9295   18.2873 C.3     1  UNL1        0.0263
     22 C           4.6454   -3.3596   19.7232 C.3     1  UNL1        0.0342
     23 C           4.2903   -2.3899   20.8111 C.2     1  UNL1        0.0496
     24 C           3.8788   -0.9901   20.4631 C.2     1  UNL1        0.1032
     25 C           3.5876   -0.2611   21.7414 C.2     1  UNL1        0.2682
     26 O           3.1429    1.1665   21.8606 O.2     1  UNL1       -0.2681
     27 N           3.8192   -1.2104   22.8794 N.am    1  UNL1       -0.2238
     28 C           4.2535   -2.5261   22.3044 C.2     1  UNL1        0.2523
     29 O           4.5916   -3.7611   23.0857 O.2     1  UNL1       -0.2698
     30 C           3.6468   -0.8989   24.3366 C.3     1  UNL1        0.0831
     31 C           3.1014   -0.0175   25.4208 C.3     1  UNL1        0.0220
     32 C           3.8937   -1.2406   25.7761 C.3     1  UNL1        0.0220
@<TRIPOS>BOND
     1     1     2    2
     2     2    18    1
     3    18    19    1
     4    19    20    1
     5    20    21    1
     6    21    22    1
     7    22    23    1
     8    23    24    2
     9    24    25    1
    10    25    26    2
    11    25    27   am
    12    27    30    1
    13    30    31    1
    14    31    32    1
    15    27    28   am
    16    28    29    2
    17     2     3   am
    18     3     5    1
    19     5     6   ar
    20     6     7   ar
    21     7     8   ar
    22     8    11    1
    23    11    12   ar
    24    12    13   ar
    25    13    14   ar
    26    14    15   ar
    27    15    16    1
    28    15    17   ar
    29     8     9   ar
    30     9    10   ar
    31    24    19    1
    32    32    30    1
    33    10     5   ar
    34    28    23    1
    35    17    11   ar
    36     3     4    1
@<TRIPOS>MOLECULE
*****
 32 36 0 0 0
SMALL
GASTEIGER

@<TRIPOS>ATOM
      1 O           0.6112    2.8161   23.7261 O.2     1  UNL1       -0.2729
      2 C          -0.2246    3.6029   22.7604 C.2     1  UNL1        0.2474
      3 N          -0.1939    3.2706   21.2981 N.am    1  UNL1       -0.2665
      4 H          -0.7425    3.7869   20.6643 H       1  UNL1        0.1564
      5 C           0.6726    2.1514   20.8013 C.ar    1  UNL1        0.1560
      6 C           2.0951    2.4215   20.4094 C.ar    1  UNL1        0.0379
      7 C           2.9616    1.3024   19.9127 C.ar    1  UNL1        0.0239
      8 C           2.4055   -0.0868   19.8078 C.ar    1  UNL1        0.1045
      9 N           0.9831   -0.3569   20.1997 N.ar    1  UNL1       -0.1467
     10 N           0.1166    0.7623   20.6964 N.ar    1  UNL1       -0.1328
     11 C           3.2720   -1.2059   19.3110 C.ar    1  UNL1        0.0408
     12 C           4.3020   -0.9438   18.2525 C.ar    1  UNL1        0.1005
     13 N           5.1685   -2.0630   17.7557 N.ar    1  UNL1       -0.2399
     14 C           5.0050   -3.4442   18.3175 C.ar    1  UNL1        0.1284
     15 C           3.9750   -3.7062   19.3760 C.ar    1  UNL1        0.1593
     16 F           3.8114   -5.0875   19.9378 F       1  UNL1       -0.2025
     17 C           3.1085   -2.5871   19.8728 C.ar    1  UNL1        0.0344
     18 C          -1.0911    4.7220   23.2572 C.3     1  UNL1        0.1775
     19 N          -2.4122    4.4191   23.8999 N.pl3   1  UNL1       -0.2964
     20 C          -2.4935    4.2051   25.3823 C.3     1  UNL1        0.0917
     21 C          -3.8146    3.9022   26.0250 C.3     1  UNL1        0.0263
     22 C          -5.0543    3.8134   25.1852 C.3     1  UNL1        0.0342
     23 C          -4.9730    4.0274   23.7028 C.2     1  UNL1        0.0496
     24 C          -3.6519    4.3303   23.0602 C.2     1  UNL1        0.1032
     25 C          -3.8797    4.4926   21.5864 C.2     1  UNL1        0.2682
     26 O          -2.8300    4.8031   20.5610 O.2     1  UNL1       -0.2681
     27 N          -5.3416    4.2901   21.3183 N.am    1  UNL1       -0.2238
     28 C          -6.0172    4.0026   22.6263 C.2     1  UNL1        0.2523
     29 O          -7.4803    3.7368   22.8233 O.2     1  UNL1       -0.2698
     30 C          -6.0104    4.3624   19.9776 C.3     1  UNL1        0.0831
     31 C          -6.8476    3.7266   18.9076 C.3     1  UNL1        0.0220
     32 C          -6.3318    5.1233   18.7255 C.3     1  UNL1        0.0220
@<TRIPOS>BOND
     1     1     2    2
     2     2    18    1
     3    18    19    1
     4    19    20    1
     5    20    21    1
     6    21    22    1
     7    22    23    1
     8    23    24    2
     9    24    25    1
    10    25    26    2
    11    25    27   am
    12    27    30    1
    13    30    31    1
    14    31    32    1
    15    27    28   am
    16    28    29    2
    17     2     3   am
    18     3     5    1
    19     5     6   ar
    20     6     7   ar
    21     7     8   ar
    22     8    11    1
    23    11    12   ar
    24    12    13   ar
    25    13    14   ar
    26    14    15   ar
    27    15    16    1
    28    15    17   ar
    29     8     9   ar
    30     9    10   ar
    31    24    19    1
    32    32    30    1
    33    10     5   ar
    34    28    23    1
    35    17    11   ar
    36     3     4    1
@<TRIPOS>MOLECULE
*****
 32 36 0 0 0
SMALL
GASTEIGER

@<TRIPOS>ATOM
      1 O           8.7867   -2.3885   23.6376 O.2     1  UNL1       -0.2729
      2 C           8.5215   -3.8446   23.8819 C.2     1  UNL1        0.2474
      3 N           7.2930   -4.4892   23.3116 N.am    1  UNL1       -0.2665
      4 H           7.1190   -5.4448   23.4719 H       1  UNL1        0.1564
      5 C           6.3297   -3.6778   22.4970 C.ar    1  UNL1        0.1560
      6 C           5.0236   -3.2434   23.0933 C.ar    1  UNL1        0.0379
      7 C           4.0602   -2.4320   22.2787 C.ar    1  UNL1        0.0239
      8 C           4.4029   -2.0549   20.8678 C.ar    1  UNL1        0.1045
      9 N           5.7090   -2.4893   20.2716 N.ar    1  UNL1       -0.1467
     10 N           6.6724   -3.3007   21.0862 N.ar    1  UNL1       -0.1328
     11 C           3.4396   -1.2435   20.0533 C.ar    1  UNL1        0.0408
     12 C           3.8330   -0.7595   18.6891 C.ar    1  UNL1        0.1005
     13 N           2.8696    0.0519   17.8745 N.ar    1  UNL1       -0.2399
     14 C           1.5128    0.3793   18.4241 C.ar    1  UNL1        0.1284
     15 C           1.1195   -0.1048   19.7882 C.ar    1  UNL1        0.1593
     16 F          -0.2373    0.2226   20.3379 F       1  UNL1       -0.2025
     17 C           2.0828   -0.9162   20.6028 C.ar    1  UNL1        0.0344
     18 C           9.4849   -4.6560   24.6965 C.3     1  UNL1        0.1775
     19 N           8.9710   -5.6697   25.6755 N.pl3   1  UNL1       -0.2964
     20 C           8.9933   -7.1282   25.3260 C.3     1  UNL1        0.0917
     21 C           8.4795   -8.1419   26.3050 C.3     1  UNL1        0.0263
     22 C           7.9434   -7.6970   27.6334 C.3     1  UNL1        0.0342
     23 C           7.9211   -6.2385   27.9828 C.2     1  UNL1        0.0496
     24 C           8.4349   -5.2248   27.0039 C.2     1  UNL1        0.1032
     25 C           8.2871   -3.8664   27.6226 C.2     1  UNL1        0.2682
     26 O           8.6761   -2.5627   26.9909 O.2     1  UNL1       -0.2681
     27 N           7.6819   -4.0405   28.9840 N.am    1  UNL1       -0.2238
     28 C           7.4557   -5.5066   29.2066 C.2     1  UNL1        0.2523
     29 O           6.8673   -6.1311   30.4370 O.2     1  UNL1       -0.2698
     30 C           7.3594   -2.9415   29.9527 C.3     1  UNL1        0.0831
     31 C           6.4841   -2.3765   31.0318 C.3     1  UNL1        0.0220
     32 C           7.6763   -1.6032   30.5515 C.3     1  UNL1        0.0220
@<TRIPOS>BOND
     1     1     2    2
     2     2    18    1
     3    18    19    1
     4    19    20    1
     5    20    21    1
     6    21    22    1
     7    22    23    1
     8    23    24    2
     9    24    25    1
    10    25    26    2
    11    25    27   am
    12    27    30    1
    13    30    31    1
    14    31    32    1
    15    27    28   am
    16    28    29    2
    17     2     3   am
    18     3     5    1
    19     5     6   ar
    20     6     7   ar
    21     7     8   ar
    22     8    11    1
    23    11    12   ar
    24    12    13   ar
    25    13    14   ar
    26    14    15   ar
    27    15    16    1
    28    15    17   ar
    29     8     9   ar
    30     9    10   ar
    31    24    19    1
    32    32    30    1
    33    10     5   ar
    34    28    23    1
    35    17    11   ar
    36     3     4    1
