@<TRIPOS>MOLECULE
*****
 40 42 0 0 0
SMALL
GASTEIGER

@<TRIPOS>ATOM
      1 C           5.8092   -3.2501   19.7234 C.3     1  UNL1        0.2120
      2 O           5.0918   -4.2148   20.6205 O.3     1  UNL1       -0.3763
      3 H           5.7198   -4.5951   21.2545 H       1  UNL1        0.2107
      4 C           6.5267   -2.2855   18.8264 C.3     1  UNL1        0.4226
      5 F           7.2440   -1.3209   17.9293 F       1  UNL1       -0.1675
      6 F           6.9359   -1.4778   20.0223 F       1  UNL1       -0.1675
      7 F           6.1174   -3.0932   17.6305 F       1  UNL1       -0.1675
      8 C           4.5256   -2.9675   19.0008 C.3     1  UNL1        0.1307
      9 N           3.8264   -1.6552   19.1994 N.am    1  UNL1       -0.2733
     10 C           3.5766   -0.7536   18.0269 C.2     1  UNL1        0.2499
     11 O           4.0259   -1.1642   16.6559 O.2     1  UNL1       -0.2699
     12 C           2.8775    0.5585   18.2255 C.ar    1  UNL1        0.0641
     13 C           1.3786    0.6159   18.2345 C.ar    1  UNL1        0.0054
     14 C           0.6794    1.9281   18.4331 C.ar    1  UNL1        0.0002
     15 C           1.4792    3.1829   18.6227 C.ar    1  UNL1        0.0009
     16 C           2.9781    3.1254   18.6136 C.ar    1  UNL1        0.0115
     17 C           3.6772    1.8133   18.4150 C.ar    1  UNL1        0.0620
     18 CL          5.1761    1.7559   18.4060 Cl      1  UNL1       -0.0821
     19 C           4.2961   -0.4569   21.4562 C.3     1  UNL1        0.0233
     20 C           3.3772   -1.2447   20.5704 C.3     1  UNL1        0.0939
     21 C           7.0930   -3.5328   20.4461 C.3     1  UNL1        0.1269
     22 N           7.0737   -4.2893   21.7412 N.am    1  UNL1       -0.2982
     23 C           8.2944   -5.0353   22.1923 C.2     1  UNL1        0.2502
     24 O           9.5343   -5.0249   21.3482 O.2     1  UNL1       -0.2700
     25 H           6.2599   -4.2961   22.2952 H       1  UNL1        0.1498
     26 C           8.2751   -5.7918   23.4874 C.ar    1  UNL1        0.1053
     27 C           8.4877   -7.2678   23.6496 C.ar    1  UNL1        0.1278
     28 N           8.3839   -7.5933   25.1102 N.ar    1  UNL1       -0.1622
     29 N           8.1070   -6.3185   25.8506 N.ar    1  UNL1       -0.2163
     30 C           8.0398   -5.2051   24.8477 C.ar    1  UNL1        0.1327
     31 N           7.7825   -3.7590   25.1517 N.pl3   1  UNL1       -0.3424
     32 H           7.6390   -3.4694   26.0816 H       1  UNL1        0.1437
     33 H           7.7571   -3.0994   24.4213 H       1  UNL1        0.1437
     34 C           7.9287   -6.1812   27.3337 C.ar    1  UNL1        0.0843
     35 C           8.9749   -6.7138   28.2674 C.ar    1  UNL1        0.0215
     36 C           8.7965   -6.5765   29.7504 C.ar    1  UNL1        0.0312
     37 C           7.5720   -5.9065   30.2997 C.ar    1  UNL1        0.1402
     38 F           7.3937   -5.7692   31.7828 F       1  UNL1       -0.2042
     39 C           6.5259   -5.3739   29.3660 C.ar    1  UNL1        0.0312
     40 C           6.7042   -5.5112   27.8830 C.ar    1  UNL1        0.0215
@<TRIPOS>BOND
     1    19    20    1
     2    20     9    1
     3     9     8    1
     4     8     1    1
     5     1     2    1
     6     1    21    1
     7    21    22    1
     8    22    23   am
     9    23    24    2
    10    23    26    1
    11    26    27   ar
    12    27    28   ar
    13    28    29   ar
    14    29    34    1
    15    34    35   ar
    16    35    36   ar
    17    36    37   ar
    18    37    38    1
    19    37    39   ar
    20    39    40   ar
    21    29    30   ar
    22    30    31    1
    23     1     4    1
    24     4     5    1
    25     4     6    1
    26     4     7    1
    27     9    10   am
    28    10    11    2
    29    10    12    1
    30    12    13   ar
    31    13    14   ar
    32    14    15   ar
    33    15    16   ar
    34    16    17   ar
    35    17    18    1
    36    30    26   ar
    37    17    12   ar
    38    40    34   ar
    39     2     3    1
    40    22    25    1
    41    31    32    1
    42    31    33    1
@<TRIPOS>MOLECULE
*****
 40 42 0 0 0
SMALL
GASTEIGER

@<TRIPOS>ATOM
      1 C           4.9390   -2.6405   19.8051 C.3     1  UNL1        0.2120
      2 O           5.0859   -1.3856   20.6135 O.3     1  UNL1       -0.3763
      3 H           5.9955   -1.3183   20.9436 H       1  UNL1        0.2107
      4 C           4.7921   -3.8955   18.9966 C.3     1  UNL1        0.4226
      5 F           4.6451   -5.1504   18.1883 F       1  UNL1       -0.1675
      6 F           5.7459   -3.3494   17.9758 F       1  UNL1       -0.1675
      7 F           3.8383   -4.4415   20.0175 F       1  UNL1       -0.1675
      8 C           3.4991   -2.3073   19.5494 C.3     1  UNL1        0.1307
      9 N           3.1299   -0.9775   18.9616 N.am    1  UNL1       -0.2733
     10 C           2.4724    0.0643   19.8173 C.2     1  UNL1        0.2499
     11 O           2.1840   -0.2236   21.2609 O.2     1  UNL1       -0.2699
     12 C           2.1034    1.3941   19.2295 C.ar    1  UNL1        0.0641
     13 C           0.7296    1.6102   18.6671 C.ar    1  UNL1        0.0054
     14 C           0.3606    2.9400   18.0793 C.ar    1  UNL1        0.0002
     15 C           1.3652    4.0536   18.0537 C.ar    1  UNL1        0.0009
     16 C           2.7389    3.8373   18.6161 C.ar    1  UNL1        0.0115
     17 C           3.1080    2.5076   19.2039 C.ar    1  UNL1        0.0620
     18 CL          4.4817    2.2914   19.7663 Cl      1  UNL1       -0.0821
     19 C           4.7832   -0.2250   17.1040 C.3     1  UNL1        0.0233
     20 C           3.4184   -0.6895   17.5180 C.3     1  UNL1        0.0939
     21 C           6.3790   -2.9738   20.0607 C.3     1  UNL1        0.1269
     22 N           6.7434   -3.9407   21.1480 N.am    1  UNL1       -0.2982
     23 C           7.0752   -3.4354   22.5209 C.2     1  UNL1        0.2502
     24 O           7.0426   -1.9632   22.8064 O.2     1  UNL1       -0.2700
     25 H           6.7648   -4.9070   20.9606 H       1  UNL1        0.1498
     26 C           7.4396   -4.4024   23.6081 C.ar    1  UNL1        0.1053
     27 C           7.9895   -5.7841   23.4115 C.ar    1  UNL1        0.1278
     28 N           8.2079   -6.3930   24.7648 N.ar    1  UNL1       -0.1622
     29 N           7.7931   -5.3877   25.7979 N.ar    1  UNL1       -0.2163
     30 C           7.3183   -4.1574   25.0830 C.ar    1  UNL1        0.1327
     31 N           6.8111   -2.9025   25.7295 N.pl3   1  UNL1       -0.3424
     32 H           6.7688   -2.8368   26.7109 H       1  UNL1        0.1437
     33 H           6.5206   -2.1446   25.1724 H       1  UNL1        0.1437
     34 C           7.8440   -5.5790   27.2848 C.ar    1  UNL1        0.0843
     35 C           9.1219   -6.0088   27.9423 C.ar    1  UNL1        0.0215
     36 C           9.1728   -6.2001   29.4291 C.ar    1  UNL1        0.0312
     37 C           7.9459   -5.9616   30.2585 C.ar    1  UNL1        0.1402
     38 F           7.9969   -6.1530   31.7454 F       1  UNL1       -0.2042
     39 C           6.6681   -5.5319   29.6010 C.ar    1  UNL1        0.0312
     40 C           6.6171   -5.3406   28.1142 C.ar    1  UNL1        0.0215
@<TRIPOS>BOND
     1    19    20    1
     2    20     9    1
     3     9     8    1
     4     8     1    1
     5     1     2    1
     6     1    21    1
     7    21    22    1
     8    22    23   am
     9    23    24    2
    10    23    26    1
    11    26    27   ar
    12    27    28   ar
    13    28    29   ar
    14    29    34    1
    15    34    35   ar
    16    35    36   ar
    17    36    37   ar
    18    37    38    1
    19    37    39   ar
    20    39    40   ar
    21    29    30   ar
    22    30    31    1
    23     1     4    1
    24     4     5    1
    25     4     6    1
    26     4     7    1
    27     9    10   am
    28    10    11    2
    29    10    12    1
    30    12    13   ar
    31    13    14   ar
    32    14    15   ar
    33    15    16   ar
    34    16    17   ar
    35    17    18    1
    36    30    26   ar
    37    17    12   ar
    38    40    34   ar
    39     2     3    1
    40    22    25    1
    41    31    32    1
    42    31    33    1
@<TRIPOS>MOLECULE
*****
 40 42 0 0 0
SMALL
GASTEIGER

@<TRIPOS>ATOM
      1 C         -11.1400   -6.0265   17.7534 C.3     1  UNL1        0.2120
      2 O         -12.2589   -6.1622   16.7636 O.3     1  UNL1       -0.3763
      3 H         -12.0783   -5.6018   15.9927 H       1  UNL1        0.2107
      4 C         -10.0212   -5.8908   18.7433 C.3     1  UNL1        0.4226
      5 F          -8.9025   -5.7551   19.7331 F       1  UNL1       -0.1675
      6 F          -9.2578   -6.9656   18.0277 F       1  UNL1       -0.1675
      7 F         -10.7847   -4.8160   19.4589 F       1  UNL1       -0.1675
      8 C         -11.8317   -6.9937   18.6678 C.3     1  UNL1        0.1307
      9 N         -13.2794   -6.7991   19.0089 N.am    1  UNL1       -0.2733
     10 C         -14.3220   -7.6778   18.3836 C.2     1  UNL1        0.2499
     11 O         -13.9168   -8.7512   17.4173 O.2     1  UNL1       -0.2699
     12 C         -15.7696   -7.4832   18.7247 C.ar    1  UNL1        0.0641
     13 C         -16.3924   -8.2786   19.8335 C.ar    1  UNL1        0.0054
     14 C         -17.8401   -8.0839   20.1747 C.ar    1  UNL1        0.0002
     15 C         -18.6650   -7.0938   19.4069 C.ar    1  UNL1        0.0009
     16 C         -18.0421   -6.2985   18.2982 C.ar    1  UNL1        0.0115
     17 C         -16.5945   -6.4931   17.9570 C.ar    1  UNL1        0.0620
     18 CL        -15.9716   -5.6977   16.8482 Cl      1  UNL1       -0.0821
     19 C         -13.9156   -4.3260   19.4879 C.3     1  UNL1        0.0233
     20 C         -13.6845   -5.7257   19.9752 C.3     1  UNL1        0.0939
     21 C         -10.4484   -5.0593   16.8391 C.3     1  UNL1        0.1269
     22 N         -10.5953   -3.5829   17.0594 N.am    1  UNL1       -0.2982
     23 C         -11.8574   -2.8849   16.6472 C.2     1  UNL1        0.2502
     24 O         -12.9727   -3.6634   16.0146 O.2     1  UNL1       -0.2700
     25 H          -9.8633   -3.0719   17.4745 H       1  UNL1        0.1498
     26 C         -12.0043   -1.4085   16.8675 C.ar    1  UNL1        0.1053
     27 C         -10.9072   -0.3897   16.7745 C.ar    1  UNL1        0.1278
     28 N         -11.4989    0.9568   17.0690 N.ar    1  UNL1       -0.1622
     29 N         -12.9616    0.7703   17.3440 N.ar    1  UNL1       -0.2163
     30 C         -13.2739   -0.6916   17.2195 C.ar    1  UNL1        0.1327
     31 N         -14.6197   -1.3252   17.4130 N.pl3   1  UNL1       -0.3424
     32 H         -15.3976   -0.7678   17.6439 H       1  UNL1        0.1437
     33 H         -14.7250   -2.2985   17.3091 H       1  UNL1        0.1437
     34 C         -13.9403    1.8551   17.6840 C.ar    1  UNL1        0.0843
     35 C         -14.0973    3.0361   16.7726 C.ar    1  UNL1        0.0215
     36 C         -15.0759    4.1208   17.1126 C.ar    1  UNL1        0.0312
     37 C         -15.8975    4.0246   18.3639 C.ar    1  UNL1        0.1402
     38 F         -16.8761    5.1095   18.7038 F       1  UNL1       -0.2042
     39 C         -15.7405    2.8436   19.2752 C.ar    1  UNL1        0.0312
     40 C         -14.7618    1.7589   18.9353 C.ar    1  UNL1        0.0215
@<TRIPOS>BOND
     1    19    20    1
     2    20     9    1
     3     9     8    1
     4     8     1    1
     5     1     2    1
     6     1    21    1
     7    21    22    1
     8    22    23   am
     9    23    24    2
    10    23    26    1
    11    26    27   ar
    12    27    28   ar
    13    28    29   ar
    14    29    34    1
    15    34    35   ar
    16    35    36   ar
    17    36    37   ar
    18    37    38    1
    19    37    39   ar
    20    39    40   ar
    21    29    30   ar
    22    30    31    1
    23     1     4    1
    24     4     5    1
    25     4     6    1
    26     4     7    1
    27     9    10   am
    28    10    11    2
    29    10    12    1
    30    12    13   ar
    31    13    14   ar
    32    14    15   ar
    33    15    16   ar
    34    16    17   ar
    35    17    18    1
    36    30    26   ar
    37    17    12   ar
    38    40    34   ar
    39     2     3    1
    40    22    25    1
    41    31    32    1
    42    31    33    1
@<TRIPOS>MOLECULE
*****
 40 42 0 0 0
SMALL
GASTEIGER

@<TRIPOS>ATOM
      1 C         -10.9596  -18.7946   21.7621 C.3     1  UNL1        0.2120
      2 O         -11.1024  -20.1069   22.4744 O.3     1  UNL1       -0.3763
      3 H         -10.9410  -20.8324   21.8511 H       1  UNL1        0.2107
      4 C         -10.8168  -17.4822   21.0498 C.3     1  UNL1        0.4226
      5 F         -10.6740  -16.1699   20.3376 F       1  UNL1       -0.1675
      6 F          -9.3703  -17.4263   21.4430 F       1  UNL1       -0.1675
      7 F         -12.2633  -17.5382   20.6568 F       1  UNL1       -0.1675
      8 C         -11.2748  -18.0687   23.0363 C.3     1  UNL1        0.1307
      9 N         -10.1778  -17.7480   24.0078 N.am    1  UNL1       -0.2733
     10 C          -9.7528  -16.3246   24.2161 C.2     1  UNL1        0.2499
     11 O         -10.4248  -15.2219   23.4528 O.2     1  UNL1       -0.2699
     12 C          -8.6558  -16.0039   25.1876 C.ar    1  UNL1        0.0641
     13 C          -8.8660  -16.2256   26.6562 C.ar    1  UNL1        0.0054
     14 C          -7.7690  -15.9050   27.6277 C.ar    1  UNL1        0.0002
     15 C          -6.4618  -15.3625   27.1306 C.ar    1  UNL1        0.0009
     16 C          -6.2517  -15.1409   25.6620 C.ar    1  UNL1        0.0115
     17 C          -7.3487  -15.4615   24.6905 C.ar    1  UNL1        0.0620
     18 CL         -7.1385  -15.2398   23.2219 Cl      1  UNL1       -0.0821
     19 C         -10.3180  -19.9859   25.3201 C.3     1  UNL1        0.0233
     20 C          -9.5058  -18.8507   24.7711 C.3     1  UNL1        0.0939
     21 C         -10.6443  -19.5205   20.4879 C.3     1  UNL1        0.1269
     22 N          -9.2213  -19.6530   20.0325 N.am    1  UNL1       -0.2982
     23 C          -8.1550  -20.0506   21.0099 C.2     1  UNL1        0.2502
     24 O          -8.5118  -20.3155   22.4425 O.2     1  UNL1       -0.2700
     25 H          -8.9871  -19.4791   19.0923 H       1  UNL1        0.1498
     26 C          -6.7320  -20.1831   20.5545 C.ar    1  UNL1        0.1053
     27 C          -6.1576  -21.3318   19.7795 C.ar    1  UNL1        0.1278
     28 N          -4.7041  -21.0489   19.5403 N.ar    1  UNL1       -0.1622
     29 N          -4.3801  -19.7253   20.1673 N.ar    1  UNL1       -0.2163
     30 C          -5.6335  -19.1902   20.7942 C.ar    1  UNL1        0.1327
     31 N          -5.7652  -17.8905   21.5313 N.pl3   1  UNL1       -0.3424
     32 H          -4.9822  -17.3031   21.6371 H       1  UNL1        0.1437
     33 H          -6.6346  -17.6248   21.9091 H       1  UNL1        0.1437
     34 C          -3.0384  -19.0545   20.1676 C.ar    1  UNL1        0.0843
     35 C          -2.2536  -18.9477   21.4413 C.ar    1  UNL1        0.0215
     36 C          -0.9119  -18.2769   21.4415 C.ar    1  UNL1        0.0312
     37 C          -0.3552  -17.7130   20.1679 C.ar    1  UNL1        0.1402
     38 F           0.9865  -17.0422   20.1681 F       1  UNL1       -0.2042
     39 C          -1.1400  -17.8198   18.8942 C.ar    1  UNL1        0.0312
     40 C          -2.4817  -18.4906   18.8940 C.ar    1  UNL1        0.0215
@<TRIPOS>BOND
     1    19    20    1
     2    20     9    1
     3     9     8    1
     4     8     1    1
     5     1     2    1
     6     1    21    1
     7    21    22    1
     8    22    23   am
     9    23    24    2
    10    23    26    1
    11    26    27   ar
    12    27    28   ar
    13    28    29   ar
    14    29    34    1
    15    34    35   ar
    16    35    36   ar
    17    36    37   ar
    18    37    38    1
    19    37    39   ar
    20    39    40   ar
    21    29    30   ar
    22    30    31    1
    23     1     4    1
    24     4     5    1
    25     4     6    1
    26     4     7    1
    27     9    10   am
    28    10    11    2
    29    10    12    1
    30    12    13   ar
    31    13    14   ar
    32    14    15   ar
    33    15    16   ar
    34    16    17   ar
    35    17    18    1
    36    30    26   ar
    37    17    12   ar
    38    40    34   ar
    39     2     3    1
    40    22    25    1
    41    31    32    1
    42    31    33    1
@<TRIPOS>MOLECULE
*****
 40 42 0 0 0
SMALL
GASTEIGER

@<TRIPOS>ATOM
      1 C           0.8018    0.5870   19.7533 C.3     1  UNL1        0.2120
      2 O          -0.2944    0.0215   20.6070 O.3     1  UNL1       -0.3763
      3 H          -0.9159    0.7273   20.8445 H       1  UNL1        0.2107
      4 C           1.8979    1.1525   18.8996 C.3     1  UNL1        0.4226
      5 F           2.9940    1.7179   18.0460 F       1  UNL1       -0.1675
      6 F           1.5614    0.1703   17.8170 F       1  UNL1       -0.1675
      7 F           2.2344    2.1347   19.9823 F       1  UNL1       -0.1675
      8 C           1.4337   -0.7705   19.6654 C.3     1  UNL1        0.1307
      9 N           2.6351   -1.0942   20.5033 N.am    1  UNL1       -0.2733
     10 C           3.8521   -1.6981   19.8676 C.2     1  UNL1        0.2499
     11 O           3.8678   -1.9783   18.3941 O.2     1  UNL1       -0.2699
     12 C           5.0534   -2.0218   20.7055 C.ar    1  UNL1        0.0641
     13 C           5.1604   -3.3580   21.3787 C.ar    1  UNL1        0.0054
     14 C           6.3617   -3.6816   22.2166 C.ar    1  UNL1        0.0002
     15 C           7.4561   -2.6691   22.3813 C.ar    1  UNL1        0.0009
     16 C           7.3491   -1.3329   21.7081 C.ar    1  UNL1        0.0115
     17 C           6.1478   -1.0093   20.8702 C.ar    1  UNL1        0.0620
     18 CL          6.0408    0.3269   20.1970 Cl      1  UNL1       -0.0821
     19 C           3.1682    0.4802   22.5000 C.3     1  UNL1        0.0233
     20 C           2.6193   -0.8140   21.9768 C.3     1  UNL1        0.0939
     21 C           0.1699    1.9446   19.8412 C.3     1  UNL1        0.1269
     22 N          -1.0287    2.1586   20.7173 N.am    1  UNL1       -0.2982
     23 C          -1.9945    3.2645   20.4099 C.2     1  UNL1        0.2502
     24 O          -1.7617    4.1562   19.2264 O.2     1  UNL1       -0.2700
     25 H          -1.1815    1.5734   21.4940 H       1  UNL1        0.1498
     26 C          -3.1931    3.4785   21.2860 C.ar    1  UNL1        0.1053
     27 C          -4.5976    3.0507   20.9786 C.ar    1  UNL1        0.1278
     28 N          -5.4702    3.4658   22.1259 N.ar    1  UNL1       -0.1622
     29 N          -4.6050    4.1501   23.1424 N.ar    1  UNL1       -0.2163
     30 C          -3.1977    4.1580   22.6232 C.ar    1  UNL1        0.1327
     31 N          -2.0045    4.7427   23.3192 N.pl3   1  UNL1       -0.3424
     32 H          -2.1089    5.1705   24.1997 H       1  UNL1        0.1437
     33 H          -1.1169    4.6986   22.8954 H       1  UNL1        0.1437
     34 C          -5.0661    4.7256   24.4486 C.ar    1  UNL1        0.0843
     35 C          -4.4827    4.2247   25.7365 C.ar    1  UNL1        0.0215
     36 C          -4.9438    4.8001   27.0427 C.ar    1  UNL1        0.0312
     37 C          -5.9884    5.8765   27.0610 C.ar    1  UNL1        0.1402
     38 F          -6.4496    6.4519   28.3673 F       1  UNL1       -0.2042
     39 C          -6.5719    6.3774   25.7731 C.ar    1  UNL1        0.0312
     40 C          -6.1107    5.8019   24.4669 C.ar    1  UNL1        0.0215
@<TRIPOS>BOND
     1    19    20    1
     2    20     9    1
     3     9     8    1
     4     8     1    1
     5     1     2    1
     6     1    21    1
     7    21    22    1
     8    22    23   am
     9    23    24    2
    10    23    26    1
    11    26    27   ar
    12    27    28   ar
    13    28    29   ar
    14    29    34    1
    15    34    35   ar
    16    35    36   ar
    17    36    37   ar
    18    37    38    1
    19    37    39   ar
    20    39    40   ar
    21    29    30   ar
    22    30    31    1
    23     1     4    1
    24     4     5    1
    25     4     6    1
    26     4     7    1
    27     9    10   am
    28    10    11    2
    29    10    12    1
    30    12    13   ar
    31    13    14   ar
    32    14    15   ar
    33    15    16   ar
    34    16    17   ar
    35    17    18    1
    36    30    26   ar
    37    17    12   ar
    38    40    34   ar
    39     2     3    1
    40    22    25    1
    41    31    32    1
    42    31    33    1
@<TRIPOS>MOLECULE
*****
 40 42 0 0 0
SMALL
GASTEIGER

@<TRIPOS>ATOM
      1 C           0.8801    0.5030   19.8103 C.3     1  UNL1        0.2120
      2 O          -0.2240   -0.0170   20.6823 O.3     1  UNL1       -0.3763
      3 H          -0.7592    0.7255   21.0037 H       1  UNL1        0.2107
      4 C           1.9843    1.0231   18.9382 C.3     1  UNL1        0.4226
      5 F           3.0883    1.5431   18.0662 F       1  UNL1       -0.1675
      6 F           2.5239    1.8137   20.0931 F       1  UNL1       -0.1675
      7 F           1.4446    0.2324   17.7834 F       1  UNL1       -0.1675
      8 C           1.3674   -0.8985   19.5915 C.3     1  UNL1        0.1307
      9 N           2.6710   -1.3409   20.1874 N.am    1  UNL1       -0.2733
     10 C           2.9883   -1.0216   21.6183 C.2     1  UNL1        0.2499
     11 O           2.0021   -0.2599   22.4533 O.2     1  UNL1       -0.2699
     12 C           4.2919   -1.4640   22.2141 C.ar    1  UNL1        0.0641
     13 C           4.3925   -2.7987   22.8913 C.ar    1  UNL1        0.0054
     14 C           5.6960   -3.2411   23.4871 C.ar    1  UNL1        0.0002
     15 C           6.8991   -2.3488   23.4059 C.ar    1  UNL1        0.0009
     16 C           6.7984   -1.0141   22.7287 C.ar    1  UNL1        0.0115
     17 C           5.4949   -0.5717   22.1328 C.ar    1  UNL1        0.0620
     18 CL          5.3943    0.7630   21.4557 Cl      1  UNL1       -0.0821
     19 C           3.5316   -3.5909   19.2142 C.3     1  UNL1        0.0233
     20 C           3.6573   -2.1026   19.3524 C.3     1  UNL1        0.0939
     21 C           0.3928    1.9047   20.0291 C.3     1  UNL1        0.1269
     22 N          -0.8267    2.1526   20.8665 N.am    1  UNL1       -0.2982
     23 C          -1.8423    3.1669   20.4308 C.2     1  UNL1        0.2502
     24 O          -1.6384    3.9333   19.1576 O.2     1  UNL1       -0.2700
     25 H          -0.9605    1.6496   21.7022 H       1  UNL1        0.1498
     26 C          -3.0618    3.4148   21.2683 C.ar    1  UNL1        0.1053
     27 C          -4.4718    3.0603   20.8992 C.ar    1  UNL1        0.1278
     28 N          -5.3669    3.4871   22.0247 N.ar    1  UNL1       -0.1622
     29 N          -4.5100    4.1054   23.0893 N.ar    1  UNL1       -0.2163
     30 C          -3.0854    4.0607   22.6218 C.ar    1  UNL1        0.1327
     31 N          -1.8937    4.5721   23.3756 N.pl3   1  UNL1       -0.3424
     32 H          -2.0113    4.9825   24.2627 H       1  UNL1        0.1437
     33 H          -0.9938    4.4973   22.9832 H       1  UNL1        0.1437
     34 C          -4.9930    4.6694   24.3927 C.ar    1  UNL1        0.0843
     35 C          -4.4534    4.1360   25.6866 C.ar    1  UNL1        0.0215
     36 C          -4.9363    4.7000   26.9899 C.ar    1  UNL1        0.0312
     37 C          -5.9589    5.7974   26.9993 C.ar    1  UNL1        0.1402
     38 F          -6.4418    6.3614   28.3027 F       1  UNL1       -0.2042
     39 C          -6.4985    6.3308   25.7054 C.ar    1  UNL1        0.0312
     40 C          -6.0155    5.7668   24.4021 C.ar    1  UNL1        0.0215
@<TRIPOS>BOND
     1    19    20    1
     2    20     9    1
     3     9     8    1
     4     8     1    1
     5     1     2    1
     6     1    21    1
     7    21    22    1
     8    22    23   am
     9    23    24    2
    10    23    26    1
    11    26    27   ar
    12    27    28   ar
    13    28    29   ar
    14    29    34    1
    15    34    35   ar
    16    35    36   ar
    17    36    37   ar
    18    37    38    1
    19    37    39   ar
    20    39    40   ar
    21    29    30   ar
    22    30    31    1
    23     1     4    1
    24     4     5    1
    25     4     6    1
    26     4     7    1
    27     9    10   am
    28    10    11    2
    29    10    12    1
    30    12    13   ar
    31    13    14   ar
    32    14    15   ar
    33    15    16   ar
    34    16    17   ar
    35    17    18    1
    36    30    26   ar
    37    17    12   ar
    38    40    34   ar
    39     2     3    1
    40    22    25    1
    41    31    32    1
    42    31    33    1
@<TRIPOS>MOLECULE
*****
 40 42 0 0 0
SMALL
GASTEIGER

@<TRIPOS>ATOM
      1 C          -3.7361    3.7165   20.0550 C.3     1  UNL1        0.2120
      2 O          -3.6049    2.4553   20.8565 O.3     1  UNL1       -0.3763
      3 H          -2.6665    2.2722   21.0199 H       1  UNL1        0.2107
      4 C          -3.8673    4.9776   19.2535 C.3     1  UNL1        0.4226
      5 F          -3.9985    6.2386   18.4521 F       1  UNL1       -0.1675
      6 F          -4.4851    4.1992   18.1300 F       1  UNL1       -0.1675
      7 F          -3.2495    5.7560   20.3771 F       1  UNL1       -0.1675
      8 C          -5.2289    3.5710   20.0704 C.3     1  UNL1        0.1307
      9 N          -6.0536    4.4001   21.0098 N.am    1  UNL1       -0.2733
     10 C          -6.0090    4.1303   22.4847 C.2     1  UNL1        0.2499
     11 O          -5.1396    3.0315   23.0202 O.2     1  UNL1       -0.2699
     12 C          -6.8337    4.9594   23.4241 C.ar    1  UNL1        0.0641
     13 C          -8.2500    4.5671   23.7245 C.ar    1  UNL1        0.0054
     14 C          -9.0747    5.3962   24.6639 C.ar    1  UNL1        0.0002
     15 C          -8.4831    6.6177   25.3029 C.ar    1  UNL1        0.0009
     16 C          -7.0668    7.0099   25.0023 C.ar    1  UNL1        0.0115
     17 C          -6.2421    6.1808   24.0630 C.ar    1  UNL1        0.0620
     18 CL         -4.8258    6.5731   23.7625 Cl      1  UNL1       -0.0821
     19 C          -7.6499    5.3146   19.1753 C.3     1  UNL1        0.0233
     20 C          -6.9230    5.4989   20.4744 C.3     1  UNL1        0.0939
     21 C          -2.2433    3.8620   20.0397 C.3     1  UNL1        0.1269
     22 N          -1.3704    2.6607   20.2517 N.am    1  UNL1       -0.2982
     23 C          -0.1338    2.4764   19.4229 C.2     1  UNL1        0.2502
     24 O           0.2299    3.4934   18.3820 O.2     1  UNL1       -0.2700
     25 H          -1.6091    1.9932   20.9349 H       1  UNL1        0.1498
     26 C           0.7391    1.2751   19.6350 C.ar    1  UNL1        0.1053
     27 C           0.3639    0.0350   20.3911 C.ar    1  UNL1        0.1278
     28 N           1.5334   -0.9035   20.3516 N.ar    1  UNL1       -0.1622
     29 N           2.6312   -0.2435   19.5712 N.ar    1  UNL1       -0.2163
     30 C           2.1403    1.1029   19.1283 C.ar    1  UNL1        0.1327
     31 N           2.9147    2.1018   18.3205 N.pl3   1  UNL1       -0.3424
     32 H           3.8336    1.8961   18.0330 H       1  UNL1        0.1437
     33 H           2.5042    2.9631   18.0778 H       1  UNL1        0.1437
     34 C           3.9828   -0.8275   19.2840 C.ar    1  UNL1        0.0843
     35 C           4.1020   -2.0664   18.4469 C.ar    1  UNL1        0.0215
     36 C           5.4535   -2.6503   18.1597 C.ar    1  UNL1        0.0312
     37 C           6.6858   -1.9953   18.7097 C.ar    1  UNL1        0.1402
     38 F           8.0373   -2.5792   18.4225 F       1  UNL1       -0.2042
     39 C           6.5665   -0.7563   19.5468 C.ar    1  UNL1        0.0312
     40 C           5.2150   -0.1725   19.8340 C.ar    1  UNL1        0.0215
@<TRIPOS>BOND
     1    19    20    1
     2    20     9    1
     3     9     8    1
     4     8     1    1
     5     1     2    1
     6     1    21    1
     7    21    22    1
     8    22    23   am
     9    23    24    2
    10    23    26    1
    11    26    27   ar
    12    27    28   ar
    13    28    29   ar
    14    29    34    1
    15    34    35   ar
    16    35    36   ar
    17    36    37   ar
    18    37    38    1
    19    37    39   ar
    20    39    40   ar
    21    29    30   ar
    22    30    31    1
    23     1     4    1
    24     4     5    1
    25     4     6    1
    26     4     7    1
    27     9    10   am
    28    10    11    2
    29    10    12    1
    30    12    13   ar
    31    13    14   ar
    32    14    15   ar
    33    15    16   ar
    34    16    17   ar
    35    17    18    1
    36    30    26   ar
    37    17    12   ar
    38    40    34   ar
    39     2     3    1
    40    22    25    1
    41    31    32    1
    42    31    33    1
@<TRIPOS>MOLECULE
*****
 40 42 0 0 0
SMALL
GASTEIGER

@<TRIPOS>ATOM
      1 C           5.9368   -3.6012   22.7918 C.3     1  UNL1        0.2120
      2 O           4.5481   -3.6348   23.3578 O.3     1  UNL1       -0.3763
      3 H           4.5942   -3.7207   24.3229 H       1  UNL1        0.2107
      4 C           7.3255   -3.5676   22.2259 C.3     1  UNL1        0.4226
      5 F           8.7142   -3.5340   21.6599 F       1  UNL1       -0.1675
      6 F           7.7459   -2.6241   23.3136 F       1  UNL1       -0.1675
      7 F           6.9051   -4.5111   21.1382 F       1  UNL1       -0.1675
      8 C           5.3702   -3.4721   21.4091 C.3     1  UNL1        0.1307
      9 N           4.5751   -2.2563   21.0349 N.am    1  UNL1       -0.2733
     10 C           3.4737   -2.3629   20.0222 C.2     1  UNL1        0.2499
     11 O           3.1673   -3.6852   19.3837 O.2     1  UNL1       -0.2699
     12 C           2.6787   -1.1472   19.6480 C.ar    1  UNL1        0.0641
     13 C           1.3778   -0.8603   20.3376 C.ar    1  UNL1        0.0054
     14 C           0.5828    0.3554   19.9634 C.ar    1  UNL1        0.0002
     15 C           1.0886    1.2843   18.8997 C.ar    1  UNL1        0.0009
     16 C           2.3895    0.9972   18.2102 C.ar    1  UNL1        0.0115
     17 C           3.1845   -0.2185   18.5843 C.ar    1  UNL1        0.0620
     18 CL          4.4854   -0.5054   17.8948 Cl      1  UNL1       -0.0821
     19 C           6.0994   -0.1641   21.2565 C.3     1  UNL1        0.0233
     20 C           4.8815   -0.9340   21.6734 C.3     1  UNL1        0.0939
     21 C           6.5035   -3.7303   24.1747 C.3     1  UNL1        0.1269
     22 N           5.8079   -3.0804   25.3339 N.am    1  UNL1       -0.2982
     23 C           6.5469   -2.8507   26.6189 C.2     1  UNL1        0.2502
     24 O           7.9813   -3.2708   26.7447 O.2     1  UNL1       -0.2700
     25 H           4.8665   -2.8047   25.2514 H       1  UNL1        0.1498
     26 C           5.8513   -2.2009   27.7782 C.ar    1  UNL1        0.1053
     27 C           4.6098   -1.3623   27.7041 C.ar    1  UNL1        0.1278
     28 N           4.2663   -0.9186   29.0952 N.ar    1  UNL1       -0.1622
     29 N           5.2956   -1.4830   30.0291 N.ar    1  UNL1       -0.2163
     30 C           6.2752   -2.2754   29.2151 C.ar    1  UNL1        0.1327
     31 N           7.4690   -3.0129   29.7451 N.pl3   1  UNL1       -0.3424
     32 H           7.6655   -3.0028   30.7097 H       1  UNL1        0.1437
     33 H           8.0560   -3.5071   29.1282 H       1  UNL1        0.1437
     34 C           5.3379   -1.2889   31.5159 C.ar    1  UNL1        0.0843
     35 C           4.3378   -1.9837   32.3917 C.ar    1  UNL1        0.0215
     36 C           4.3802   -1.7897   33.8785 C.ar    1  UNL1        0.0312
     37 C           5.4226   -0.9008   34.4894 C.ar    1  UNL1        0.1402
     38 F           5.4649   -0.7068   35.9763 F       1  UNL1       -0.2042
     39 C           6.4227   -0.2060   33.6137 C.ar    1  UNL1        0.0312
     40 C           6.3803   -0.4001   32.1269 C.ar    1  UNL1        0.0215
@<TRIPOS>BOND
     1    19    20    1
     2    20     9    1
     3     9     8    1
     4     8     1    1
     5     1     2    1
     6     1    21    1
     7    21    22    1
     8    22    23   am
     9    23    24    2
    10    23    26    1
    11    26    27   ar
    12    27    28   ar
    13    28    29   ar
    14    29    34    1
    15    34    35   ar
    16    35    36   ar
    17    36    37   ar
    18    37    38    1
    19    37    39   ar
    20    39    40   ar
    21    29    30   ar
    22    30    31    1
    23     1     4    1
    24     4     5    1
    25     4     6    1
    26     4     7    1
    27     9    10   am
    28    10    11    2
    29    10    12    1
    30    12    13   ar
    31    13    14   ar
    32    14    15   ar
    33    15    16   ar
    34    16    17   ar
    35    17    18    1
    36    30    26   ar
    37    17    12   ar
    38    40    34   ar
    39     2     3    1
    40    22    25    1
    41    31    32    1
    42    31    33    1
@<TRIPOS>MOLECULE
*****
 40 42 0 0 0
SMALL
GASTEIGER

@<TRIPOS>ATOM
      1 C           1.4239    3.1713   19.4057 C.3     1  UNL1        0.2120
      2 O           2.3056    2.8961   20.5876 O.3     1  UNL1       -0.3763
      3 H           1.9755    3.3845   21.3580 H       1  UNL1        0.2107
      4 C           0.5421    3.4466   18.2238 C.3     1  UNL1        0.4226
      5 F          -0.3396    3.7218   17.0420 F       1  UNL1       -0.1675
      6 F           1.6515    4.2215   17.5768 F       1  UNL1       -0.1675
      7 F          -0.5672    2.6716   18.8710 F       1  UNL1       -0.1675
      8 C           2.2769    2.2731   18.5601 C.3     1  UNL1        0.1307
      9 N           2.4540    0.8324   18.9387 N.am    1  UNL1       -0.2733
     10 C           3.8321    0.2677   19.1170 C.2     1  UNL1        0.2499
     11 O           5.0333    1.1435   18.9167 O.2     1  UNL1       -0.2699
     12 C           4.0091   -1.1729   19.4957 C.ar    1  UNL1        0.0641
     13 C           4.1488   -2.2173   18.4281 C.ar    1  UNL1        0.0054
     14 C           4.3258   -3.6579   18.8067 C.ar    1  UNL1        0.0002
     15 C           4.3630   -4.0542   20.2530 C.ar    1  UNL1        0.0009
     16 C           4.2232   -3.0097   21.3205 C.ar    1  UNL1        0.0115
     17 C           4.0463   -1.5691   20.9419 C.ar    1  UNL1        0.0620
     18 CL          3.9065   -0.5247   22.0095 Cl      1  UNL1       -0.0821
     19 C           0.5827   -0.1023   20.4798 C.3     1  UNL1        0.0233
     20 C           1.2528   -0.0435   19.1391 C.3     1  UNL1        0.0939
     21 C           0.5707    4.0697   20.2514 C.3     1  UNL1        0.1269
     22 N           0.4749    3.8387   21.7304 N.am    1  UNL1       -0.2982
     23 C          -0.7821    3.2719   22.3211 C.2     1  UNL1        0.2502
     24 O          -1.9432    2.9361   21.4328 O.2     1  UNL1       -0.2700
     25 H           1.2369    4.0591   22.3134 H       1  UNL1        0.1498
     26 C          -0.8779    3.0409   23.8000 C.ar    1  UNL1        0.1053
     27 C          -1.8811    3.6620   24.7263 C.ar    1  UNL1        0.1278
     28 N          -1.6106    3.1532   26.1112 N.ar    1  UNL1       -0.1622
     29 N          -0.4403    2.2176   26.0409 N.ar    1  UNL1       -0.2163
     30 C           0.0125    2.1482   24.6126 C.ar    1  UNL1        0.1327
     31 N           1.1552    1.3298   24.0887 N.pl3   1  UNL1       -0.3424
     32 H           1.6840    0.7720   24.7039 H       1  UNL1        0.1437
     33 H           1.3765    1.3504   23.1296 H       1  UNL1        0.1437
     34 C           0.1701    1.4808   27.1962 C.ar    1  UNL1        0.0843
     35 C           1.5910    1.7526   27.5926 C.ar    1  UNL1        0.0215
     36 C           2.2013    1.0157   28.7478 C.ar    1  UNL1        0.0312
     37 C           1.3908    0.0071   29.5065 C.ar    1  UNL1        0.1402
     38 F           2.0012   -0.7298   30.6618 F       1  UNL1       -0.2042
     39 C          -0.0301   -0.2647   29.1101 C.ar    1  UNL1        0.0312
     40 C          -0.6404    0.4721   27.9549 C.ar    1  UNL1        0.0215
@<TRIPOS>BOND
     1    19    20    1
     2    20     9    1
     3     9     8    1
     4     8     1    1
     5     1     2    1
     6     1    21    1
     7    21    22    1
     8    22    23   am
     9    23    24    2
    10    23    26    1
    11    26    27   ar
    12    27    28   ar
    13    28    29   ar
    14    29    34    1
    15    34    35   ar
    16    35    36   ar
    17    36    37   ar
    18    37    38    1
    19    37    39   ar
    20    39    40   ar
    21    29    30   ar
    22    30    31    1
    23     1     4    1
    24     4     5    1
    25     4     6    1
    26     4     7    1
    27     9    10   am
    28    10    11    2
    29    10    12    1
    30    12    13   ar
    31    13    14   ar
    32    14    15   ar
    33    15    16   ar
    34    16    17   ar
    35    17    18    1
    36    30    26   ar
    37    17    12   ar
    38    40    34   ar
    39     2     3    1
    40    22    25    1
    41    31    32    1
    42    31    33    1
