@<TRIPOS>MOLECULE
*****
 36 39 0 0 0
SMALL
GASTEIGER

@<TRIPOS>ATOM
      1 C          -1.8642  -18.1218   23.0214 C.3     1  UNL1        0.0214
      2 C          -2.3634  -17.1283   22.0145 C.3     1  UNL1        0.0745
      3 N          -3.3234  -16.0544   22.4328 N.am    1  UNL1       -0.2903
      4 C          -4.7420  -16.4062   22.7697 C.2     1  UNL1        0.3044
      5 O          -5.2007  -17.8320   22.6884 O.2     1  UNL1       -0.2525
      6 N          -5.7020  -15.3322   23.1880 N.am    1  UNL1       -0.2683
      7 H          -3.0223  -15.1185   22.4861 H       1  UNL1        0.1509
      8 H          -5.4010  -14.3964   23.2413 H       1  UNL1        0.1564
      9 C          -7.1207  -15.6840   23.5249 C.ar    1  UNL1        0.0517
     10 C          -7.5075  -15.9594   24.9478 C.ar    1  UNL1        0.0147
     11 C          -8.9261  -16.3112   25.2848 C.ar    1  UNL1        0.0014
     12 C          -9.9581  -16.3877   24.1989 C.ar    1  UNL1        0.0032
     13 C          -9.5714  -16.1124   22.7760 C.ar    1  UNL1        0.0386
     14 C          -8.1526  -15.7605   22.4390 C.ar    1  UNL1        0.0178
     15 C         -10.6033  -16.1888   21.6901 C.ar    1  UNL1        0.1839
     16 N         -10.3838  -15.8688   20.2411 N.ar    1  UNL1       -0.1081
     17 N         -11.6808  -16.0810   19.5180 N.ar    1  UNL1       -0.0227
     18 N         -12.7018  -16.5321   20.5200 N.ar    1  UNL1       -0.0429
     19 N         -12.0359  -16.5987   21.8624 N.ar    1  UNL1       -0.2113
     20 C         -12.6880  -17.0042   23.1509 C.3     1  UNL1        0.1573
     21 C          -1.9025  -17.2088   20.5892 C.3     1  UNL1        0.0369
     22 C          -2.8750  -17.5701   19.5058 C.3     1  UNL1        0.0738
     23 N          -3.8523  -18.6882   19.7175 N.3     1  UNL1       -0.2726
     24 C          -3.3568  -20.0654   20.0453 C.3     1  UNL1        0.0721
     25 C          -4.3342  -21.1834   20.2569 C.3     1  UNL1        0.0174
     26 C          -5.8070  -20.9241   20.1407 C.3     1  UNL1        0.0031
     27 C          -6.3025  -19.5468   19.8129 C.3     1  UNL1        0.0204
     28 C          -5.3252  -18.4289   19.6013 C.3     1  UNL1        0.0724
     29 C          -7.7754  -19.2875   19.6967 C.3     1  UNL1        0.0277
     30 C          -8.6713  -19.5080   20.8794 C.ar    1  UNL1       -0.0220
     31 C         -10.1455  -19.6987   20.6783 C.ar    1  UNL1       -0.0020
     32 C         -11.0415  -19.9191   21.8609 C.ar    1  UNL1        0.0293
     33 C         -10.4633  -19.9489   23.2447 C.ar    1  UNL1        0.1401
     34 F         -11.3593  -20.1693   24.4273 F       1  UNL1       -0.2042
     35 C          -8.9891  -19.7582   23.4458 C.ar    1  UNL1        0.0293
     36 C          -8.0931  -19.5377   22.2631 C.ar    1  UNL1       -0.0020
@<TRIPOS>BOND
     1     2     1    1
     2     2    21    1
     3    21    22    1
     4    22    23    1
     5    23    24    1
     6    24    25    1
     7    25    26    1
     8    26    27    1
     9    27    29    1
    10    29    30    1
    11    30    31   ar
    12    31    32   ar
    13    32    33   ar
    14    33    34    1
    15    33    35   ar
    16    35    36   ar
    17    27    28    1
    18     2     3    1
    19     3     4   am
    20     4     5    2
    21     4     6   am
    22     6     9    1
    23     9    10   ar
    24    10    11   ar
    25    11    12   ar
    26    12    13   ar
    27    13    15    1
    28    15    16   ar
    29    16    17   ar
    30    17    18   ar
    31    18    19   ar
    32    19    20    1
    33    13    14   ar
    34    28    23    1
    35    14     9   ar
    36    36    30   ar
    37    19    15   ar
    38     3     7    1
    39     6     8    1
@<TRIPOS>MOLECULE
*****
 36 39 0 0 0
SMALL
GASTEIGER

@<TRIPOS>ATOM
      1 C          -5.4545  -15.1536   25.6438 C.3     1  UNL1        0.0214
      2 C          -5.3262  -15.7239   24.2625 C.3     1  UNL1        0.0745
      3 N          -6.1668  -15.1801   23.1455 N.am    1  UNL1       -0.2903
      4 C          -7.5416  -15.7298   22.9054 C.2     1  UNL1        0.3044
      5 O          -8.0758  -16.8233   23.7823 O.2     1  UNL1       -0.2525
      6 N          -8.3822  -15.1861   21.7884 N.am    1  UNL1       -0.2683
      7 H          -5.8162  -14.4625   22.5699 H       1  UNL1        0.1509
      8 H          -8.0316  -14.4684   21.2128 H       1  UNL1        0.1564
      9 C          -9.7570  -15.7358   21.5483 C.ar    1  UNL1        0.0517
     10 C         -10.4019  -15.5819   20.2027 C.ar    1  UNL1        0.0147
     11 C         -11.7767  -16.1316   19.9626 C.ar    1  UNL1        0.0014
     12 C         -12.5067  -16.8352   21.0681 C.ar    1  UNL1        0.0032
     13 C         -11.8620  -16.9890   22.4136 C.ar    1  UNL1        0.0386
     14 C         -10.4871  -16.4393   22.6538 C.ar    1  UNL1        0.0178
     15 C         -12.5920  -17.6926   23.5191 C.ar    1  UNL1        0.1839
     16 N         -14.0639  -17.6093   23.7965 N.ar    1  UNL1       -0.1081
     17 N         -14.3599  -18.4682   24.9901 N.ar    1  UNL1       -0.0227
     18 N         -13.0711  -19.0823   25.4504 N.ar    1  UNL1       -0.0429
     19 N         -11.9785  -18.6030   24.5412 N.ar    1  UNL1       -0.2113
     20 C         -10.5272  -18.9696   24.6374 C.3     1  UNL1        0.1573
     21 C          -4.3571  -16.8380   23.9980 C.3     1  UNL1        0.0369
     22 C          -3.3503  -16.7099   22.8936 C.3     1  UNL1        0.0738
     23 N          -3.3855  -17.6592   21.7327 N.3     1  UNL1       -0.2726
     24 C          -2.3623  -17.5481   20.6416 C.3     1  UNL1        0.0721
     25 C          -2.3975  -18.4974   19.4808 C.3     1  UNL1        0.0174
     26 C          -3.4561  -19.5579   19.4112 C.3     1  UNL1        0.0031
     27 C          -4.4793  -19.6691   20.5023 C.3     1  UNL1        0.0204
     28 C          -4.4440  -18.7197   21.6630 C.3     1  UNL1        0.0724
     29 C          -5.5378  -20.7296   20.4326 C.3     1  UNL1        0.0277
     30 C          -6.9666  -20.3478   20.1823 C.ar    1  UNL1       -0.0220
     31 C          -7.7482  -19.6307   21.2430 C.ar    1  UNL1       -0.0020
     32 C          -9.1770  -19.2489   20.9928 C.ar    1  UNL1        0.0293
     33 C          -9.8244  -19.5842   19.6819 C.ar    1  UNL1        0.1401
     34 F         -11.2533  -19.2024   19.4317 F       1  UNL1       -0.2042
     35 C          -9.0429  -20.3013   18.6212 C.ar    1  UNL1        0.0293
     36 C          -7.6140  -20.6832   18.8714 C.ar    1  UNL1       -0.0020
@<TRIPOS>BOND
     1     2     1    1
     2     2    21    1
     3    21    22    1
     4    22    23    1
     5    23    24    1
     6    24    25    1
     7    25    26    1
     8    26    27    1
     9    27    29    1
    10    29    30    1
    11    30    31   ar
    12    31    32   ar
    13    32    33   ar
    14    33    34    1
    15    33    35   ar
    16    35    36   ar
    17    27    28    1
    18     2     3    1
    19     3     4   am
    20     4     5    2
    21     4     6   am
    22     6     9    1
    23     9    10   ar
    24    10    11   ar
    25    11    12   ar
    26    12    13   ar
    27    13    15    1
    28    15    16   ar
    29    16    17   ar
    30    17    18   ar
    31    18    19   ar
    32    19    20    1
    33    13    14   ar
    34    28    23    1
    35    14     9   ar
    36    36    30   ar
    37    19    15   ar
    38     3     7    1
    39     6     8    1
@<TRIPOS>MOLECULE
*****
 36 39 0 0 0
SMALL
GASTEIGER

@<TRIPOS>ATOM
      1 C          -1.1091  -16.6097   20.7922 C.3     1  UNL1        0.0214
      2 C          -2.0996  -16.8451   21.8937 C.3     1  UNL1        0.0745
      3 N          -3.1394  -15.8087   22.2014 N.am    1  UNL1       -0.2903
      4 C          -4.2617  -16.1290   23.1437 C.2     1  UNL1        0.3044
      5 O          -4.3441  -17.4857   23.7782 O.2     1  UNL1       -0.2525
      6 N          -5.3015  -15.0927   23.4514 N.am    1  UNL1       -0.2683
      7 H          -3.0853  -14.9183   21.7849 H       1  UNL1        0.1509
      8 H          -5.2474  -14.2023   23.0349 H       1  UNL1        0.1564
      9 C          -6.4238  -15.4130   24.3937 C.ar    1  UNL1        0.0517
     10 C          -6.2481  -15.2023   25.8684 C.ar    1  UNL1        0.0147
     11 C          -7.3704  -15.5226   26.8107 C.ar    1  UNL1        0.0014
     12 C          -8.6683  -16.0536   26.2783 C.ar    1  UNL1        0.0032
     13 C          -8.8440  -16.2642   24.8036 C.ar    1  UNL1        0.0386
     14 C          -7.7217  -15.9439   23.8613 C.ar    1  UNL1        0.0178
     15 C         -10.1419  -16.7952   24.2712 C.ar    1  UNL1        0.1839
     16 N         -11.1519  -16.0209   23.4771 N.ar    1  UNL1       -0.1081
     17 N         -12.2919  -16.9409   23.1545 N.ar    1  UNL1       -0.0227
     18 N         -11.9866  -18.2837   23.7493 N.ar    1  UNL1       -0.0429
     19 N         -10.6578  -18.1936   24.4394 N.ar    1  UNL1       -0.2113
     20 C          -9.9664  -19.3066   25.1696 C.3     1  UNL1        0.1573
     21 C          -2.0502  -18.1169   22.6876 C.3     1  UNL1        0.0369
     22 C          -2.1509  -19.4409   21.9899 C.3     1  UNL1        0.0738
     23 N          -3.4599  -19.8834   21.4060 N.3     1  UNL1       -0.2726
     24 C          -3.4985  -20.5199   20.0483 C.3     1  UNL1        0.0721
     25 C          -4.8074  -20.9624   19.4645 C.3     1  UNL1        0.0174
     26 C          -6.0777  -20.7683   20.2382 C.3     1  UNL1        0.0031
     27 C          -6.0390  -20.1317   21.5959 C.3     1  UNL1        0.0204
     28 C          -4.7301  -19.6892   22.1797 C.3     1  UNL1        0.0724
     29 C          -7.3093  -19.9376   22.3697 C.3     1  UNL1        0.0277
     30 C          -8.5074  -19.3283   21.7039 C.ar    1  UNL1       -0.0220
     31 C          -9.7379  -20.1545   21.4723 C.ar    1  UNL1       -0.0020
     32 C         -10.9360  -19.5452   20.8065 C.ar    1  UNL1        0.0293
     33 C         -10.9037  -18.1098   20.3723 C.ar    1  UNL1        0.1401
     34 F         -12.1019  -17.5005   19.7064 F       1  UNL1       -0.2042
     35 C          -9.6733  -17.2836   20.6038 C.ar    1  UNL1        0.0293
     36 C          -8.4751  -17.8929   21.2696 C.ar    1  UNL1       -0.0020
@<TRIPOS>BOND
     1     2     1    1
     2     2    21    1
     3    21    22    1
     4    22    23    1
     5    23    24    1
     6    24    25    1
     7    25    26    1
     8    26    27    1
     9    27    29    1
    10    29    30    1
    11    30    31   ar
    12    31    32   ar
    13    32    33   ar
    14    33    34    1
    15    33    35   ar
    16    35    36   ar
    17    27    28    1
    18     2     3    1
    19     3     4   am
    20     4     5    2
    21     4     6   am
    22     6     9    1
    23     9    10   ar
    24    10    11   ar
    25    11    12   ar
    26    12    13   ar
    27    13    15    1
    28    15    16   ar
    29    16    17   ar
    30    17    18   ar
    31    18    19   ar
    32    19    20    1
    33    13    14   ar
    34    28    23    1
    35    14     9   ar
    36    36    30   ar
    37    19    15   ar
    38     3     7    1
    39     6     8    1
@<TRIPOS>MOLECULE
*****
 36 39 0 0 0
SMALL
GASTEIGER

@<TRIPOS>ATOM
      1 C          -1.1743  -18.1312   21.9072 C.3     1  UNL1        0.0214
      2 C          -2.2939  -17.4283   21.1984 C.3     1  UNL1        0.0745
      3 N          -2.9749  -16.2593   21.8462 N.am    1  UNL1       -0.2903
      4 C          -4.0047  -16.4878   22.9126 C.2     1  UNL1        0.3044
      5 O          -4.3536  -17.8853   23.3312 O.2     1  UNL1       -0.2525
      6 N          -4.6857  -15.3187   23.5604 N.am    1  UNL1       -0.2683
      7 H          -2.7459  -15.3420   21.5715 H       1  UNL1        0.1509
      8 H          -4.4568  -14.4015   23.2856 H       1  UNL1        0.1564
      9 C          -5.7156  -15.5472   24.6267 C.ar    1  UNL1        0.0517
     10 C          -5.5125  -14.9783   25.9998 C.ar    1  UNL1        0.0147
     11 C          -6.5424  -15.2068   27.0661 C.ar    1  UNL1        0.0014
     12 C          -7.7753  -16.0042   26.7595 C.ar    1  UNL1        0.0032
     13 C          -7.9784  -16.5730   25.3866 C.ar    1  UNL1        0.0386
     14 C          -6.9486  -16.3446   24.3201 C.ar    1  UNL1        0.0178
     15 C          -9.2114  -17.3704   25.0800 C.ar    1  UNL1        0.1839
     16 N          -9.5865  -18.6858   25.6958 N.ar    1  UNL1       -0.1081
     17 N         -10.8927  -19.1207   25.1001 N.ar    1  UNL1       -0.0227
     18 N         -11.3248  -18.0742   24.1162 N.ar    1  UNL1       -0.0429
     19 N         -10.2857  -16.9924   24.1038 N.ar    1  UNL1       -0.2113
     20 C         -10.3158  -15.7507   23.2628 C.3     1  UNL1        0.1573
     21 C          -2.7325  -17.8944   19.8418 C.3     1  UNL1        0.0369
     22 C          -3.3518  -19.2508   19.6787 C.3     1  UNL1        0.0738
     23 N          -4.7101  -19.5288   20.2512 N.3     1  UNL1       -0.2726
     24 C          -4.8412  -20.0567   21.6491 C.3     1  UNL1        0.0721
     25 C          -6.1994  -20.3348   22.2215 C.3     1  UNL1        0.0174
     26 C          -7.4267  -20.0849   21.3961 C.3     1  UNL1        0.0031
     27 C          -7.2957  -19.5570   19.9982 C.3     1  UNL1        0.0204
     28 C          -5.9374  -19.2790   19.4258 C.3     1  UNL1        0.0724
     29 C          -8.5230  -19.3071   19.1728 C.3     1  UNL1        0.0277
     30 C          -9.8167  -18.9485   19.8419 C.ar    1  UNL1       -0.0220
     31 C         -10.3767  -17.5644   19.6985 C.ar    1  UNL1       -0.0020
     32 C         -11.6704  -17.2058   20.3676 C.ar    1  UNL1        0.0293
     33 C         -12.4041  -18.2313   21.1801 C.ar    1  UNL1        0.1401
     34 F         -13.6979  -17.8726   21.8492 F       1  UNL1       -0.2042
     35 C         -11.8441  -19.6154   21.3234 C.ar    1  UNL1        0.0293
     36 C         -10.5503  -19.9740   20.6543 C.ar    1  UNL1       -0.0020
@<TRIPOS>BOND
     1     2     1    1
     2     2    21    1
     3    21    22    1
     4    22    23    1
     5    23    24    1
     6    24    25    1
     7    25    26    1
     8    26    27    1
     9    27    29    1
    10    29    30    1
    11    30    31   ar
    12    31    32   ar
    13    32    33   ar
    14    33    34    1
    15    33    35   ar
    16    35    36   ar
    17    27    28    1
    18     2     3    1
    19     3     4   am
    20     4     5    2
    21     4     6   am
    22     6     9    1
    23     9    10   ar
    24    10    11   ar
    25    11    12   ar
    26    12    13   ar
    27    13    15    1
    28    15    16   ar
    29    16    17   ar
    30    17    18   ar
    31    18    19   ar
    32    19    20    1
    33    13    14   ar
    34    28    23    1
    35    14     9   ar
    36    36    30   ar
    37    19    15   ar
    38     3     7    1
    39     6     8    1
@<TRIPOS>MOLECULE
*****
 36 39 0 0 0
SMALL
GASTEIGER

@<TRIPOS>ATOM
      1 C          -2.8507  -15.6601   22.0838 C.3     1  UNL1        0.0214
      2 C          -3.2456  -16.4188   23.3160 C.3     1  UNL1        0.0745
      3 N          -4.4406  -15.9860   24.1126 N.am    1  UNL1       -0.2903
      4 C          -5.8088  -16.4726   23.7367 C.2     1  UNL1        0.3044
      5 O          -5.9819  -17.3920   22.5643 O.2     1  UNL1       -0.2525
      6 N          -7.0038  -16.0397   24.5333 N.am    1  UNL1       -0.2683
      7 H          -4.3270  -15.3825   24.8821 H       1  UNL1        0.1509
      8 H          -6.8902  -15.4363   25.3028 H       1  UNL1        0.1564
      9 C          -8.3720  -16.5263   24.1574 C.ar    1  UNL1        0.0517
     10 C          -9.1254  -17.4349   25.0831 C.ar    1  UNL1        0.0147
     11 C         -10.4936  -17.9215   24.7073 C.ar    1  UNL1        0.0014
     12 C         -11.1084  -17.4995   23.4058 C.ar    1  UNL1        0.0032
     13 C         -10.3550  -16.5910   22.4801 C.ar    1  UNL1        0.0386
     14 C          -8.9868  -16.1043   22.8559 C.ar    1  UNL1        0.0178
     15 C         -10.9699  -16.1690   21.1786 C.ar    1  UNL1        0.1839
     16 N         -10.3110  -15.3317   20.1227 N.ar    1  UNL1       -0.1081
     17 N         -11.2854  -15.1554   18.9960 N.ar    1  UNL1       -0.0227
     18 N         -12.5465  -15.8838   19.3555 N.ar    1  UNL1       -0.0429
     19 N         -12.3514  -16.5101   20.7044 N.ar    1  UNL1       -0.2113
     20 C         -13.3608  -17.3332   21.4486 C.3     1  UNL1        0.1573
     21 C          -2.4454  -17.6105   23.7517 C.3     1  UNL1        0.0369
     22 C          -1.7152  -18.4362   22.7344 C.3     1  UNL1        0.0738
     23 N          -2.4231  -18.8981   21.4952 N.3     1  UNL1       -0.2726
     24 C          -1.9262  -18.4736   20.1451 C.3     1  UNL1        0.0721
     25 C          -2.6342  -18.9356   18.9061 C.3     1  UNL1        0.0174
     26 C          -3.8391  -19.8221   19.0171 C.3     1  UNL1        0.0031
     27 C          -4.3360  -20.2466   20.3672 C.3     1  UNL1        0.0204
     28 C          -3.6281  -19.7846   21.6062 C.3     1  UNL1        0.0724
     29 C          -5.5409  -21.1330   20.4782 C.3     1  UNL1        0.0277
     30 C          -6.9054  -20.5846   20.1825 C.ar    1  UNL1       -0.0220
     31 C          -7.6201  -19.7575   21.2097 C.ar    1  UNL1       -0.0020
     32 C          -8.9845  -19.2090   20.9140 C.ar    1  UNL1        0.0293
     33 C          -9.6343  -19.4877   19.5911 C.ar    1  UNL1        0.1401
     34 F         -10.9988  -18.9392   19.2954 F       1  UNL1       -0.2042
     35 C          -8.9197  -20.3147   18.5639 C.ar    1  UNL1        0.0293
     36 C          -7.5552  -20.8632   18.8596 C.ar    1  UNL1       -0.0020
@<TRIPOS>BOND
     1     2     1    1
     2     2    21    1
     3    21    22    1
     4    22    23    1
     5    23    24    1
     6    24    25    1
     7    25    26    1
     8    26    27    1
     9    27    29    1
    10    29    30    1
    11    30    31   ar
    12    31    32   ar
    13    32    33   ar
    14    33    34    1
    15    33    35   ar
    16    35    36   ar
    17    27    28    1
    18     2     3    1
    19     3     4   am
    20     4     5    2
    21     4     6   am
    22     6     9    1
    23     9    10   ar
    24    10    11   ar
    25    11    12   ar
    26    12    13   ar
    27    13    15    1
    28    15    16   ar
    29    16    17   ar
    30    17    18   ar
    31    18    19   ar
    32    19    20    1
    33    13    14   ar
    34    28    23    1
    35    14     9   ar
    36    36    30   ar
    37    19    15   ar
    38     3     7    1
    39     6     8    1
@<TRIPOS>MOLECULE
*****
 36 39 0 0 0
SMALL
GASTEIGER

@<TRIPOS>ATOM
      1 C          -6.2803  -14.9688   25.2784 C.3     1  UNL1        0.0214
      2 C          -7.5036  -15.8129   25.0765 C.3     1  UNL1        0.0745
      3 N          -7.7996  -16.3935   23.7255 N.am    1  UNL1       -0.2903
      4 C          -6.8277  -17.3410   23.0870 C.2     1  UNL1        0.3044
      5 O          -5.5598  -17.7079   23.7996 O.2     1  UNL1       -0.2525
      6 N          -7.1237  -17.9216   21.7360 N.am    1  UNL1       -0.2683
      7 H          -8.6318  -16.1527   23.2578 H       1  UNL1        0.1509
      8 H          -7.9559  -17.6808   21.2683 H       1  UNL1        0.1564
      9 C          -6.1518  -18.8691   21.0976 C.ar    1  UNL1        0.0517
     10 C          -6.5839  -20.2613   20.7438 C.ar    1  UNL1        0.0147
     11 C          -5.6120  -21.2088   20.1054 C.ar    1  UNL1        0.0014
     12 C          -4.2080  -20.7642   19.8206 C.ar    1  UNL1        0.0032
     13 C          -3.7759  -19.3720   20.1743 C.ar    1  UNL1        0.0386
     14 C          -4.7478  -18.4244   20.8128 C.ar    1  UNL1        0.0178
     15 C          -2.3719  -18.9274   19.8896 C.ar    1  UNL1        0.1839
     16 N          -1.1278  -19.4748   20.5243 N.ar    1  UNL1       -0.1081
     17 N           0.0475  -18.7429   19.9471 N.ar    1  UNL1       -0.0227
     18 N          -0.4702  -17.7432   18.9558 N.ar    1  UNL1       -0.0429
     19 N          -1.9654  -17.8572   18.9203 N.ar    1  UNL1       -0.2113
     20 C          -2.8916  -17.0439   18.0655 C.3     1  UNL1        0.1573
     21 C          -8.4310  -16.0766   26.2257 C.3     1  UNL1        0.0369
     22 C          -8.9035  -17.4729   26.5030 C.3     1  UNL1        0.0738
     23 N          -9.7045  -18.2122   25.4725 N.3     1  UNL1       -0.2726
     24 C          -9.5451  -19.6960   25.3215 C.3     1  UNL1        0.0721
     25 C         -10.3460  -20.4353   24.2910 C.3     1  UNL1        0.0174
     26 C         -11.3062  -19.6908   23.4114 C.3     1  UNL1        0.0031
     27 C         -11.4656  -18.2069   23.5624 C.3     1  UNL1        0.0204
     28 C         -10.6647  -17.4677   24.5929 C.3     1  UNL1        0.0724
     29 C         -12.4258  -17.4624   22.6829 C.3     1  UNL1        0.0277
     30 C         -11.9164  -16.6863   21.5047 C.ar    1  UNL1       -0.0220
     31 C         -10.5634  -16.0409   21.5599 C.ar    1  UNL1       -0.0020
     32 C         -10.0541  -15.2647   20.3817 C.ar    1  UNL1        0.0293
     33 C         -10.8976  -15.1340   19.1483 C.ar    1  UNL1        0.1401
     34 F         -10.3882  -14.3578   17.9701 F       1  UNL1       -0.2042
     35 C         -12.2505  -15.7793   19.0931 C.ar    1  UNL1        0.0293
     36 C         -12.7600  -16.5555   20.2713 C.ar    1  UNL1       -0.0020
@<TRIPOS>BOND
     1     2     1    1
     2     2    21    1
     3    21    22    1
     4    22    23    1
     5    23    24    1
     6    24    25    1
     7    25    26    1
     8    26    27    1
     9    27    29    1
    10    29    30    1
    11    30    31   ar
    12    31    32   ar
    13    32    33   ar
    14    33    34    1
    15    33    35   ar
    16    35    36   ar
    17    27    28    1
    18     2     3    1
    19     3     4   am
    20     4     5    2
    21     4     6   am
    22     6     9    1
    23     9    10   ar
    24    10    11   ar
    25    11    12   ar
    26    12    13   ar
    27    13    15    1
    28    15    16   ar
    29    16    17   ar
    30    17    18   ar
    31    18    19   ar
    32    19    20    1
    33    13    14   ar
    34    28    23    1
    35    14     9   ar
    36    36    30   ar
    37    19    15   ar
    38     3     7    1
    39     6     8    1
@<TRIPOS>MOLECULE
*****
 36 39 0 0 0
SMALL
GASTEIGER

@<TRIPOS>ATOM
      1 C           9.2956   -5.1485   31.3677 C.3     1  UNL1        0.0214
      2 C           7.8835   -5.4803   30.9858 C.3     1  UNL1        0.0745
      3 N           6.7563   -5.1453   31.9170 N.am    1  UNL1       -0.2903
      4 C           6.2593   -3.7335   32.0158 C.2     1  UNL1        0.3044
      5 O           6.8897   -2.6566   31.1834 O.2     1  UNL1       -0.2525
      6 N           5.1321   -3.3986   32.9470 N.am    1  UNL1       -0.2683
      7 H           6.3426   -5.8521   32.4633 H       1  UNL1        0.1509
      8 H           4.7184   -4.1054   33.4933 H       1  UNL1        0.1564
      9 C           4.6352   -1.9868   33.0458 C.ar    1  UNL1        0.0517
     10 C           4.8874   -1.1882   34.2903 C.ar    1  UNL1        0.0147
     11 C           4.3905    0.2236   34.3891 C.ar    1  UNL1        0.0014
     12 C           3.6413    0.8369   33.2434 C.ar    1  UNL1        0.0032
     13 C           3.3891    0.0385   31.9989 C.ar    1  UNL1        0.0386
     14 C           3.8860   -1.3734   31.9001 C.ar    1  UNL1        0.0178
     15 C           2.6400    0.6518   30.8532 C.ar    1  UNL1        0.1839
     16 N           1.1486    0.6983   30.6990 N.ar    1  UNL1       -0.1081
     17 N           0.8376    1.4016   29.4110 N.ar    1  UNL1       -0.0227
     18 N           2.1367    1.7897   28.7693 N.ar    1  UNL1       -0.0429
     19 N           3.2506    1.3263   29.6606 N.ar    1  UNL1       -0.2113
     20 C           4.7176    1.5058   29.4044 C.3     1  UNL1        0.1573
     21 C           7.5986   -6.1470   29.6726 C.3     1  UNL1        0.0369
     22 C           7.1274   -5.3325   28.5045 C.3     1  UNL1        0.0738
     23 N           7.4335   -5.7799   27.1059 N.3     1  UNL1       -0.2726
     24 C           7.6147   -7.2388   26.8079 C.3     1  UNL1        0.0721
     25 C           7.9208   -7.6862   25.4093 C.3     1  UNL1        0.0174
     26 C           8.0456   -6.6747   24.3087 C.3     1  UNL1        0.0031
     27 C           7.8644   -5.2159   24.6067 C.3     1  UNL1        0.0204
     28 C           7.5583   -4.7685   26.0053 C.3     1  UNL1        0.0724
     29 C           7.9892   -4.2044   23.5061 C.3     1  UNL1        0.0277
     30 C           6.8444   -3.9757   22.5643 C.ar    1  UNL1       -0.0220
     31 C           7.0731   -4.0148   21.0823 C.ar    1  UNL1       -0.0020
     32 C           5.9282   -3.7861   20.1405 C.ar    1  UNL1        0.0293
     33 C           4.5547   -3.5182   20.6806 C.ar    1  UNL1        0.1401
     34 F           3.4099   -3.2894   19.7387 F       1  UNL1       -0.2042
     35 C           4.3261   -3.4790   22.1625 C.ar    1  UNL1        0.0293
     36 C           5.4709   -3.7078   23.1044 C.ar    1  UNL1       -0.0020
@<TRIPOS>BOND
     1     2     1    1
     2     2    21    1
     3    21    22    1
     4    22    23    1
     5    23    24    1
     6    24    25    1
     7    25    26    1
     8    26    27    1
     9    27    29    1
    10    29    30    1
    11    30    31   ar
    12    31    32   ar
    13    32    33   ar
    14    33    34    1
    15    33    35   ar
    16    35    36   ar
    17    27    28    1
    18     2     3    1
    19     3     4   am
    20     4     5    2
    21     4     6   am
    22     6     9    1
    23     9    10   ar
    24    10    11   ar
    25    11    12   ar
    26    12    13   ar
    27    13    15    1
    28    15    16   ar
    29    16    17   ar
    30    17    18   ar
    31    18    19   ar
    32    19    20    1
    33    13    14   ar
    34    28    23    1
    35    14     9   ar
    36    36    30   ar
    37    19    15   ar
    38     3     7    1
    39     6     8    1
@<TRIPOS>MOLECULE
*****
 36 39 0 0 0
SMALL
GASTEIGER

@<TRIPOS>ATOM
      1 C           7.0197   -1.5790   28.3838 C.3     1  UNL1        0.0214
      2 C           5.6997   -1.6464   27.6745 C.3     1  UNL1        0.0745
      3 N           5.4198   -2.7653   26.7155 N.am    1  UNL1       -0.2903
      4 C           6.2423   -2.9084   25.4694 C.2     1  UNL1        0.3044
      5 O           7.3448   -1.9327   25.1823 O.2     1  UNL1       -0.2525
      6 N           5.9624   -4.0274   24.5104 N.am    1  UNL1       -0.2683
      7 H           4.6962   -3.4057   26.9040 H       1  UNL1        0.1509
      8 H           5.2389   -4.6678   24.6989 H       1  UNL1        0.1564
      9 C           6.7850   -4.1705   23.2643 C.ar    1  UNL1        0.0517
     10 C           8.0383   -4.9945   23.2834 C.ar    1  UNL1        0.0147
     11 C           8.8609   -5.1377   22.0373 C.ar    1  UNL1        0.0014
     12 C           8.4301   -4.4569   20.7720 C.ar    1  UNL1        0.0032
     13 C           7.1769   -3.6330   20.7528 C.ar    1  UNL1        0.0386
     14 C           6.3543   -3.4898   21.9990 C.ar    1  UNL1        0.0178
     15 C           6.7461   -2.9522   19.4875 C.ar    1  UNL1        0.1839
     16 N           7.5296   -1.9211   18.7303 N.ar    1  UNL1       -0.1081
     17 N           6.7239   -1.5147   17.5320 N.ar    1  UNL1       -0.0227
     18 N           5.4427   -2.2945   17.5486 N.ar    1  UNL1       -0.0429
     19 N           5.4564   -3.1829   18.7572 N.ar    1  UNL1       -0.2113
     20 C           4.3709   -4.1349   19.1639 C.3     1  UNL1        0.1573
     21 C           4.6595   -0.5948   27.9243 C.3     1  UNL1        0.0369
     22 C           3.6886   -0.2282   26.8413 C.3     1  UNL1        0.0738
     23 N           4.1684   -0.0560   25.4305 N.3     1  UNL1       -0.2726
     24 C           5.3533    0.8175   25.1427 C.3     1  UNL1        0.0721
     25 C           5.8331    0.9896   23.7320 C.3     1  UNL1        0.0174
     26 C           5.1279    0.2883   22.6091 C.3     1  UNL1        0.0031
     27 C           3.9430   -0.5852   22.8970 C.3     1  UNL1        0.0204
     28 C           3.4632   -0.7573   24.3077 C.3     1  UNL1        0.0724
     29 C           3.2378   -1.2866   21.7741 C.3     1  UNL1        0.0277
     30 C           2.4788   -0.4924   20.7528 C.ar    1  UNL1       -0.0220
     31 C           3.0737   -0.2504   19.3972 C.ar    1  UNL1       -0.0020
     32 C           2.3146    0.5438   18.3760 C.ar    1  UNL1        0.0293
     33 C           0.9606    1.0961   18.7102 C.ar    1  UNL1        0.1401
     34 F           0.2016    1.8903   17.6889 F       1  UNL1       -0.2042
     35 C           0.3657    0.8541   20.0657 C.ar    1  UNL1        0.0293
     36 C           1.1248    0.0599   21.0871 C.ar    1  UNL1       -0.0020
@<TRIPOS>BOND
     1     2     1    1
     2     2    21    1
     3    21    22    1
     4    22    23    1
     5    23    24    1
     6    24    25    1
     7    25    26    1
     8    26    27    1
     9    27    29    1
    10    29    30    1
    11    30    31   ar
    12    31    32   ar
    13    32    33   ar
    14    33    34    1
    15    33    35   ar
    16    35    36   ar
    17    27    28    1
    18     2     3    1
    19     3     4   am
    20     4     5    2
    21     4     6   am
    22     6     9    1
    23     9    10   ar
    24    10    11   ar
    25    11    12   ar
    26    12    13   ar
    27    13    15    1
    28    15    16   ar
    29    16    17   ar
    30    17    18   ar
    31    18    19   ar
    32    19    20    1
    33    13    14   ar
    34    28    23    1
    35    14     9   ar
    36    36    30   ar
    37    19    15   ar
    38     3     7    1
    39     6     8    1
@<TRIPOS>MOLECULE
*****
 36 39 0 0 0
SMALL
GASTEIGER

@<TRIPOS>ATOM
      1 C           0.0320  -19.0623   19.4161 C.3     1  UNL1        0.0214
      2 C          -1.2614  -18.5115   19.9391 C.3     1  UNL1        0.0745
      3 N          -2.2728  -19.4308   20.5572 N.am    1  UNL1       -0.2903
      4 C          -3.7370  -19.1939   20.3339 C.2     1  UNL1        0.3044
      5 O          -4.1898  -18.0376   19.4925 O.2     1  UNL1       -0.2525
      6 N          -4.7483  -20.1132   20.9519 N.am    1  UNL1       -0.2683
      7 H          -1.9755  -20.1897   21.1094 H       1  UNL1        0.1509
      8 H          -4.4511  -20.8721   21.5041 H       1  UNL1        0.1564
      9 C          -6.2125  -19.8762   20.7286 C.ar    1  UNL1        0.0517
     10 C          -6.7548  -19.7951   19.3323 C.ar    1  UNL1        0.0147
     11 C          -8.2190  -19.5581   19.1090 C.ar    1  UNL1        0.0014
     12 C          -9.1410  -19.4023   20.2819 C.ar    1  UNL1        0.0032
     13 C          -8.5988  -19.4834   21.6780 C.ar    1  UNL1        0.0386
     14 C          -7.1345  -19.7204   21.9014 C.ar    1  UNL1        0.0178
     15 C          -9.5208  -19.3275   22.8509 C.ar    1  UNL1        0.1839
     16 N          -9.7384  -20.3344   23.9413 N.ar    1  UNL1       -0.1081
     17 N         -10.7392  -19.7666   24.9036 N.ar    1  UNL1       -0.0227
     18 N         -11.1401  -18.4088   24.4080 N.ar    1  UNL1       -0.0429
     19 N         -10.3871  -18.1374   23.1394 N.ar    1  UNL1       -0.2113
     20 C         -10.4836  -16.8943   22.3056 C.3     1  UNL1        0.1573
     21 C          -1.5435  -17.0413   19.8442 C.3     1  UNL1        0.0369
     22 C          -1.5554  -16.1982   21.0847 C.3     1  UNL1        0.0738
     23 N          -2.4797  -16.5407   22.2154 N.3     1  UNL1       -0.2726
     24 C          -2.2087  -17.7455   23.0670 C.3     1  UNL1        0.0721
     25 C          -3.1330  -18.0879   24.1976 C.3     1  UNL1        0.0174
     26 C          -4.3282  -17.2257   24.4767 C.3     1  UNL1        0.0031
     27 C          -4.5992  -16.0209   23.6252 C.3     1  UNL1        0.0204
     28 C          -3.6750  -15.6785   22.4946 C.3     1  UNL1        0.0724
     29 C          -5.7944  -15.1587   23.9043 C.3     1  UNL1        0.0277
     30 C          -6.6635  -15.4435   25.0932 C.ar    1  UNL1       -0.0220
     31 C          -8.0412  -16.0039   24.8982 C.ar    1  UNL1       -0.0020
     32 C          -8.9103  -16.2887   26.0870 C.ar    1  UNL1        0.0293
     33 C          -8.4018  -16.0132   27.4711 C.ar    1  UNL1        0.1401
     34 F          -9.2710  -16.2981   28.6600 F       1  UNL1       -0.2042
     35 C          -7.0242  -15.4528   27.6662 C.ar    1  UNL1        0.0293
     36 C          -6.1550  -15.1679   26.4772 C.ar    1  UNL1       -0.0020
@<TRIPOS>BOND
     1     2     1    1
     2     2    21    1
     3    21    22    1
     4    22    23    1
     5    23    24    1
     6    24    25    1
     7    25    26    1
     8    26    27    1
     9    27    29    1
    10    29    30    1
    11    30    31   ar
    12    31    32   ar
    13    32    33   ar
    14    33    34    1
    15    33    35   ar
    16    35    36   ar
    17    27    28    1
    18     2     3    1
    19     3     4   am
    20     4     5    2
    21     4     6   am
    22     6     9    1
    23     9    10   ar
    24    10    11   ar
    25    11    12   ar
    26    12    13   ar
    27    13    15    1
    28    15    16   ar
    29    16    17   ar
    30    17    18   ar
    31    18    19   ar
    32    19    20    1
    33    13    14   ar
    34    28    23    1
    35    14     9   ar
    36    36    30   ar
    37    19    15   ar
    38     3     7    1
    39     6     8    1
