@<TRIPOS>MOLECULE
*****
 50 55 0 0 0
SMALL
GASTEIGER

@<TRIPOS>ATOM
      1 C           6.9502   -3.9147   23.7649 C.ar    1  UNL1        0.1090
      2 C           7.2916   -4.9198   24.8247 C.ar    1  UNL1        0.0405
      3 C           8.0623   -6.1556   24.4658 C.ar    1  UNL1        0.1596
      4 F           8.4038   -7.1607   25.5256 F       1  UNL1       -0.2025
      5 C           8.4914   -6.3863   23.0472 C.ar    1  UNL1        0.1316
      6 N           8.1499   -5.3812   21.9874 N.ar    1  UNL1       -0.2073
      7 C           7.3793   -4.1454   22.3463 C.ar    1  UNL1        0.2341
      8 N           4.6932   -2.7503   24.3132 N.am    1  UNL1       -0.3024
      9 C           6.1795   -2.6788   24.1238 C.2     1  UNL1        0.2504
     10 O           6.8951   -1.3715   24.2933 O.2     1  UNL1       -0.2700
     11 H           4.2235   -3.6083   24.2020 H       1  UNL1        0.1497
     12 C           2.3813    0.9573   25.3898 C.3     1  UNL1        0.0720
     13 C           3.1429    0.2148   26.4475 C.3     1  UNL1        0.0213
     14 C           3.9135   -1.0211   26.0886 C.3     1  UNL1        0.0213
     15 C           3.9226   -1.5144   24.6721 C.3     1  UNL1        0.0720
     16 C           3.1610   -0.7719   23.6144 C.3     1  UNL1        0.0213
     17 C           2.3904    0.4639   23.9733 C.3     1  UNL1        0.0213
     18 C           0.2556    2.0749   26.3811 C.2     1  UNL1        0.2653
     19 O          -0.3287    0.7208   26.6546 O.2     1  UNL1       -0.2684
     20 N           1.6106    2.1932   25.7487 N.am    1  UNL1       -0.3012
     21 H           1.9942    3.0819   25.5691 H       1  UNL1        0.1497
     22 C          -3.6759    5.5538   26.9480 C.3     1  UNL1        0.0518
     23 C          -2.3222    4.9098   27.0005 C.ar    1  UNL1        0.0577
     24 C          -1.9731    3.5473   26.4790 C.ar    1  UNL1        0.0398
     25 C          -0.5150    3.3108   26.7399 C.ar    1  UNL1        0.1551
     26 N           0.0370    4.5269   27.4227 N.ar    1  UNL1       -0.1649
     27 N          -1.0798    5.5152   27.5837 N.ar    1  UNL1       -0.2527
     28 C          -0.9731    6.8708   28.2168 C.3     1  UNL1        0.1533
     29 O           7.0378   -3.1403   21.2865 O.3     1  UNL1       -0.4360
     30 C           5.7569   -3.2682   20.5164 C.ar    1  UNL1        0.1472
     31 C           5.4056   -4.5684   19.8560 C.ar    1  UNL1        0.0376
     32 C           4.1247   -4.6964   19.0859 C.ar    1  UNL1        0.0031
     33 C           3.1952   -3.5241   18.9762 C.ar    1  UNL1        0.0002
     34 C           3.5466   -2.2240   19.6365 C.ar    1  UNL1        0.0028
     35 C           4.8275   -2.0960   20.4066 C.ar    1  UNL1        0.0375
     36 C           2.6172   -1.0517   19.5268 C.ar    1  UNL1       -0.0024
     37 C           1.4675   -0.9143   20.4805 C.ar    1  UNL1        0.0028
     38 C           0.5381    0.2579   20.3708 C.ar    1  UNL1        0.0366
     39 C           0.7583    1.2926   19.3075 C.ar    1  UNL1        0.1334
     40 O          -0.1712    2.4649   19.1977 O.3     1  UNL1       -0.5055
     41 C           1.9079    1.1552   18.3538 C.ar    1  UNL1        0.0337
     42 C           2.8374   -0.0170   18.4635 C.ar    1  UNL1       -0.0031
     43 H          -0.8893    2.5508   19.7935 H       1  UNL1        0.2922
     44 C           3.9870   -0.1544   17.5098 C.3     1  UNL1        0.0994
     45 N           5.2648    0.5892   17.7634 N.3     1  UNL1       -0.2646
     46 C           6.3540    0.5821   16.7321 C.3     1  UNL1        0.1049
     47 C           7.6318    1.3257   16.9856 C.3     1  UNL1        0.1595
     48 O           7.8204    2.0765   18.2704 O.3     1  UNL1       -0.3508
     49 C           6.7312    2.0836   19.3017 C.3     1  UNL1        0.1595
     50 C           5.4534    1.3400   19.0482 C.3     1  UNL1        0.1049
@<TRIPOS>BOND
     1    22    23    1
     2    23    24   ar
     3    24    25   ar
     4    25    18    1
     5    18    19    2
     6    18    20   am
     7    12    20    1
     8    12    13    1
     9    13    14    1
    10    14    15    1
    11    15     8    1
    12     8     9   am
    13     9    10    2
    14     9     1    1
    15     1     2   ar
    16     2     3   ar
    17     3     4    1
    18     3     5   ar
    19     5     6   ar
    20     6     7   ar
    21     7    29    1
    22    29    30    1
    23    30    31   ar
    24    31    32   ar
    25    32    33   ar
    26    33    34   ar
    27    34    36    1
    28    36    37   ar
    29    37    38   ar
    30    38    39   ar
    31    39    40    1
    32    39    41   ar
    33    41    42   ar
    34    42    44    1
    35    44    45    1
    36    45    46    1
    37    46    47    1
    38    47    48    1
    39    48    49    1
    40    49    50    1
    41    34    35   ar
    42    15    16    1
    43    16    17    1
    44    25    26   ar
    45    26    27   ar
    46    27    28    1
    47    27    23   ar
    48    17    12    1
    49     7     1   ar
    50    35    30   ar
    51    42    36   ar
    52    50    45    1
    53    20    21    1
    54     8    11    1
    55    40    43    1
@<TRIPOS>MOLECULE
*****
 50 55 0 0 0
SMALL
GASTEIGER

@<TRIPOS>ATOM
      1 C           3.9589    0.0819   24.5101 C.ar    1  UNL1        0.1090
      2 C           5.2761    0.1246   25.2264 C.ar    1  UNL1        0.0405
      3 C           6.3881   -0.7904   24.8066 C.ar    1  UNL1        0.1596
      4 F           7.7054   -0.7477   25.5229 F       1  UNL1       -0.2025
      5 C           6.1829   -1.7481   23.6705 C.ar    1  UNL1        0.1316
      6 N           4.8657   -1.7908   22.9543 N.ar    1  UNL1       -0.2073
      7 C           3.7537   -0.8759   23.3740 C.ar    1  UNL1        0.2341
      8 N           1.4237    0.5280   24.8617 N.am    1  UNL1       -0.3024
      9 C           2.8469    0.9969   24.9299 C.2     1  UNL1        0.2504
     10 O           3.1581    2.3807   25.4178 O.2     1  UNL1       -0.2700
     11 H           1.2195   -0.3803   24.5415 H       1  UNL1        0.1497
     12 C          -1.9124    3.2729   26.1211 C.3     1  UNL1        0.0720
     13 C          -1.3575    2.2726   27.0913 C.3     1  UNL1        0.0213
     14 C          -0.2455    1.3577   26.6716 C.3     1  UNL1        0.0213
     15 C           0.3116    1.4430   25.2815 C.3     1  UNL1        0.0720
     16 C          -0.2432    2.4433   24.3112 C.3     1  UNL1        0.0213
     17 C          -1.3552    3.3583   24.7310 C.3     1  UNL1        0.0213
     18 C          -4.3519    4.1231   25.8454 C.2     1  UNL1        0.2653
     19 O          -4.5674    3.1434   24.7303 O.2     1  UNL1       -0.2684
     20 N          -3.0245    4.1879   26.5408 N.am    1  UNL1       -0.3012
     21 H          -2.8831    4.8310   27.2728 H       1  UNL1        0.1497
     22 C          -8.6400    7.2017   25.7200 C.3     1  UNL1        0.0518
     23 C          -7.4350    6.4532   26.2075 C.ar    1  UNL1        0.0577
     24 C          -6.5379    5.5873   25.3735 C.ar    1  UNL1        0.0398
     25 C          -5.4640    5.0381   26.2652 C.ar    1  UNL1        0.1551
     26 N          -5.6973    5.5645   27.6503 N.ar    1  UNL1       -0.1649
     27 N          -6.9155    6.4391   27.6146 N.ar    1  UNL1       -0.2527
     28 C          -7.5097    7.1710   28.7812 C.3     1  UNL1        0.1533
     29 O           2.4364   -0.9186   22.6577 O.3     1  UNL1       -0.4360
     30 C           2.2962   -0.2813   21.3071 C.ar    1  UNL1        0.1472
     31 C           0.9328    0.0044   20.7506 C.ar    1  UNL1        0.0376
     32 C           0.7925    0.6417   19.3999 C.ar    1  UNL1        0.0031
     33 C           2.0156    0.9933   18.6059 C.ar    1  UNL1        0.0002
     34 C           3.3789    0.7076   19.1624 C.ar    1  UNL1        0.0028
     35 C           3.5192    0.0703   20.5131 C.ar    1  UNL1        0.0375
     36 C           4.6020    1.0592   18.3684 C.ar    1  UNL1       -0.0024
     37 C           5.1638    2.4486   18.4321 C.ar    1  UNL1        0.0028
     38 C           6.3868    2.8002   17.6381 C.ar    1  UNL1        0.0366
     39 C           7.0481    1.7625   16.7804 C.ar    1  UNL1        0.1334
     40 O           8.2712    2.1141   15.9863 O.3     1  UNL1       -0.5055
     41 C           6.4864    0.3731   16.7167 C.ar    1  UNL1        0.0337
     42 C           5.2633    0.0215   17.5107 C.ar    1  UNL1       -0.0031
     43 H           8.6221    2.9820   16.0261 H       1  UNL1        0.2922
     44 C           4.7016   -1.3679   17.4470 C.3     1  UNL1        0.0994
     45 N           5.0169   -2.3549   18.5316 N.3     1  UNL1       -0.2646
     46 C           6.3956   -2.4072   19.1204 C.3     1  UNL1        0.1049
     47 C           6.7110   -3.3941   20.2050 C.3     1  UNL1        0.1595
     48 O           5.6477   -4.3288   20.7009 O.3     1  UNL1       -0.3508
     49 C           4.2691   -4.2765   20.1122 C.3     1  UNL1        0.1595
     50 C           3.9537   -3.2895   19.0275 C.3     1  UNL1        0.1049
@<TRIPOS>BOND
     1    22    23    1
     2    23    24   ar
     3    24    25   ar
     4    25    18    1
     5    18    19    2
     6    18    20   am
     7    12    20    1
     8    12    13    1
     9    13    14    1
    10    14    15    1
    11    15     8    1
    12     8     9   am
    13     9    10    2
    14     9     1    1
    15     1     2   ar
    16     2     3   ar
    17     3     4    1
    18     3     5   ar
    19     5     6   ar
    20     6     7   ar
    21     7    29    1
    22    29    30    1
    23    30    31   ar
    24    31    32   ar
    25    32    33   ar
    26    33    34   ar
    27    34    36    1
    28    36    37   ar
    29    37    38   ar
    30    38    39   ar
    31    39    40    1
    32    39    41   ar
    33    41    42   ar
    34    42    44    1
    35    44    45    1
    36    45    46    1
    37    46    47    1
    38    47    48    1
    39    48    49    1
    40    49    50    1
    41    34    35   ar
    42    15    16    1
    43    16    17    1
    44    25    26   ar
    45    26    27   ar
    46    27    28    1
    47    27    23   ar
    48    17    12    1
    49     7     1   ar
    50    35    30   ar
    51    42    36   ar
    52    50    45    1
    53    20    21    1
    54     8    11    1
    55    40    43    1
@<TRIPOS>MOLECULE
*****
 50 55 0 0 0
SMALL
GASTEIGER

@<TRIPOS>ATOM
      1 C          -2.1894    4.5321   21.9637 C.ar    1  UNL1        0.1090
      2 C          -2.8731    5.8663   21.9141 C.ar    1  UNL1        0.0405
      3 C          -3.7560    6.2138   20.7524 C.ar    1  UNL1        0.1596
      4 F          -4.4398    7.5480   20.7027 F       1  UNL1       -0.2025
      5 C          -3.9552    5.2271   19.6402 C.ar    1  UNL1        0.1316
      6 N          -3.2715    3.8930   19.6898 N.ar    1  UNL1       -0.2073
      7 C          -2.3886    3.5455   20.8516 C.ar    1  UNL1        0.2341
      8 N          -1.7734    3.1970   24.1533 N.am    1  UNL1       -0.3024
      9 C          -1.3064    4.1846   23.1255 C.2     1  UNL1        0.2504
     10 O           0.0435    4.8247   23.2593 O.2     1  UNL1       -0.2700
     11 H          -2.6594    2.7769   24.0655 H       1  UNL1        0.1497
     12 C           0.8754    2.1545   27.6386 C.3     1  UNL1        0.0720
     13 C          -0.0592    3.3241   27.7304 C.3     1  UNL1        0.0213
     14 C          -0.9422    3.6716   26.5687 C.3     1  UNL1        0.0213
     15 C          -0.8904    2.8495   25.3151 C.3     1  UNL1        0.0720
     16 C           0.0442    1.6799   25.2233 C.3     1  UNL1        0.0213
     17 C           0.9271    1.3324   26.3850 C.3     1  UNL1        0.0213
     18 C           1.3536    0.7197   29.7511 C.2     1  UNL1        0.2653
     19 O           0.0659   -0.0201   29.5402 O.2     1  UNL1       -0.2684
     20 N           1.7584    1.8070   28.8004 N.am    1  UNL1       -0.3012
     21 H           2.6035    2.2925   28.9388 H       1  UNL1        0.1497
     22 C           4.7250   -1.8409   32.9068 C.3     1  UNL1        0.0518
     23 C           3.7862   -0.8049   32.3634 C.ar    1  UNL1        0.0577
     24 C           3.0644   -0.8712   31.0500 C.ar    1  UNL1        0.0398
     25 C           2.2366    0.3722   30.9129 C.ar    1  UNL1        0.1551
     26 N           2.4466    1.2069   32.1413 N.ar    1  UNL1       -0.1649
     27 N           3.4044    0.4795   33.0378 N.ar    1  UNL1       -0.2527
     28 C           3.8942    0.9532   34.3740 C.3     1  UNL1        0.1533
     29 O          -1.7048    2.2113   20.9012 O.3     1  UNL1       -0.4360
     30 C          -0.2123    2.1283   20.7761 C.ar    1  UNL1        0.1472
     31 C           0.5190    3.0802   19.8765 C.ar    1  UNL1        0.0376
     32 C           2.0115    2.9973   19.7514 C.ar    1  UNL1        0.0031
     33 C           2.7727    1.9625   20.5260 C.ar    1  UNL1        0.0002
     34 C           2.0414    1.0107   21.4255 C.ar    1  UNL1        0.0028
     35 C           0.5489    1.0936   21.5506 C.ar    1  UNL1        0.0375
     36 C           2.8026   -0.0241   22.2001 C.ar    1  UNL1       -0.0024
     37 C           3.0401    0.1631   23.6693 C.ar    1  UNL1        0.0028
     38 C           3.8013   -0.8716   24.4438 C.ar    1  UNL1        0.0366
     39 C           4.3249   -2.0936   23.7492 C.ar    1  UNL1        0.1334
     40 O           5.0861   -3.1284   24.5237 O.3     1  UNL1       -0.5055
     41 C           4.0873   -2.2808   22.2800 C.ar    1  UNL1        0.0337
     42 C           3.3262   -1.2461   21.5054 C.ar    1  UNL1       -0.0031
     43 H           5.2345   -3.0114   25.4415 H       1  UNL1        0.2922
     44 C           3.0886   -1.4333   20.0362 C.3     1  UNL1        0.0994
     45 N           4.2392   -1.3677   19.0761 N.3     1  UNL1       -0.2646
     46 C           4.4484   -0.1407   18.2389 C.3     1  UNL1        0.1049
     47 C           5.5989   -0.0750   17.2788 C.3     1  UNL1        0.1595
     48 O           6.5403   -1.2363   17.1558 O.3     1  UNL1       -0.3508
     49 C           6.3312   -2.4633   17.9929 C.3     1  UNL1        0.1595
     50 C           5.1806   -2.5290   18.9531 C.3     1  UNL1        0.1049
@<TRIPOS>BOND
     1    22    23    1
     2    23    24   ar
     3    24    25   ar
     4    25    18    1
     5    18    19    2
     6    18    20   am
     7    12    20    1
     8    12    13    1
     9    13    14    1
    10    14    15    1
    11    15     8    1
    12     8     9   am
    13     9    10    2
    14     9     1    1
    15     1     2   ar
    16     2     3   ar
    17     3     4    1
    18     3     5   ar
    19     5     6   ar
    20     6     7   ar
    21     7    29    1
    22    29    30    1
    23    30    31   ar
    24    31    32   ar
    25    32    33   ar
    26    33    34   ar
    27    34    36    1
    28    36    37   ar
    29    37    38   ar
    30    38    39   ar
    31    39    40    1
    32    39    41   ar
    33    41    42   ar
    34    42    44    1
    35    44    45    1
    36    45    46    1
    37    46    47    1
    38    47    48    1
    39    48    49    1
    40    49    50    1
    41    34    35   ar
    42    15    16    1
    43    16    17    1
    44    25    26   ar
    45    26    27   ar
    46    27    28    1
    47    27    23   ar
    48    17    12    1
    49     7     1   ar
    50    35    30   ar
    51    42    36   ar
    52    50    45    1
    53    20    21    1
    54     8    11    1
    55    40    43    1
@<TRIPOS>MOLECULE
*****
 50 55 0 0 0
SMALL
GASTEIGER

@<TRIPOS>ATOM
      1 C           2.3245   -0.3160   20.1617 C.ar    1  UNL1        0.1090
      2 C           2.4313   -0.2463   18.6671 C.ar    1  UNL1        0.0405
      3 C           3.5218   -0.9928   17.9576 C.ar    1  UNL1        0.1596
      4 F           3.6287   -0.9232   16.4630 F       1  UNL1       -0.2025
      5 C           4.5055   -1.8090   18.7426 C.ar    1  UNL1        0.1316
      6 N           4.3987   -1.8786   20.2372 N.ar    1  UNL1       -0.2073
      7 C           3.3082   -1.1321   20.9467 C.ar    1  UNL1        0.2341
      8 N           1.5774    1.4103   21.9539 N.am    1  UNL1       -0.3024
      9 C           1.2339    0.4306   20.8713 C.2     1  UNL1        0.2504
     10 O          -0.2001    0.1973   20.4982 O.2     1  UNL1       -0.2700
     11 H           2.5186    1.5633   22.1988 H       1  UNL1        0.1497
     12 C          -1.6942    3.6497   24.0827 C.3     1  UNL1        0.0720
     13 C          -0.8817    2.6277   24.8212 C.3     1  UNL1        0.0213
     14 C           0.2088    1.8812   24.1116 C.3     1  UNL1        0.0213
     15 C           0.4868    2.1568   22.6635 C.3     1  UNL1        0.0720
     16 C          -0.3257    3.1788   21.9251 C.3     1  UNL1        0.0213
     17 C          -1.4162    3.9252   22.6347 C.3     1  UNL1        0.0213
     18 C          -4.2218    4.0734   24.5087 C.2     1  UNL1        0.2653
     19 O          -4.5685    3.0041   23.5155 O.2     1  UNL1       -0.2684
     20 N          -2.7847    4.3962   24.7923 N.am    1  UNL1       -0.3012
     21 H          -2.5572    5.0980   25.4442 H       1  UNL1        0.1497
     22 C          -7.0081    6.5213   28.2672 C.3     1  UNL1        0.0518
     23 C          -6.5931    5.9451   26.9459 C.ar    1  UNL1        0.0577
     24 C          -5.3102    5.2205   26.6639 C.ar    1  UNL1        0.0398
     25 C          -5.3124    4.8199   25.2183 C.ar    1  UNL1        0.1551
     26 N          -6.5964    5.2969   24.6070 N.ar    1  UNL1       -0.1649
     27 N          -7.3879    5.9923   25.6747 N.ar    1  UNL1       -0.2527
     28 C          -8.7373    6.6239   25.5016 C.3     1  UNL1        0.1533
     29 O           3.2013   -1.2017   22.4413 O.3     1  UNL1       -0.4360
     30 C           4.4363   -1.1032   23.2869 C.ar    1  UNL1        0.1472
     31 C           5.4007    0.0264   23.0771 C.ar    1  UNL1        0.0376
     32 C           6.6358    0.1250   23.9227 C.ar    1  UNL1        0.0031
     33 C           6.9063   -0.9061   24.9781 C.ar    1  UNL1        0.0002
     34 C           5.9419   -2.0356   25.1878 C.ar    1  UNL1        0.0028
     35 C           4.7069   -2.1342   24.3422 C.ar    1  UNL1        0.0375
     36 C           6.2125   -3.0667   26.2432 C.ar    1  UNL1       -0.0024
     37 C           6.5802   -4.4661   25.8477 C.ar    1  UNL1        0.0028
     38 C           6.8508   -5.4972   26.9030 C.ar    1  UNL1        0.0366
     39 C           6.7537   -5.1288   28.3538 C.ar    1  UNL1        0.1334
     40 O           7.0243   -6.1598   29.4092 O.3     1  UNL1       -0.5055
     41 C           6.3861   -3.7293   28.7493 C.ar    1  UNL1        0.0337
     42 C           6.1155   -2.6983   27.6940 C.ar    1  UNL1       -0.0031
     43 H           7.2540   -7.0340   29.1622 H       1  UNL1        0.2922
     44 C           5.7478   -1.2989   28.0895 C.3     1  UNL1        0.0994
     45 N           4.4550   -1.0363   28.8033 N.3     1  UNL1       -0.2646
     46 C           4.4281   -0.9550   30.3009 C.3     1  UNL1        0.1049
     47 C           3.1352   -0.6925   31.0147 C.3     1  UNL1        0.1595
     48 O           1.8692   -0.5113   30.2309 O.3     1  UNL1       -0.3508
     49 C           1.8960   -0.5926   28.7334 C.3     1  UNL1        0.1595
     50 C           3.1889   -0.8552   28.0195 C.3     1  UNL1        0.1049
@<TRIPOS>BOND
     1    22    23    1
     2    23    24   ar
     3    24    25   ar
     4    25    18    1
     5    18    19    2
     6    18    20   am
     7    12    20    1
     8    12    13    1
     9    13    14    1
    10    14    15    1
    11    15     8    1
    12     8     9   am
    13     9    10    2
    14     9     1    1
    15     1     2   ar
    16     2     3   ar
    17     3     4    1
    18     3     5   ar
    19     5     6   ar
    20     6     7   ar
    21     7    29    1
    22    29    30    1
    23    30    31   ar
    24    31    32   ar
    25    32    33   ar
    26    33    34   ar
    27    34    36    1
    28    36    37   ar
    29    37    38   ar
    30    38    39   ar
    31    39    40    1
    32    39    41   ar
    33    41    42   ar
    34    42    44    1
    35    44    45    1
    36    45    46    1
    37    46    47    1
    38    47    48    1
    39    48    49    1
    40    49    50    1
    41    34    35   ar
    42    15    16    1
    43    16    17    1
    44    25    26   ar
    45    26    27   ar
    46    27    28    1
    47    27    23   ar
    48    17    12    1
    49     7     1   ar
    50    35    30   ar
    51    42    36   ar
    52    50    45    1
    53    20    21    1
    54     8    11    1
    55    40    43    1
@<TRIPOS>MOLECULE
*****
 50 55 0 0 0
SMALL
GASTEIGER

@<TRIPOS>ATOM
      1 C          -2.6285    4.4422   21.8648 C.ar    1  UNL1        0.1090
      2 C          -3.4954    5.6588   22.0003 C.ar    1  UNL1        0.0405
      3 C          -4.4369    6.0356   20.8951 C.ar    1  UNL1        0.1596
      4 F          -5.3039    7.2522   21.0305 F       1  UNL1       -0.2025
      5 C          -4.5116    5.1958   19.6544 C.ar    1  UNL1        0.1316
      6 N          -3.6447    3.9792   19.5190 N.ar    1  UNL1       -0.2073
      7 C          -2.7032    3.6024   20.6242 C.ar    1  UNL1        0.2341
      8 N          -2.1655    3.2065   24.1028 N.am    1  UNL1       -0.3024
      9 C          -1.6869    4.0654   22.9700 C.2     1  UNL1        0.2504
     10 O          -0.2667    4.5475   22.9424 O.2     1  UNL1       -0.2700
     11 H          -3.0976    2.8901   24.1210 H       1  UNL1        0.1497
     12 C           0.6592    2.0761   27.4184 C.3     1  UNL1        0.0720
     13 C          -0.3504    3.1647   27.6318 C.3     1  UNL1        0.0213
     14 C          -1.2919    3.5415   26.5266 C.3     1  UNL1        0.0213
     15 C          -1.2239    2.8297   25.2080 C.3     1  UNL1        0.0720
     16 C          -0.2143    1.7411   24.9947 C.3     1  UNL1        0.0213
     17 C           0.7273    1.3643   26.0998 C.3     1  UNL1        0.0213
     18 C           1.1893    0.6806   29.5449 C.2     1  UNL1        0.2653
     19 O          -0.1639    0.0388   29.4610 O.2     1  UNL1       -0.2684
     20 N           1.6008    1.6992   28.5237 N.am    1  UNL1       -0.3012
     21 H           2.4889    2.1205   28.5787 H       1  UNL1        0.1497
     22 C           4.7742   -1.9205   32.4196 C.3     1  UNL1        0.0518
     23 C           3.7787   -0.8919   31.9714 C.ar    1  UNL1        0.0577
     24 C           3.0060   -0.9140   30.6858 C.ar    1  UNL1        0.0398
     25 C           2.1309    0.3038   30.6501 C.ar    1  UNL1        0.1551
     26 N           2.3626    1.0785   31.9135 N.ar    1  UNL1       -0.1649
     27 N           3.3810    0.3395   32.7301 N.ar    1  UNL1       -0.2527
     28 C           3.9089    0.7584   34.0701 C.3     1  UNL1        0.1533
     29 O          -1.8362    2.3858   20.4888 O.3     1  UNL1       -0.4360
     30 C          -0.4783    2.4985   19.8615 C.ar    1  UNL1        0.1472
     31 C           0.0416    3.8392   19.4344 C.ar    1  UNL1        0.0376
     32 C           1.3994    3.9520   18.8071 C.ar    1  UNL1        0.0031
     33 C           2.2375    2.7240   18.6070 C.ar    1  UNL1        0.0002
     34 C           1.7176    1.3834   19.0341 C.ar    1  UNL1        0.0028
     35 C           0.3597    1.2707   19.6614 C.ar    1  UNL1        0.0375
     36 C           2.5556    0.1555   18.8340 C.ar    1  UNL1       -0.0024
     37 C           3.2693   -0.0615   17.5326 C.ar    1  UNL1        0.0028
     38 C           4.1073   -1.2894   17.3325 C.ar    1  UNL1        0.0366
     39 C           4.2315   -2.3002   18.4337 C.ar    1  UNL1        0.1334
     40 O           5.0695   -3.5282   18.2335 O.3     1  UNL1       -0.5055
     41 C           3.5178   -2.0832   19.7350 C.ar    1  UNL1        0.0337
     42 C           2.6798   -0.8554   19.9352 C.ar    1  UNL1       -0.0031
     43 H           5.5154   -3.6637   17.4206 H       1  UNL1        0.2922
     44 C           1.9661   -0.6384   21.2365 C.3     1  UNL1        0.0994
     45 N           2.6950   -0.0345   22.4001 N.3     1  UNL1       -0.2646
     46 C           3.2045   -0.9132   23.5039 C.3     1  UNL1        0.1049
     47 C           3.9334   -0.3093   24.6675 C.3     1  UNL1        0.1595
     48 O           4.1529    1.1733   24.7273 O.3     1  UNL1       -0.3508
     49 C           3.6435    2.0521   23.6236 C.3     1  UNL1        0.1595
     50 C           2.9145    1.4482   22.4599 C.3     1  UNL1        0.1049
@<TRIPOS>BOND
     1    22    23    1
     2    23    24   ar
     3    24    25   ar
     4    25    18    1
     5    18    19    2
     6    18    20   am
     7    12    20    1
     8    12    13    1
     9    13    14    1
    10    14    15    1
    11    15     8    1
    12     8     9   am
    13     9    10    2
    14     9     1    1
    15     1     2   ar
    16     2     3   ar
    17     3     4    1
    18     3     5   ar
    19     5     6   ar
    20     6     7   ar
    21     7    29    1
    22    29    30    1
    23    30    31   ar
    24    31    32   ar
    25    32    33   ar
    26    33    34   ar
    27    34    36    1
    28    36    37   ar
    29    37    38   ar
    30    38    39   ar
    31    39    40    1
    32    39    41   ar
    33    41    42   ar
    34    42    44    1
    35    44    45    1
    36    45    46    1
    37    46    47    1
    38    47    48    1
    39    48    49    1
    40    49    50    1
    41    34    35   ar
    42    15    16    1
    43    16    17    1
    44    25    26   ar
    45    26    27   ar
    46    27    28    1
    47    27    23   ar
    48    17    12    1
    49     7     1   ar
    50    35    30   ar
    51    42    36   ar
    52    50    45    1
    53    20    21    1
    54     8    11    1
    55    40    43    1
@<TRIPOS>MOLECULE
*****
 50 55 0 0 0
SMALL
GASTEIGER

@<TRIPOS>ATOM
      1 C          -1.8245    3.3388   23.4470 C.ar    1  UNL1        0.1090
      2 C          -3.2989    3.4674   23.6907 C.ar    1  UNL1        0.0405
      3 C          -4.2421    3.5968   22.5315 C.ar    1  UNL1        0.1596
      4 F          -5.7167    3.7254   22.7752 F       1  UNL1       -0.2025
      5 C          -3.7109    3.5976   21.1288 C.ar    1  UNL1        0.1316
      6 N          -2.2364    3.4690   20.8851 N.ar    1  UNL1       -0.2073
      7 C          -1.2932    3.3396   22.0442 C.ar    1  UNL1        0.2341
      8 N          -0.6175    1.8627   25.2118 N.am    1  UNL1       -0.3024
      9 C          -0.8812    3.2094   24.6062 C.2     1  UNL1        0.2504
     10 O          -0.2017    4.4268   25.1596 O.2     1  UNL1       -0.2700
     11 H          -1.0635    1.0638   24.8485 H       1  UNL1        0.1497
     12 C           2.2124    1.4745   28.6890 C.3     1  UNL1        0.0720
     13 C           2.6840    1.1622   27.2998 C.3     1  UNL1        0.0213
     14 C           1.7407    1.2916   26.1408 C.3     1  UNL1        0.0213
     15 C           0.3258    1.7333   26.3709 C.3     1  UNL1        0.0720
     16 C          -0.1458    2.0457   27.7601 C.3     1  UNL1        0.0213
     17 C           0.7975    1.9163   28.9192 C.3     1  UNL1        0.0213
     18 C           3.0622    0.1597   30.7625 C.2     1  UNL1        0.2653
     19 O           2.0254   -0.8964   30.5177 O.2     1  UNL1       -0.2684
     20 N           3.1556    1.3451   29.8482 N.am    1  UNL1       -0.3012
     21 H           3.8361    2.0383   30.0088 H       1  UNL1        0.1497
     22 C           4.9687   -0.1176   35.6787 C.3     1  UNL1        0.0518
     23 C           4.8817   -0.0971   34.1814 C.ar    1  UNL1        0.0577
     24 C           3.6292    0.0702   33.3731 C.ar    1  UNL1        0.0398
     25 C           4.0054    0.0303   31.9216 C.ar    1  UNL1        0.1551
     26 N           5.4904   -0.1617   31.8328 N.ar    1  UNL1       -0.1649
     27 N           6.0320   -0.2404   33.2293 N.ar    1  UNL1       -0.2527
     28 C           7.4712   -0.4293   33.6075 C.3     1  UNL1        0.1533
     29 O           0.1813    3.2111   21.8006 O.3     1  UNL1       -0.4360
     30 C           0.7780    1.8673   21.5036 C.ar    1  UNL1        0.1472
     31 C           0.2134    1.0234   20.3994 C.ar    1  UNL1        0.0376
     32 C           0.8101   -0.3204   20.1024 C.ar    1  UNL1        0.0031
     33 C           1.9714   -0.8203   20.9097 C.ar    1  UNL1        0.0002
     34 C           2.5360    0.0236   22.0138 C.ar    1  UNL1        0.0028
     35 C           1.9393    1.3673   22.3108 C.ar    1  UNL1        0.0375
     36 C           3.6973   -0.4764   22.8210 C.ar    1  UNL1       -0.0024
     37 C           3.4567   -1.2002   24.1126 C.ar    1  UNL1        0.0028
     38 C           4.6179   -1.7001   24.9198 C.ar    1  UNL1        0.0366
     39 C           6.0197   -1.4762   24.4354 C.ar    1  UNL1        0.1334
     40 O           7.1810   -1.9761   25.2426 O.3     1  UNL1       -0.5055
     41 C           6.2603   -0.7524   23.1438 C.ar    1  UNL1        0.0337
     42 C           5.0991   -0.2525   22.3366 C.ar    1  UNL1       -0.0031
     43 H           7.0307   -2.4282   26.0494 H       1  UNL1        0.2922
     44 C           5.3397    0.4713   21.0450 C.3     1  UNL1        0.0994
     45 N           5.2287   -0.2630   19.7418 N.3     1  UNL1       -0.2646
     46 C           4.7411    0.4525   18.5169 C.3     1  UNL1        0.1049
     47 C           4.6300   -0.2818   17.2137 C.3     1  UNL1        0.1595
     48 O           5.0066   -1.7316   17.1353 O.3     1  UNL1       -0.3508
     49 C           5.4942   -2.4471   18.3601 C.3     1  UNL1        0.1595
     50 C           5.6053   -1.7128   19.6634 C.3     1  UNL1        0.1049
@<TRIPOS>BOND
     1    22    23    1
     2    23    24   ar
     3    24    25   ar
     4    25    18    1
     5    18    19    2
     6    18    20   am
     7    12    20    1
     8    12    13    1
     9    13    14    1
    10    14    15    1
    11    15     8    1
    12     8     9   am
    13     9    10    2
    14     9     1    1
    15     1     2   ar
    16     2     3   ar
    17     3     4    1
    18     3     5   ar
    19     5     6   ar
    20     6     7   ar
    21     7    29    1
    22    29    30    1
    23    30    31   ar
    24    31    32   ar
    25    32    33   ar
    26    33    34   ar
    27    34    36    1
    28    36    37   ar
    29    37    38   ar
    30    38    39   ar
    31    39    40    1
    32    39    41   ar
    33    41    42   ar
    34    42    44    1
    35    44    45    1
    36    45    46    1
    37    46    47    1
    38    47    48    1
    39    48    49    1
    40    49    50    1
    41    34    35   ar
    42    15    16    1
    43    16    17    1
    44    25    26   ar
    45    26    27   ar
    46    27    28    1
    47    27    23   ar
    48    17    12    1
    49     7     1   ar
    50    35    30   ar
    51    42    36   ar
    52    50    45    1
    53    20    21    1
    54     8    11    1
    55    40    43    1
@<TRIPOS>MOLECULE
*****
 50 55 0 0 0
SMALL
GASTEIGER

@<TRIPOS>ATOM
      1 C           3.7673    2.0397   34.7989 C.ar    1  UNL1        0.1090
      2 C           3.6214    3.3977   35.4188 C.ar    1  UNL1        0.0405
      3 C           3.8638    3.5816   36.8876 C.ar    1  UNL1        0.1596
      4 F           3.7179    4.9398   37.5076 F       1  UNL1       -0.2025
      5 C           4.2520    2.4075   37.7365 C.ar    1  UNL1        0.1316
      6 N           4.3979    1.0494   37.1166 N.ar    1  UNL1       -0.2073
      7 C           4.1556    0.8655   35.6478 C.ar    1  UNL1        0.2341
      8 N           2.4168    0.9613   32.8590 N.am    1  UNL1       -0.3024
      9 C           3.5250    1.8557   33.3301 C.2     1  UNL1        0.2504
     10 O           4.3909    2.5662   32.3323 O.2     1  UNL1       -0.2700
     11 H           1.8485    0.4950   33.5139 H       1  UNL1        0.1497
     12 C           1.6898    0.4094   28.4526 C.3     1  UNL1        0.0720
     13 C           2.5788   -0.5464   29.1915 C.3     1  UNL1        0.0213
     14 C           2.8211   -0.3624   30.6603 C.3     1  UNL1        0.0213
     15 C           2.1744    0.7774   31.3901 C.3     1  UNL1        0.0720
     16 C           1.2855    1.7332   30.6512 C.3     1  UNL1        0.0213
     17 C           1.0432    1.5492   29.1824 C.3     1  UNL1        0.0213
     18 C           2.2708    0.9857   25.9867 C.2     1  UNL1        0.2653
     19 O           3.3366    1.9299   26.4585 O.2     1  UNL1       -0.2684
     20 N           1.4475    0.2254   26.9837 N.am    1  UNL1       -0.3012
     21 H           0.7480   -0.3943   26.6740 H       1  UNL1        0.1497
     22 C           2.6721   -0.7203   21.0058 C.3     1  UNL1        0.0518
     23 C           2.2129    0.0175   22.2283 C.ar    1  UNL1        0.0577
     24 C           2.7879   -0.1172   23.6073 C.ar    1  UNL1        0.0398
     25 C           2.0285    0.8017   24.5178 C.ar    1  UNL1        0.1551
     26 N           0.9843    1.5043   23.7017 N.ar    1  UNL1       -0.1649
     27 N           1.0983    1.0197   22.2867 N.ar    1  UNL1       -0.2527
     28 C           0.2471    1.4599   21.1328 C.3     1  UNL1        0.1533
     29 O           4.3015   -0.4926   35.0278 O.3     1  UNL1       -0.4360
     30 C           5.5646   -0.8550   34.3045 C.ar    1  UNL1        0.1472
     31 C           6.8582   -0.1927   34.6762 C.ar    1  UNL1        0.0376
     32 C           8.1213   -0.5551   33.9528 C.ar    1  UNL1        0.0031
     33 C           8.0908   -1.5799   32.8578 C.ar    1  UNL1        0.0002
     34 C           6.7973   -2.2422   32.4862 C.ar    1  UNL1        0.0028
     35 C           5.5342   -1.8798   33.2095 C.ar    1  UNL1        0.0375
     36 C           6.7668   -3.2670   31.3912 C.ar    1  UNL1       -0.0024
     37 C           6.9416   -4.7203   31.7190 C.ar    1  UNL1        0.0028
     38 C           6.9111   -5.7450   30.6241 C.ar    1  UNL1        0.0366
     39 C           6.7058   -5.3165   29.2014 C.ar    1  UNL1        0.1334
     40 O           6.6754   -6.3413   28.1064 O.3     1  UNL1       -0.5055
     41 C           6.5310   -3.8633   28.8735 C.ar    1  UNL1        0.0337
     42 C           6.5615   -2.8385   29.9685 C.ar    1  UNL1       -0.0031
     43 H           6.7846   -7.2491   28.3111 H       1  UNL1        0.2922
     44 C           6.3867   -1.3852   29.6406 C.3     1  UNL1        0.0994
     45 N           6.7852   -0.8678   28.2904 N.3     1  UNL1       -0.2646
     46 C           5.7402   -0.6234   27.2423 C.3     1  UNL1        0.1049
     47 C           6.1387   -0.1060   25.8921 C.3     1  UNL1        0.1595
     48 O           7.5823    0.1672   25.5897 O.3     1  UNL1       -0.3508
     49 C           8.6274   -0.0770   26.6376 C.3     1  UNL1        0.1595
     50 C           8.2288   -0.5945   27.9880 C.3     1  UNL1        0.1049
@<TRIPOS>BOND
     1    22    23    1
     2    23    24   ar
     3    24    25   ar
     4    25    18    1
     5    18    19    2
     6    18    20   am
     7    12    20    1
     8    12    13    1
     9    13    14    1
    10    14    15    1
    11    15     8    1
    12     8     9   am
    13     9    10    2
    14     9     1    1
    15     1     2   ar
    16     2     3   ar
    17     3     4    1
    18     3     5   ar
    19     5     6   ar
    20     6     7   ar
    21     7    29    1
    22    29    30    1
    23    30    31   ar
    24    31    32   ar
    25    32    33   ar
    26    33    34   ar
    27    34    36    1
    28    36    37   ar
    29    37    38   ar
    30    38    39   ar
    31    39    40    1
    32    39    41   ar
    33    41    42   ar
    34    42    44    1
    35    44    45    1
    36    45    46    1
    37    46    47    1
    38    47    48    1
    39    48    49    1
    40    49    50    1
    41    34    35   ar
    42    15    16    1
    43    16    17    1
    44    25    26   ar
    45    26    27   ar
    46    27    28    1
    47    27    23   ar
    48    17    12    1
    49     7     1   ar
    50    35    30   ar
    51    42    36   ar
    52    50    45    1
    53    20    21    1
    54     8    11    1
    55    40    43    1
@<TRIPOS>MOLECULE
*****
 50 55 0 0 0
SMALL
GASTEIGER

@<TRIPOS>ATOM
      1 C           4.1098    1.3575   37.2331 C.ar    1  UNL1        0.1090
      2 C           2.9976    0.9387   38.1483 C.ar    1  UNL1        0.0405
      3 C           2.3226    1.9542   39.0218 C.ar    1  UNL1        0.1596
      4 F           1.2103    1.5355   39.9370 F       1  UNL1       -0.2025
      5 C           2.7599    3.3885   38.9802 C.ar    1  UNL1        0.1316
      6 N           3.8721    3.8072   38.0651 N.ar    1  UNL1       -0.2073
      7 C           4.5471    2.7917   37.1916 C.ar    1  UNL1        0.2341
      8 N           4.3226    0.1422   34.9467 N.am    1  UNL1       -0.3024
      9 C           4.7849    0.3419   36.3595 C.2     1  UNL1        0.2504
     10 O           5.9223   -0.4738   36.8989 O.2     1  UNL1       -0.2700
     11 H           3.5761    0.6776   34.5927 H       1  UNL1        0.1497
     12 C           6.3478   -2.9042   32.3260 C.3     1  UNL1        0.0720
     13 C           7.0376   -1.6105   32.6430 C.3     1  UNL1        0.0213
     14 C           6.3625   -0.5951   33.5166 C.3     1  UNL1        0.0213
     15 C           4.9976   -0.8733   34.0731 C.3     1  UNL1        0.0720
     16 C           4.3078   -2.1669   33.7560 C.3     1  UNL1        0.0213
     17 C           4.9829   -3.1824   32.8824 C.3     1  UNL1        0.0213
     18 C           6.9184   -3.8130   29.9598 C.2     1  UNL1        0.2653
     19 O           6.1389   -2.6909   29.3408 O.2     1  UNL1       -0.2684
     20 N           7.0228   -3.9197   31.4524 N.am    1  UNL1       -0.3012
     21 H           7.5344   -4.6562   31.8586 H       1  UNL1        0.1497
     22 C           9.0179   -8.3317   28.2121 C.3     1  UNL1        0.0518
     23 C           8.5585   -6.9056   28.2829 C.ar    1  UNL1        0.0577
     24 C           7.8709   -6.2576   29.4481 C.ar    1  UNL1        0.0398
     25 C           7.5934   -4.8285   29.0862 C.ar    1  UNL1        0.1551
     26 N           8.1095   -4.5933   27.6976 N.ar    1  UNL1       -0.1649
     27 N           8.7059   -5.8769   27.2011 N.ar    1  UNL1       -0.2527
     28 C           9.3387   -6.0939   25.8586 C.3     1  UNL1        0.1533
     29 O           5.6594    3.2104   36.2764 O.3     1  UNL1       -0.4360
     30 C           5.3940    3.4031   34.8127 C.ar    1  UNL1        0.1472
     31 C           6.4171    2.9758   33.8023 C.ar    1  UNL1        0.0376
     32 C           6.1517    3.1685   32.3386 C.ar    1  UNL1        0.0031
     33 C           4.8632    3.7885   31.8853 C.ar    1  UNL1        0.0002
     34 C           3.8402    4.2158   32.8956 C.ar    1  UNL1        0.0028
     35 C           4.1056    4.0231   34.3593 C.ar    1  UNL1        0.0375
     36 C           2.5517    4.8358   32.4423 C.ar    1  UNL1       -0.0024
     37 C           2.5020    6.2947   32.0972 C.ar    1  UNL1        0.0028
     38 C           1.2136    6.9147   31.6439 C.ar    1  UNL1        0.0366
     39 C          -0.0252    6.0758   31.5357 C.ar    1  UNL1        0.1334
     40 O          -1.3137    6.6958   31.0823 O.3     1  UNL1       -0.5055
     41 C           0.0245    4.6169   31.8808 C.ar    1  UNL1        0.0337
     42 C           1.3129    3.9969   32.3341 C.ar    1  UNL1       -0.0031
     43 H          -1.3447    7.6071   30.8668 H       1  UNL1        0.2922
     44 C           1.3626    2.5380   32.6792 C.3     1  UNL1        0.0994
     45 N           1.5584    1.5176   31.5974 N.3     1  UNL1       -0.2646
     46 C           0.6362    1.4921   30.4146 C.3     1  UNL1        0.1049
     47 C           0.8320    0.4717   29.3328 C.3     1  UNL1        0.1595
     48 O           1.9500   -0.5232   29.4336 O.3     1  UNL1       -0.3508
     49 C           2.8723   -0.4977   30.6163 C.3     1  UNL1        0.1595
     50 C           2.6765    0.5227   31.6982 C.3     1  UNL1        0.1049
@<TRIPOS>BOND
     1    22    23    1
     2    23    24   ar
     3    24    25   ar
     4    25    18    1
     5    18    19    2
     6    18    20   am
     7    12    20    1
     8    12    13    1
     9    13    14    1
    10    14    15    1
    11    15     8    1
    12     8     9   am
    13     9    10    2
    14     9     1    1
    15     1     2   ar
    16     2     3   ar
    17     3     4    1
    18     3     5   ar
    19     5     6   ar
    20     6     7   ar
    21     7    29    1
    22    29    30    1
    23    30    31   ar
    24    31    32   ar
    25    32    33   ar
    26    33    34   ar
    27    34    36    1
    28    36    37   ar
    29    37    38   ar
    30    38    39   ar
    31    39    40    1
    32    39    41   ar
    33    41    42   ar
    34    42    44    1
    35    44    45    1
    36    45    46    1
    37    46    47    1
    38    47    48    1
    39    48    49    1
    40    49    50    1
    41    34    35   ar
    42    15    16    1
    43    16    17    1
    44    25    26   ar
    45    26    27   ar
    46    27    28    1
    47    27    23   ar
    48    17    12    1
    49     7     1   ar
    50    35    30   ar
    51    42    36   ar
    52    50    45    1
    53    20    21    1
    54     8    11    1
    55    40    43    1
@<TRIPOS>MOLECULE
*****
 50 55 0 0 0
SMALL
GASTEIGER

@<TRIPOS>ATOM
      1 C           4.5037   -0.5487   29.8147 C.ar    1  UNL1        0.1090
      2 C           5.1147   -0.1253   31.1175 C.ar    1  UNL1        0.0405
      3 C           6.4625   -0.6474   31.5186 C.ar    1  UNL1        0.1596
      4 F           7.0736   -0.2240   32.8214 F       1  UNL1       -0.2025
      5 C           7.1993   -1.5929   30.6168 C.ar    1  UNL1        0.1316
      6 N           6.5883   -2.0163   29.3140 N.ar    1  UNL1       -0.2073
      7 C           5.2405   -1.4942   28.9129 C.ar    1  UNL1        0.2341
      8 N           3.0448    1.0217   28.3465 N.am    1  UNL1       -0.3024
      9 C           3.1559   -0.0266   29.4136 C.2     1  UNL1        0.2504
     10 O           1.9192   -0.5528   30.0797 O.2     1  UNL1       -0.2700
     11 H           3.8565    1.3670   27.9094 H       1  UNL1        0.1497
     12 C          -0.9987    2.5878   27.1433 C.3     1  UNL1        0.0720
     13 C          -0.5298    1.2555   26.6382 C.3     1  UNL1        0.0213
     14 C           0.8180    0.7335   27.0393 C.3     1  UNL1        0.0213
     15 C           1.6969    1.5438   27.9455 C.3     1  UNL1        0.0720
     16 C           1.2280    2.8760   28.4505 C.3     1  UNL1        0.0213
     17 C          -0.1198    3.3980   28.0494 C.3     1  UNL1        0.0213
     18 C          -2.6232    3.4482   25.3073 C.2     1  UNL1        0.2653
     19 O          -1.5520    3.2645   24.2734 O.2     1  UNL1       -0.2684
     20 N          -2.3465    3.1099   26.7422 N.am    1  UNL1       -0.3012
     21 H          -3.0496    3.2305   27.4208 H       1  UNL1        0.1497
     22 C          -7.2550    5.9820   25.3896 C.3     1  UNL1        0.0518
     23 C          -6.1001    5.1350   24.9441 C.ar    1  UNL1        0.0577
     24 C          -4.8521    4.8617   25.7303 C.ar    1  UNL1        0.0398
     25 C          -3.9710    3.9703   24.9062 C.ar    1  UNL1        0.1551
     26 N          -4.6743    3.6927   23.6108 N.ar    1  UNL1       -0.1649
     27 N          -5.9901    4.4125   23.6341 N.ar    1  UNL1       -0.2527
     28 C          -7.0159    4.4102   22.5398 C.3     1  UNL1        0.1533
     29 O           4.6294   -1.9176   27.6101 O.3     1  UNL1       -0.4360
     30 C           4.8486   -1.0935   26.3760 C.ar    1  UNL1        0.1472
     31 C           6.1696   -0.4202   26.1486 C.ar    1  UNL1        0.0376
     32 C           6.3889    0.4038   24.9146 C.ar    1  UNL1        0.0031
     33 C           5.2870    0.5545   23.9079 C.ar    1  UNL1        0.0002
     34 C           3.9661   -0.1188   24.1353 C.ar    1  UNL1        0.0028
     35 C           3.7469   -0.9428   25.3693 C.ar    1  UNL1        0.0375
     36 C           2.8643    0.0319   23.1286 C.ar    1  UNL1       -0.0024
     37 C           1.7843    1.0500   23.3455 C.ar    1  UNL1        0.0028
     38 C           0.6825    1.2008   22.3389 C.ar    1  UNL1        0.0366
     39 C           0.6607    0.3334   21.1153 C.ar    1  UNL1        0.1334
     40 O          -0.4411    0.4841   20.1086 O.3     1  UNL1       -0.5055
     41 C           1.7408   -0.6847   20.8984 C.ar    1  UNL1        0.0337
     42 C           2.8425   -0.8354   21.9050 C.ar    1  UNL1       -0.0031
     43 H          -1.1157    1.1201   20.2441 H       1  UNL1        0.2922
     44 C           3.9225   -1.8535   21.6880 C.3     1  UNL1        0.0994
     45 N           4.5849   -1.9701   20.3473 N.3     1  UNL1       -0.2646
     46 C           5.1891   -0.7586   19.7013 C.3     1  UNL1        0.1049
     47 C           5.8515   -0.8752   18.3606 C.3     1  UNL1        0.1595
     48 O           5.9098   -2.2033   17.6658 O.3     1  UNL1       -0.3508
     49 C           5.3058   -3.4148   18.3118 C.3     1  UNL1        0.1595
     50 C           4.6433   -3.2982   19.6525 C.3     1  UNL1        0.1049
@<TRIPOS>BOND
     1    22    23    1
     2    23    24   ar
     3    24    25   ar
     4    25    18    1
     5    18    19    2
     6    18    20   am
     7    12    20    1
     8    12    13    1
     9    13    14    1
    10    14    15    1
    11    15     8    1
    12     8     9   am
    13     9    10    2
    14     9     1    1
    15     1     2   ar
    16     2     3   ar
    17     3     4    1
    18     3     5   ar
    19     5     6   ar
    20     6     7   ar
    21     7    29    1
    22    29    30    1
    23    30    31   ar
    24    31    32   ar
    25    32    33   ar
    26    33    34   ar
    27    34    36    1
    28    36    37   ar
    29    37    38   ar
    30    38    39   ar
    31    39    40    1
    32    39    41   ar
    33    41    42   ar
    34    42    44    1
    35    44    45    1
    36    45    46    1
    37    46    47    1
    38    47    48    1
    39    48    49    1
    40    49    50    1
    41    34    35   ar
    42    15    16    1
    43    16    17    1
    44    25    26   ar
    45    26    27   ar
    46    27    28    1
    47    27    23   ar
    48    17    12    1
    49     7     1   ar
    50    35    30   ar
    51    42    36   ar
    52    50    45    1
    53    20    21    1
    54     8    11    1
    55    40    43    1
