@<TRIPOS>MOLECULE
*****
 37 40 0 0 0
SMALL
GASTEIGER

@<TRIPOS>ATOM
      1 C           2.9697   -0.7138   19.6199 C.3     1  UNL1        0.0528
      2 C           5.6817   -2.3796   21.8416 C.ar    1  UNL1        0.1932
      3 O           5.7007   -0.9743   22.3657 O.2     1  UNL1       -0.3524
      4 N           4.6871   -0.1792   21.5973 N.ar    1  UNL1       -0.0816
      5 C           4.0416   -1.0932   20.5982 C.ar    1  UNL1        0.0967
      6 C           4.6564   -2.4530   20.7492 C.ar    1  UNL1        0.0329
      7 C           7.8025   -4.9964   23.7703 C.ar    1  UNL1        0.1545
      8 C           6.9558   -3.7585   23.7443 C.ar    1  UNL1        0.0612
      9 C           6.5378   -3.5125   22.3249 C.ar    1  UNL1        0.1593
     10 N           7.1261   -4.5984   21.4735 N.ar    1  UNL1       -0.0742
     11 O           7.9078   -5.5155   22.3669 O.2     1  UNL1       -0.3577
     12 C           8.4332   -5.6078   24.9862 C.3     1  UNL1        0.0673
     13 C           6.9379   -5.9521   26.4509 C.3     1  UNL1        0.0004
     14 C           7.8245   -6.8263   25.6143 C.3     1  UNL1        0.0072
     15 C           8.7109   -7.7006   24.7778 C.3     1  UNL1        0.0004
     16 C           7.2156   -8.0448   26.2425 C.3     1  UNL1        0.0004
     17 C           4.3071   -3.6724   19.9484 C.3     1  UNL1        0.0268
     18 C           4.4939   -4.5208   18.7255 C.3     1  UNL1        0.0048
     19 C           3.5156   -4.9358   19.7840 C.3     1  UNL1        0.0048
     20 C           3.3421   -0.2210   18.2530 C.3     1  UNL1        0.0124
     21 C           4.2751   -1.0231   17.3950 C.3     1  UNL1        0.0421
     22 C           5.7588   -0.8743   17.5580 C.2     1  UNL1        0.0503
     23 O           6.3366    0.4365   18.0028 O.co2   1  UNL1       -0.5492
     24 O           6.6645   -2.0362   17.2762 O.co2   1  UNL1       -0.5492
     25 C           1.5254   -0.8273   20.0085 C.3     1  UNL1        0.0914
     26 C           0.9216    0.1714   20.9509 C.2     1  UNL1        0.2265
     27 O          -0.4179    0.7745   20.6473 O.2     1  UNL1       -0.2748
     28 N           1.6572    0.5669   22.1969 N.am    1  UNL1       -0.2832
     29 H           2.5363    0.1711   22.3961 H       1  UNL1        0.1549
     30 C           1.0534    1.5656   23.1393 C.ar    1  UNL1        0.0610
     31 C           0.3776    1.0991   24.3945 C.ar    1  UNL1        0.0164
     32 C          -0.2261    2.0977   25.3369 C.ar    1  UNL1        0.0127
     33 C          -0.1542    3.5630   25.0240 C.ar    1  UNL1        0.0586
     34 CL         -0.7580    4.5617   25.9664 Cl      1  UNL1       -0.0822
     35 C           0.5215    4.0295   23.7688 C.ar    1  UNL1        0.0240
     36 C           1.1253    3.0309   22.8264 C.ar    1  UNL1        0.0719
     37 CL          1.8011    3.4974   21.5711 Cl      1  UNL1       -0.0809
@<TRIPOS>UNITY_ATOM_ATTR
24 1
charge -1
@<TRIPOS>BOND
     1    13    14    1
     2    14    15    1
     3    14    16    1
     4    14    12    1
     5    12     7    1
     6     7     8   ar
     7     8     9   ar
     8     9     2    1
     9     2     3   ar
    10     3     4   ar
    11     4     5   ar
    12     5     1    1
    13     1    20    1
    14    20    21    1
    15    21    22    1
    16    22    23   ar
    17    22    24   ar
    18     1    25    1
    19    25    26    1
    20    26    27    2
    21    26    28   am
    22    28    30    1
    23    30    31   ar
    24    31    32   ar
    25    32    33   ar
    26    33    34    1
    27    33    35   ar
    28    35    36   ar
    29    36    37    1
    30     5     6   ar
    31     6    17    1
    32    17    18    1
    33    18    19    1
    34     9    10   ar
    35    10    11   ar
    36    11     7   ar
    37     6     2   ar
    38    19    17    1
    39    36    30   ar
    40    28    29    1
@<TRIPOS>MOLECULE
*****
 37 40 0 0 0
SMALL
GASTEIGER

@<TRIPOS>ATOM
      1 C           3.1704   -0.8550   19.3407 C.3     1  UNL1        0.0528
      2 C           5.7737   -2.4664   21.7265 C.ar    1  UNL1        0.1932
      3 O           5.8130   -1.0364   22.1779 O.2     1  UNL1       -0.3524
      4 N           4.8426   -0.2588   21.3391 N.ar    1  UNL1       -0.0816
      5 C           4.2035   -1.2081   20.3693 C.ar    1  UNL1        0.0967
      6 C           4.7791   -2.5724   20.6088 C.ar    1  UNL1        0.0329
      7 C           7.7575   -5.0369   23.8531 C.ar    1  UNL1        0.1545
      8 C           6.9353   -3.7875   23.7391 C.ar    1  UNL1        0.0612
      9 C           6.5865   -3.5925   22.2933 C.ar    1  UNL1        0.1593
     10 N           7.1930   -4.7214   21.5138 N.ar    1  UNL1       -0.0742
     11 O           7.9168   -5.6141   22.4779 O.2     1  UNL1       -0.3577
     12 C           8.3214   -5.6087   25.1201 C.3     1  UNL1        0.0673
     13 C           6.8020   -6.0121   26.5444 C.3     1  UNL1        0.0004
     14 C           7.7257   -6.8514   25.7122 C.3     1  UNL1        0.0072
     15 C           8.6493   -7.6907   24.8801 C.3     1  UNL1        0.0004
     16 C           7.1299   -8.0941   26.3044 C.3     1  UNL1        0.0004
     17 C           4.4225   -3.8233   19.8616 C.3     1  UNL1        0.0268
     18 C           3.5722   -5.0502   19.7134 C.3     1  UNL1        0.0048
     19 C           4.6550   -4.7630   18.7159 C.3     1  UNL1        0.0048
     20 C           3.5621   -0.7234   17.8988 C.3     1  UNL1        0.0124
     21 C           4.6796    0.1970   17.5062 C.3     1  UNL1        0.0421
     22 C           6.0213   -0.3654   17.1409 C.2     1  UNL1        0.0503
     23 O           7.0763    0.5285   16.5596 O.co2   1  UNL1       -0.5492
     24 O           6.3080   -1.8218   17.3570 O.co2   1  UNL1       -0.5492
     25 C           1.7456   -0.6336   19.7541 C.3     1  UNL1        0.0914
     26 C           1.2899    0.7328   20.1729 C.2     1  UNL1        0.2265
     27 O           2.2293    1.8984   20.0787 O.2     1  UNL1       -0.2748
     28 N          -0.1053    0.9336   20.6858 N.am    1  UNL1       -0.2832
     29 H          -0.7219    0.1686   20.7476 H       1  UNL1        0.1549
     30 C          -0.5611    2.3000   21.1046 C.ar    1  UNL1        0.0610
     31 C          -1.2570    3.1928   20.1205 C.ar    1  UNL1        0.0164
     32 C          -1.7127    4.5592   20.5393 C.ar    1  UNL1        0.0127
     33 C          -1.4725    5.0326   21.9422 C.ar    1  UNL1        0.0586
     34 CL         -1.9283    6.3990   22.3610 Cl      1  UNL1       -0.0822
     35 C          -0.7766    4.1398   22.9263 C.ar    1  UNL1        0.0240
     36 C          -0.3209    2.7734   22.5075 C.ar    1  UNL1        0.0719
     37 CL          0.3750    1.8805   23.4916 Cl      1  UNL1       -0.0809
@<TRIPOS>UNITY_ATOM_ATTR
24 1
charge -1
@<TRIPOS>BOND
     1    13    14    1
     2    14    15    1
     3    14    16    1
     4    14    12    1
     5    12     7    1
     6     7     8   ar
     7     8     9   ar
     8     9     2    1
     9     2     3   ar
    10     3     4   ar
    11     4     5   ar
    12     5     1    1
    13     1    20    1
    14    20    21    1
    15    21    22    1
    16    22    23   ar
    17    22    24   ar
    18     1    25    1
    19    25    26    1
    20    26    27    2
    21    26    28   am
    22    28    30    1
    23    30    31   ar
    24    31    32   ar
    25    32    33   ar
    26    33    34    1
    27    33    35   ar
    28    35    36   ar
    29    36    37    1
    30     5     6   ar
    31     6    17    1
    32    17    18    1
    33    18    19    1
    34     9    10   ar
    35    10    11   ar
    36    11     7   ar
    37     6     2   ar
    38    19    17    1
    39    36    30   ar
    40    28    29    1
@<TRIPOS>MOLECULE
*****
 37 40 0 0 0
SMALL
GASTEIGER

@<TRIPOS>ATOM
      1 C           6.2193   -3.4409   21.6417 C.3     1  UNL1        0.0528
      2 C           6.9408   -4.6656   25.2535 C.ar    1  UNL1        0.1932
      3 O           7.7207   -5.6623   24.4483 O.2     1  UNL1       -0.3524
      4 N           7.5453   -5.3248   22.9973 N.ar    1  UNL1       -0.0816
      5 C           6.6571   -4.1196   22.9058 C.ar    1  UNL1        0.0967
      6 C           6.2835   -3.7122   24.3002 C.ar    1  UNL1        0.0329
      7 C           7.0176   -3.9044   29.0588 C.ar    1  UNL1        0.1545
      8 C           7.3277   -3.5267   27.6407 C.ar    1  UNL1        0.0612
      9 C           6.8366   -4.6288   26.7495 C.ar    1  UNL1        0.1593
     10 N           6.2228   -5.6876   27.6168 N.ar    1  UNL1       -0.0742
     11 O           6.3347   -5.2399   29.0441 O.2     1  UNL1       -0.3577
     12 C           7.3346   -3.0896   30.2777 C.3     1  UNL1        0.0673
     13 C           6.7501   -3.9279   32.1367 C.3     1  UNL1        0.0004
     14 C           6.2611   -2.7954   31.2831 C.3     1  UNL1        0.0072
     15 C           5.7720   -1.6630   30.4297 C.3     1  UNL1        0.0004
     16 C           5.1876   -2.5012   32.2886 C.3     1  UNL1        0.0004
     17 C           5.4065   -2.5545   24.6754 C.3     1  UNL1        0.0268
     18 C           5.0161   -1.4828   25.6497 C.3     1  UNL1        0.0048
     19 C           4.2779   -1.6212   24.3512 C.3     1  UNL1        0.0048
     20 C           7.0612   -2.3528   21.0443 C.3     1  UNL1        0.0124
     21 C           7.8442   -2.6126   19.7914 C.3     1  UNL1        0.0421
     22 C           7.6214   -1.7601   18.5775 C.2     1  UNL1        0.0503
     23 O           6.8168   -2.2886   17.4272 O.co2   1  UNL1       -0.5492
     24 O           8.2034   -0.3790   18.5139 O.co2   1  UNL1       -0.5492
     25 C           4.9395   -3.8504   20.9751 C.3     1  UNL1        0.0914
     26 C           4.1039   -2.8279   20.2635 C.2     1  UNL1        0.2265
     27 O           3.7310   -3.0333   18.8252 O.2     1  UNL1       -0.2748
     28 N           3.6411   -1.6000   20.9903 N.am    1  UNL1       -0.2832
     29 H           3.8858   -1.4652   21.9343 H       1  UNL1        0.1549
     30 C           2.8055   -0.5775   20.2787 C.ar    1  UNL1        0.0610
     31 C           1.3143   -0.5832   20.4407 C.ar    1  UNL1        0.0164
     32 C           0.4788    0.4393   19.7291 C.ar    1  UNL1        0.0127
     33 C           1.1345    1.4675   18.8556 C.ar    1  UNL1        0.0586
     34 CL          0.2989    2.4900   18.1440 Cl      1  UNL1       -0.0822
     35 C           2.6257    1.4731   18.6936 C.ar    1  UNL1        0.0240
     36 C           3.4612    0.4506   19.4052 C.ar    1  UNL1        0.0719
     37 CL          4.9525    0.4562   19.2433 Cl      1  UNL1       -0.0809
@<TRIPOS>UNITY_ATOM_ATTR
24 1
charge -1
@<TRIPOS>BOND
     1    13    14    1
     2    14    15    1
     3    14    16    1
     4    14    12    1
     5    12     7    1
     6     7     8   ar
     7     8     9   ar
     8     9     2    1
     9     2     3   ar
    10     3     4   ar
    11     4     5   ar
    12     5     1    1
    13     1    20    1
    14    20    21    1
    15    21    22    1
    16    22    23   ar
    17    22    24   ar
    18     1    25    1
    19    25    26    1
    20    26    27    2
    21    26    28   am
    22    28    30    1
    23    30    31   ar
    24    31    32   ar
    25    32    33   ar
    26    33    34    1
    27    33    35   ar
    28    35    36   ar
    29    36    37    1
    30     5     6   ar
    31     6    17    1
    32    17    18    1
    33    18    19    1
    34     9    10   ar
    35    10    11   ar
    36    11     7   ar
    37     6     2   ar
    38    19    17    1
    39    36    30   ar
    40    28    29    1
@<TRIPOS>MOLECULE
*****
 37 40 0 0 0
SMALL
GASTEIGER

@<TRIPOS>ATOM
      1 C           7.5827   -5.3922   25.7303 C.3     1  UNL1        0.0528
      2 C           7.2124   -4.4548   21.9820 C.ar    1  UNL1        0.1932
      3 O           8.1141   -5.6503   21.8941 O.2     1  UNL1       -0.3524
      4 N           8.3626   -6.1469   23.2875 N.ar    1  UNL1       -0.0816
      5 C           7.6145   -5.2584   24.2366 C.ar    1  UNL1        0.0967
      6 C           6.9037   -4.2126   23.4298 C.ar    1  UNL1        0.0329
      7 C           5.2415   -2.6663   19.1567 C.ar    1  UNL1        0.1545
      8 C           5.2943   -3.6048   20.3257 C.ar    1  UNL1        0.0612
      9 C           6.7081   -3.6438   20.8253 C.ar    1  UNL1        0.1593
     10 N           7.5291   -2.7294   19.9651 N.ar    1  UNL1       -0.0742
     11 O           6.6226   -2.1253   18.9338 O.2     1  UNL1       -0.3577
     12 C           4.0216   -2.3283   18.3519 C.3     1  UNL1        0.0673
     13 C           3.9112   -0.8421   16.8422 C.3     1  UNL1        0.0004
     14 C           3.5317   -0.9118   18.2918 C.3     1  UNL1        0.0072
     15 C           3.1523   -0.9814   19.7413 C.3     1  UNL1        0.0004
     16 C           3.0419    0.5047   18.2315 C.3     1  UNL1        0.0004
     17 C           6.0363   -3.1169   23.9749 C.3     1  UNL1        0.0268
     18 C           4.7123   -2.4140   24.0299 C.3     1  UNL1        0.0048
     19 C           5.8579   -1.9221   24.8641 C.3     1  UNL1        0.0048
     20 C           6.9110   -6.5745   26.3633 C.3     1  UNL1        0.0124
     21 C           7.4613   -7.9534   26.1491 C.3     1  UNL1        0.0421
     22 C           8.0944   -8.6938   27.2896 C.2     1  UNL1        0.0503
     23 O           7.6613  -10.0944   27.6072 O.co2   1  UNL1       -0.5492
     24 O           9.1606   -8.0337   28.1126 O.co2   1  UNL1       -0.5492
     25 C           8.2228   -4.3436   26.5910 C.3     1  UNL1        0.0914
     26 C           7.5079   -3.8320   27.8064 C.2     1  UNL1        0.2265
     27 O           6.0353   -3.5524   27.7482 O.2     1  UNL1       -0.2748
     28 N           8.2656   -3.5999   29.0800 N.am    1  UNL1       -0.2832
     29 H           9.2321   -3.7834   29.1182 H       1  UNL1        0.1549
     30 C           7.5507   -3.0883   30.2954 C.ar    1  UNL1        0.0610
     31 C           7.5108   -1.6156   30.5776 C.ar    1  UNL1        0.0164
     32 C           6.7959   -1.1040   31.7930 C.ar    1  UNL1        0.0127
     33 C           6.1209   -2.0651   32.7262 C.ar    1  UNL1        0.0586
     34 CL          5.4060   -1.5534   33.9416 Cl      1  UNL1       -0.0822
     35 C           6.1608   -3.5377   32.4440 C.ar    1  UNL1        0.0240
     36 C           6.8757   -4.0493   31.2286 C.ar    1  UNL1        0.0719
     37 CL          6.9156   -5.5220   30.9463 Cl      1  UNL1       -0.0809
@<TRIPOS>UNITY_ATOM_ATTR
24 1
charge -1
@<TRIPOS>BOND
     1    13    14    1
     2    14    15    1
     3    14    16    1
     4    14    12    1
     5    12     7    1
     6     7     8   ar
     7     8     9   ar
     8     9     2    1
     9     2     3   ar
    10     3     4   ar
    11     4     5   ar
    12     5     1    1
    13     1    20    1
    14    20    21    1
    15    21    22    1
    16    22    23   ar
    17    22    24   ar
    18     1    25    1
    19    25    26    1
    20    26    27    2
    21    26    28   am
    22    28    30    1
    23    30    31   ar
    24    31    32   ar
    25    32    33   ar
    26    33    34    1
    27    33    35   ar
    28    35    36   ar
    29    36    37    1
    30     5     6   ar
    31     6    17    1
    32    17    18    1
    33    18    19    1
    34     9    10   ar
    35    10    11   ar
    36    11     7   ar
    37     6     2   ar
    38    19    17    1
    39    36    30   ar
    40    28    29    1
@<TRIPOS>MOLECULE
*****
 37 40 0 0 0
SMALL
GASTEIGER

@<TRIPOS>ATOM
      1 C           3.4466   -0.9531   18.8362 C.3     1  UNL1        0.0528
      2 C           5.4256   -3.7168   20.7100 C.ar    1  UNL1        0.1932
      3 O           4.2834   -4.5094   20.1470 O.2     1  UNL1       -0.3524
      4 N           3.4031   -3.5706   19.3765 N.ar    1  UNL1       -0.0816
      5 C           4.0012   -2.1978   19.4634 C.ar    1  UNL1        0.0967
      6 C           5.2512   -2.2881   20.2875 C.ar    1  UNL1        0.0329
      7 C           7.8538   -4.9943   23.4555 C.ar    1  UNL1        0.1545
      8 C           6.5318   -4.4205   23.0395 C.ar    1  UNL1        0.0612
      9 C           6.5457   -4.2578   21.5484 C.ar    1  UNL1        0.1593
     10 N           7.8762   -4.7311   21.0428 N.ar    1  UNL1       -0.0742
     11 O           8.6847   -5.1863   22.2215 O.2     1  UNL1       -0.3577
     12 C           8.2715   -5.3192   24.8590 C.3     1  UNL1        0.0673
     13 C           6.9482   -5.6934   26.4743 C.3     1  UNL1        0.0004
     14 C           7.7421   -6.5502   25.5331 C.3     1  UNL1        0.0072
     15 C           8.5360   -7.4070   24.5920 C.3     1  UNL1        0.0004
     16 C           7.2127   -7.7811   26.2072 C.3     1  UNL1        0.0004
     17 C           6.1662   -1.1497   20.6293 C.3     1  UNL1        0.0268
     18 C           7.5518   -0.6144   20.8381 C.3     1  UNL1        0.0048
     19 C           6.3655    0.2868   21.0123 C.3     1  UNL1        0.0048
     20 C           3.9715   -0.4825   17.5122 C.3     1  UNL1        0.0124
     21 C           5.1752    0.4110   17.4573 C.3     1  UNL1        0.0421
     22 C           6.5316   -0.1732   17.1949 C.2     1  UNL1        0.0503
     23 O           7.7026    0.7309   16.9474 O.co2   1  UNL1       -0.5492
     24 O           6.7170   -1.6616   17.1800 O.co2   1  UNL1       -0.5492
     25 C           2.3672   -0.1791   19.5330 C.3     1  UNL1        0.0914
     26 C           2.5768    0.3015   20.9384 C.2     1  UNL1        0.2265
     27 O           3.2138    1.6365   21.1874 O.2     1  UNL1       -0.2748
     28 N           2.1494   -0.5529   22.0948 N.am    1  UNL1       -0.2832
     29 H           1.7313   -1.4291   21.9314 H       1  UNL1        0.1549
     30 C           2.3590   -0.0723   23.5002 C.ar    1  UNL1        0.0610
     31 C           1.5003    1.0262   24.0531 C.ar    1  UNL1        0.0164
     32 C           1.7100    1.5068   25.4585 C.ar    1  UNL1        0.0127
     33 C           2.7783    0.8887   26.3110 C.ar    1  UNL1        0.0586
     34 CL          2.9879    1.3692   27.7164 Cl      1  UNL1       -0.0822
     35 C           3.6369   -0.2099   25.7581 C.ar    1  UNL1        0.0240
     36 C           3.4273   -0.6904   24.3527 C.ar    1  UNL1        0.0719
     37 CL          4.2860   -1.7891   23.7997 Cl      1  UNL1       -0.0809
@<TRIPOS>UNITY_ATOM_ATTR
24 1
charge -1
@<TRIPOS>BOND
     1    13    14    1
     2    14    15    1
     3    14    16    1
     4    14    12    1
     5    12     7    1
     6     7     8   ar
     7     8     9   ar
     8     9     2    1
     9     2     3   ar
    10     3     4   ar
    11     4     5   ar
    12     5     1    1
    13     1    20    1
    14    20    21    1
    15    21    22    1
    16    22    23   ar
    17    22    24   ar
    18     1    25    1
    19    25    26    1
    20    26    27    2
    21    26    28   am
    22    28    30    1
    23    30    31   ar
    24    31    32   ar
    25    32    33   ar
    26    33    34    1
    27    33    35   ar
    28    35    36   ar
    29    36    37    1
    30     5     6   ar
    31     6    17    1
    32    17    18    1
    33    18    19    1
    34     9    10   ar
    35    10    11   ar
    36    11     7   ar
    37     6     2   ar
    38    19    17    1
    39    36    30   ar
    40    28    29    1
@<TRIPOS>MOLECULE
*****
 37 40 0 0 0
SMALL
GASTEIGER

@<TRIPOS>ATOM
      1 C           1.3051    3.7393   19.2267 C.3     1  UNL1        0.0528
      2 C           3.8982    0.9637   18.4282 C.ar    1  UNL1        0.1932
      3 O           4.5914    2.1748   17.8783 O.2     1  UNL1       -0.3524
      4 N           3.7044    3.3620   18.1105 N.ar    1  UNL1       -0.0816
      5 C           2.4630    2.8845   18.8039 C.ar    1  UNL1        0.0967
      6 C           2.5827    1.4023   19.0003 C.ar    1  UNL1        0.0329
      7 C           5.1248   -2.6534   19.1192 C.ar    1  UNL1        0.1545
      8 C           4.5491   -1.3521   19.5938 C.ar    1  UNL1        0.0612
      9 C           4.4274   -0.4398   18.4094 C.ar    1  UNL1        0.1593
     10 N           4.9278   -1.1772   17.2028 N.ar    1  UNL1       -0.0742
     11 O           5.3588   -2.5453   17.6415 O.2     1  UNL1       -0.3577
     12 C           5.4154   -3.8523   19.9725 C.3     1  UNL1        0.0673
     13 C           7.4234   -3.5066   20.5630 C.3     1  UNL1        0.0004
     14 C           6.1210   -3.6850   21.2856 C.3     1  UNL1        0.0072
     15 C           4.8187   -3.8633   22.0082 C.3     1  UNL1        0.0004
     16 C           6.8266   -3.5176   22.5986 C.3     1  UNL1        0.0004
     17 C           1.5656    0.5145   19.6539 C.3     1  UNL1        0.0268
     18 C           1.1618   -0.8317   20.1782 C.3     1  UNL1        0.0048
     19 C           0.2078    0.3228   20.2618 C.3     1  UNL1        0.0048
     20 C          -0.0035    3.6421   18.5001 C.3     1  UNL1        0.0124
     21 C          -1.1843    4.4379   18.9720 C.3     1  UNL1        0.0421
     22 C          -2.4151    3.7346   19.4624 C.2     1  UNL1        0.0503
     23 O          -2.3241    2.7803   20.6161 O.co2   1  UNL1       -0.5492
     24 O          -3.7368    3.9856   18.7991 O.co2   1  UNL1       -0.5492
     25 C           1.4558    4.6911   20.3761 C.3     1  UNL1        0.0914
     26 C           1.2048    4.2200   21.7780 C.2     1  UNL1        0.2265
     27 O           2.0024    4.7881   22.9143 O.2     1  UNL1       -0.2748
     28 N           0.1562    3.1808   22.0435 N.am    1  UNL1       -0.2832
     29 H          -0.3672    2.8079   21.2977 H       1  UNL1        0.1549
     30 C          -0.0948    2.7096   23.4453 C.ar    1  UNL1        0.0610
     31 C          -1.2306    3.2854   24.2380 C.ar    1  UNL1        0.0164
     32 C          -1.4816    2.8143   25.6397 C.ar    1  UNL1        0.0127
     33 C          -0.5968    1.7674   26.2489 C.ar    1  UNL1        0.0586
     34 CL         -0.8478    1.2962   27.6507 Cl      1  UNL1       -0.0822
     35 C           0.5390    1.1916   25.4562 C.ar    1  UNL1        0.0240
     36 C           0.7900    1.6627   24.0545 C.ar    1  UNL1        0.0719
     37 CL          1.9259    1.0869   23.2617 Cl      1  UNL1       -0.0809
@<TRIPOS>UNITY_ATOM_ATTR
24 1
charge -1
@<TRIPOS>BOND
     1    13    14    1
     2    14    15    1
     3    14    16    1
     4    14    12    1
     5    12     7    1
     6     7     8   ar
     7     8     9   ar
     8     9     2    1
     9     2     3   ar
    10     3     4   ar
    11     4     5   ar
    12     5     1    1
    13     1    20    1
    14    20    21    1
    15    21    22    1
    16    22    23   ar
    17    22    24   ar
    18     1    25    1
    19    25    26    1
    20    26    27    2
    21    26    28   am
    22    28    30    1
    23    30    31   ar
    24    31    32   ar
    25    32    33   ar
    26    33    34    1
    27    33    35   ar
    28    35    36   ar
    29    36    37    1
    30     5     6   ar
    31     6    17    1
    32    17    18    1
    33    18    19    1
    34     9    10   ar
    35    10    11   ar
    36    11     7   ar
    37     6     2   ar
    38    19    17    1
    39    36    30   ar
    40    28    29    1
@<TRIPOS>MOLECULE
*****
 37 40 0 0 0
SMALL
GASTEIGER

@<TRIPOS>ATOM
      1 C           7.3033   -2.3261   31.5766 C.3     1  UNL1        0.0528
      2 C           4.8318   -0.9205   34.2188 C.ar    1  UNL1        0.1932
      3 O           4.1770   -2.2254   33.8748 O.2     1  UNL1       -0.3524
      4 N           5.0231   -2.9108   32.8431 N.ar    1  UNL1       -0.0816
      5 C           6.2009   -2.0295   32.5495 C.ar    1  UNL1        0.0967
      6 C           6.0826   -0.7994   33.3998 C.ar    1  UNL1        0.0329
      7 C           3.5691    1.1172   37.2715 C.ar    1  UNL1        0.1545
      8 C           4.0664   -0.1613   36.6648 C.ar    1  UNL1        0.0612
      9 C           4.3248    0.0865   35.2082 C.ar    1  UNL1        0.1593
     10 N           3.9872    1.5183   34.9145 N.ar    1  UNL1       -0.0742
     11 O           3.5201    2.1553   36.1898 O.2     1  UNL1       -0.3577
     12 C           3.1878    1.3218   38.7077 C.3     1  UNL1        0.0673
     13 C           1.4438    0.2470   39.2585 C.3     1  UNL1        0.0004
     14 C           1.7795    1.6959   39.0637 C.3     1  UNL1        0.0072
     15 C           2.1151    3.1449   38.8689 C.3     1  UNL1        0.0004
     16 C           0.3712    2.0700   39.4197 C.3     1  UNL1        0.0004
     17 C           7.0460    0.3500   33.4264 C.3     1  UNL1        0.0268
     18 C           7.3056    1.8274   33.4381 C.3     1  UNL1        0.0048
     19 C           8.4549    0.8636   33.4606 C.3     1  UNL1        0.0048
     20 C           8.3499   -3.3453   31.9169 C.3     1  UNL1        0.0124
     21 C           8.4105   -4.6394   31.1608 C.3     1  UNL1        0.0421
     22 C           7.1629   -5.4458   30.9532 C.2     1  UNL1        0.0503
     23 O           6.5350   -6.1670   32.1088 O.co2   1  UNL1       -0.5492
     24 O           6.5432   -5.5310   29.5898 O.co2   1  UNL1       -0.5492
     25 C           7.3591   -1.6036   30.2633 C.3     1  UNL1        0.0914
     26 C           6.1672   -0.8310   29.7810 C.2     1  UNL1        0.2265
     27 O           6.1047    0.6542   29.9820 O.2     1  UNL1       -0.2748
     28 N           5.0379   -1.5436   29.0978 N.am    1  UNL1       -0.2832
     29 H           5.0789   -2.5183   28.9659 H       1  UNL1        0.1549
     30 C           3.8460   -0.7710   28.6155 C.ar    1  UNL1        0.0610
     31 C           3.7758   -0.3137   27.1887 C.ar    1  UNL1        0.0164
     32 C           2.5839    0.4588   26.7065 C.ar    1  UNL1        0.0127
     33 C           1.4622    0.7741   27.6511 C.ar    1  UNL1        0.0586
     34 CL          0.2703    1.5467   27.1688 Cl      1  UNL1       -0.0822
     35 C           1.5324    0.3169   29.0780 C.ar    1  UNL1        0.0240
     36 C           2.7243   -0.4557   29.5602 C.ar    1  UNL1        0.0719
     37 CL          2.7945   -0.9130   30.9871 Cl      1  UNL1       -0.0809
@<TRIPOS>UNITY_ATOM_ATTR
24 1
charge -1
@<TRIPOS>BOND
     1    13    14    1
     2    14    15    1
     3    14    16    1
     4    14    12    1
     5    12     7    1
     6     7     8   ar
     7     8     9   ar
     8     9     2    1
     9     2     3   ar
    10     3     4   ar
    11     4     5   ar
    12     5     1    1
    13     1    20    1
    14    20    21    1
    15    21    22    1
    16    22    23   ar
    17    22    24   ar
    18     1    25    1
    19    25    26    1
    20    26    27    2
    21    26    28   am
    22    28    30    1
    23    30    31   ar
    24    31    32   ar
    25    32    33   ar
    26    33    34    1
    27    33    35   ar
    28    35    36   ar
    29    36    37    1
    30     5     6   ar
    31     6    17    1
    32    17    18    1
    33    18    19    1
    34     9    10   ar
    35    10    11   ar
    36    11     7   ar
    37     6     2   ar
    38    19    17    1
    39    36    30   ar
    40    28    29    1
@<TRIPOS>MOLECULE
*****
 37 40 0 0 0
SMALL
GASTEIGER

@<TRIPOS>ATOM
      1 C           5.2112   -2.5270   20.6616 C.3     1  UNL1        0.0528
      2 C           7.3501   -4.4374   23.2772 C.ar    1  UNL1        0.1932
      3 O           7.8458   -5.0445   21.9982 O.2     1  UNL1       -0.3524
      4 N           7.1049   -4.4028   20.8628 N.ar    1  UNL1       -0.0816
      5 C           6.1513   -3.3990   21.4399 C.ar    1  UNL1        0.0967
      6 C           6.3028   -3.4204   22.9321 C.ar    1  UNL1        0.0329
      7 C           8.0181   -5.8581   26.8269 C.ar    1  UNL1        0.1545
      8 C           7.2485   -5.8577   25.5393 C.ar    1  UNL1        0.0612
      9 C           7.8192   -4.7860   24.6586 C.ar    1  UNL1        0.1593
     10 N           8.9415   -4.1240   25.4018 N.ar    1  UNL1       -0.0742
     11 O           9.0644   -4.7866   26.7420 O.2     1  UNL1       -0.3577
     12 C           7.7826   -6.7699   27.9944 C.3     1  UNL1        0.0673
     13 C           6.7143   -5.4422   29.2577 C.3     1  UNL1        0.0004
     14 C           7.9648   -6.2596   29.3931 C.3     1  UNL1        0.0072
     15 C           9.2151   -7.0770   29.5286 C.3     1  UNL1        0.0004
     16 C           8.1468   -5.7493   30.7918 C.3     1  UNL1        0.0004
     17 C           5.5409   -2.5735   23.9079 C.3     1  UNL1        0.0268
     18 C           5.3963   -1.9828   25.2792 C.3     1  UNL1        0.0048
     19 C           4.3659   -1.6975   24.2271 C.3     1  UNL1        0.0048
     20 C           3.7990   -2.9726   20.4226 C.3     1  UNL1        0.0124
     21 C           3.5025   -3.9860   19.3571 C.3     1  UNL1        0.0421
     22 C           3.8191   -5.4335   19.5899 C.2     1  UNL1        0.0503
     23 O           3.0284   -6.2227   20.5909 O.co2   1  UNL1       -0.5492
     24 O           4.9264   -6.0920   18.8216 O.co2   1  UNL1       -0.5492
     25 C           5.6833   -1.2093   20.1222 C.3     1  UNL1        0.0914
     26 C           4.7184   -0.2936   19.4290 C.2     1  UNL1        0.2265
     27 O           4.6113   -0.3106   17.9329 O.2     1  UNL1       -0.2748
     28 N           3.8608    0.6391   20.2318 N.am    1  UNL1       -0.2832
     29 H           3.9312    0.6502   21.2137 H       1  UNL1        0.1549
     30 C           2.8960    1.5549   19.5385 C.ar    1  UNL1        0.0610
     31 C           3.3427    2.9148   19.0904 C.ar    1  UNL1        0.0164
     32 C           2.3779    3.8305   18.3972 C.ar    1  UNL1        0.0127
     33 C           0.9663    3.3862   18.1521 C.ar    1  UNL1        0.0586
     34 CL          0.0015    4.3020   17.4589 Cl      1  UNL1       -0.0822
     35 C           0.5196    2.0263   18.6003 C.ar    1  UNL1        0.0240
     36 C           1.4844    1.1106   19.2935 C.ar    1  UNL1        0.0719
     37 CL          1.0377   -0.2495   19.7417 Cl      1  UNL1       -0.0809
@<TRIPOS>UNITY_ATOM_ATTR
24 1
charge -1
@<TRIPOS>BOND
     1    13    14    1
     2    14    15    1
     3    14    16    1
     4    14    12    1
     5    12     7    1
     6     7     8   ar
     7     8     9   ar
     8     9     2    1
     9     2     3   ar
    10     3     4   ar
    11     4     5   ar
    12     5     1    1
    13     1    20    1
    14    20    21    1
    15    21    22    1
    16    22    23   ar
    17    22    24   ar
    18     1    25    1
    19    25    26    1
    20    26    27    2
    21    26    28   am
    22    28    30    1
    23    30    31   ar
    24    31    32   ar
    25    32    33   ar
    26    33    34    1
    27    33    35   ar
    28    35    36   ar
    29    36    37    1
    30     5     6   ar
    31     6    17    1
    32    17    18    1
    33    18    19    1
    34     9    10   ar
    35    10    11   ar
    36    11     7   ar
    37     6     2   ar
    38    19    17    1
    39    36    30   ar
    40    28    29    1
@<TRIPOS>MOLECULE
*****
 37 40 0 0 0
SMALL
GASTEIGER

@<TRIPOS>ATOM
      1 C           3.2221   -0.1662   18.8313 C.3     1  UNL1        0.0528
      2 C           4.7010   -3.0573   20.9574 C.ar    1  UNL1        0.1932
      3 O           3.7569   -3.8073   20.0650 O.2     1  UNL1       -0.3524
      4 N           3.0880   -2.8155   19.1600 N.ar    1  UNL1       -0.0816
      5 C           3.6187   -1.4526   19.4930 C.ar    1  UNL1        0.0967
      6 C           4.6155   -1.6021   20.6038 C.ar    1  UNL1        0.0329
      7 C           6.5297   -4.2232   24.1763 C.ar    1  UNL1        0.1545
      8 C           5.4528   -3.4319   23.4950 C.ar    1  UNL1        0.0612
      9 C           5.5767   -3.6572   22.0171 C.ar    1  UNL1        0.1593
     10 N           6.7301   -4.5877   21.7851 N.ar    1  UNL1       -0.0742
     11 O           7.3191   -4.9375   23.1196 O.2     1  UNL1       -0.3577
     12 C           6.7742   -4.2887   25.6548 C.3     1  UNL1        0.0673
     13 C           8.4795   -5.3391   26.3540 C.3     1  UNL1        0.0004
     14 C           8.1090   -3.8924   26.2124 C.3     1  UNL1        0.0072
     15 C           7.7387   -2.4457   26.0709 C.3     1  UNL1        0.0004
     16 C           9.4439   -3.4961   26.7701 C.3     1  UNL1        0.0004
     17 C           5.3909   -0.4913   21.2480 C.3     1  UNL1        0.0268
     18 C           6.6178   -0.0082   21.9632 C.3     1  UNL1        0.0048
     19 C           5.5070    0.9495   21.6487 C.3     1  UNL1        0.0048
     20 C           4.2465    0.6457   18.0955 C.3     1  UNL1        0.0124
     21 C           5.1612   -0.0172   17.1085 C.3     1  UNL1        0.0421
     22 C           6.4677   -0.5941   17.5669 C.2     1  UNL1        0.0503
     23 O           7.4840    0.2860   18.2321 O.co2   1  UNL1       -0.5492
     24 O           6.7578   -2.0512   17.3602 O.co2   1  UNL1       -0.5492
     25 C           1.8011    0.3084   18.9055 C.3     1  UNL1        0.0914
     26 C           1.1493    0.5189   20.2400 C.2     1  UNL1        0.2265
     27 O          -0.1866   -0.0994   20.5280 O.2     1  UNL1       -0.2748
     28 N           1.8335    1.3476   21.2865 N.am    1  UNL1       -0.2832
     29 H           2.7103    1.7535   21.0974 H       1  UNL1        0.1549
     30 C           1.1817    1.5581   22.6210 C.ar    1  UNL1        0.0610
     31 C           0.0938    2.5797   22.7716 C.ar    1  UNL1        0.0164
     32 C          -0.5580    2.7902   24.1061 C.ar    1  UNL1        0.0127
     33 C          -0.1218    1.9789   25.2900 C.ar    1  UNL1        0.0586
     34 CL         -0.7736    2.1894   26.6245 Cl      1  UNL1       -0.0822
     35 C           0.9661    0.9573   25.1394 C.ar    1  UNL1        0.0240
     36 C           1.6178    0.7469   23.8050 C.ar    1  UNL1        0.0719
     37 CL          2.7058   -0.2748   23.6543 Cl      1  UNL1       -0.0809
@<TRIPOS>UNITY_ATOM_ATTR
24 1
charge -1
@<TRIPOS>BOND
     1    13    14    1
     2    14    15    1
     3    14    16    1
     4    14    12    1
     5    12     7    1
     6     7     8   ar
     7     8     9   ar
     8     9     2    1
     9     2     3   ar
    10     3     4   ar
    11     4     5   ar
    12     5     1    1
    13     1    20    1
    14    20    21    1
    15    21    22    1
    16    22    23   ar
    17    22    24   ar
    18     1    25    1
    19    25    26    1
    20    26    27    2
    21    26    28   am
    22    28    30    1
    23    30    31   ar
    24    31    32   ar
    25    32    33   ar
    26    33    34    1
    27    33    35   ar
    28    35    36   ar
    29    36    37    1
    30     5     6   ar
    31     6    17    1
    32    17    18    1
    33    18    19    1
    34     9    10   ar
    35    10    11   ar
    36    11     7   ar
    37     6     2   ar
    38    19    17    1
    39    36    30   ar
    40    28    29    1
