@<TRIPOS>MOLECULE
*****
 37 38 0 0 0
SMALL
GASTEIGER

@<TRIPOS>ATOM
      1 P          -5.9212  -15.5123   24.3615 P.3     1  UNL1        0.3697
      2 O          -4.8970  -14.7294   25.1285 O.2     1  UNL1       -0.2553
      3 O          -5.5286  -14.7943   23.1044 O.3     1  UNL1       -0.3218
      4 H          -4.8195  -14.1623   23.3010 H       1  UNL1        0.2198
      5 C          -6.9454  -16.2951   23.5946 C.3     1  UNL1        0.2579
      6 O          -6.5435  -17.0523   22.3638 O.3     1  UNL1       -0.3426
      7 C          -6.7222  -18.5405   22.3068 C.3     1  UNL1        0.1387
      8 C          -8.1003  -19.1280   22.2307 C.3     1  UNL1        0.0342
      9 C          -5.5229  -19.4412   22.3261 C.3     1  UNL1        0.1384
     10 N          -4.4663  -19.3060   21.2699 N.ar    1  UNL1       -0.2918
     11 C          -4.2794  -20.2116   20.0888 C.ar    1  UNL1        0.1798
     12 N          -3.1088  -19.7067   19.2984 N.ar    1  UNL1       -0.2195
     13 C          -2.5723  -18.4891   19.9910 C.ar    1  UNL1        0.1481
     14 C          -1.4282  -17.5739   19.6695 C.ar    1  UNL1        0.1480
     15 N          -0.5891  -17.8216   18.4510 N.pl3   1  UNL1       -0.3413
     16 N          -1.1231  -16.4111   20.5665 N.ar    1  UNL1       -0.2078
     17 C          -1.9621  -16.1634   21.7850 C.ar    1  UNL1        0.2015
     18 N          -3.1062  -17.0786   22.1065 N.ar    1  UNL1       -0.2048
     19 C          -3.4113  -18.2415   21.2095 C.ar    1  UNL1        0.1674
     20 H          -0.7894  -18.5848   17.8623 H       1  UNL1        0.1438
     21 H           0.1618  -17.2209   18.2401 H       1  UNL1        0.1438
     22 O          -6.3139  -16.2302   25.6187 O.3     1  UNL1       -0.2926
     23 C          -7.0521  -15.4991   26.7006 C.3     1  UNL1        0.1514
     24 C          -8.4508  -15.9045   27.0600 C.3     1  UNL1        0.0326
     25 C          -8.9267  -17.2966   26.7678 C.3     1  UNL1        0.0026
     26 C          -9.6014  -17.6001   25.4629 C.3     1  UNL1        0.0001
     27 C         -10.0079  -19.0069   25.1381 C.3     1  UNL1        0.0000
     28 C         -11.3237  -19.2718   24.4683 C.3     1  UNL1        0.0000
     29 C         -12.5408  -18.4932   24.8717 C.3     1  UNL1        0.0000
     30 C         -13.5299  -18.0559   23.8323 C.3     1  UNL1        0.0000
     31 C         -13.0541  -17.3722   22.5848 C.3     1  UNL1        0.0000
     32 C         -12.0109  -16.2977   22.6697 C.3     1  UNL1        0.0000
     33 C         -11.1678  -15.9746   21.4719 C.3     1  UNL1        0.0010
     34 C         -11.6018  -16.4204   20.1071 C.3     1  UNL1        0.0140
     35 C         -11.0565  -17.6904   19.5242 C.3     1  UNL1        0.0770
     36 C         -11.1548  -20.2333   21.1128 C.1     1  UNL1       -0.0141
     37 C         -11.1056  -18.9619   20.3185 C.1     1  UNL1       -0.0779
@<TRIPOS>BOND
     1    36    37    3
     2    37    35    1
     3    35    34    1
     4    34    33    1
     5    33    32    1
     6    32    31    1
     7    31    30    1
     8    30    29    1
     9    29    28    1
    10    28    27    1
    11    27    26    1
    12    26    25    1
    13    25    24    1
    14    24    23    1
    15    23    22    1
    16    22     1    1
    17     1     2    2
    18     1     3    1
    19     1     5    1
    20     5     6    1
    21     6     7    1
    22     7     8    1
    23     7     9    1
    24     9    10    1
    25    10    11   ar
    26    11    12   ar
    27    12    13   ar
    28    13    14   ar
    29    14    15    1
    30    14    16   ar
    31    16    17   ar
    32    17    18   ar
    33    18    19   ar
    34    19    10   ar
    35    19    13   ar
    36     3     4    1
    37    15    20    1
    38    15    21    1
@<TRIPOS>MOLECULE
*****
 37 38 0 0 0
SMALL
GASTEIGER

@<TRIPOS>ATOM
      1 P          -8.2306  -15.4933   24.1466 P.3     1  UNL1        0.3697
      2 O          -9.2438  -15.1854   25.2090 O.2     1  UNL1       -0.2553
      3 O          -7.7203  -14.0850   24.2252 O.3     1  UNL1       -0.3218
      4 H          -8.2280  -13.5937   24.8898 H       1  UNL1        0.2198
      5 C          -7.2173  -15.8012   23.0843 C.3     1  UNL1        0.2579
      6 O          -5.7723  -15.4656   23.3062 O.3     1  UNL1       -0.3426
      7 C          -4.9778  -16.2144   24.3348 C.3     1  UNL1        0.1387
      8 C          -5.0694  -15.8272   25.7811 C.3     1  UNL1        0.0342
      9 C          -4.0917  -17.3504   23.9172 C.3     1  UNL1        0.1384
     10 N          -3.3093  -17.2611   22.6405 N.ar    1  UNL1       -0.2918
     11 C          -2.3271  -16.1856   22.2817 C.ar    1  UNL1        0.1798
     12 N          -1.7826  -16.4915   20.9180 N.ar    1  UNL1       -0.2195
     13 C          -2.4282  -17.7559   20.4339 C.ar    1  UNL1        0.1481
     14 C          -2.2787  -18.5356   19.1612 C.ar    1  UNL1        0.1480
     15 N          -1.3352  -18.0600   18.0966 N.pl3   1  UNL1       -0.3413
     16 N          -3.0729  -19.7910   18.9532 N.ar    1  UNL1       -0.2078
     17 C          -4.0165  -20.2667   20.0178 C.ar    1  UNL1        0.2015
     18 N          -4.1659  -19.4870   21.2904 N.ar    1  UNL1       -0.2048
     19 C          -3.3717  -18.2316   21.4985 C.ar    1  UNL1        0.1674
     20 H          -0.8139  -17.2360   18.2332 H       1  UNL1        0.1438
     21 H          -1.2371  -18.5717   17.2613 H       1  UNL1        0.1438
     22 O          -8.7409  -16.9017   24.0681 O.3     1  UNL1       -0.2926
     23 C          -9.0840  -17.6463   25.3242 C.3     1  UNL1        0.1514
     24 C         -10.1061  -18.7436   25.2901 C.3     1  UNL1        0.0326
     25 C          -9.7928  -20.0393   24.6024 C.3     1  UNL1        0.0026
     26 C          -9.7452  -20.1010   23.1045 C.3     1  UNL1        0.0001
     27 C         -11.0172  -20.2144   22.3177 C.3     1  UNL1        0.0000
     28 C         -11.0148  -19.9361   20.8437 C.3     1  UNL1        0.0000
     29 C          -9.9381  -19.0812   20.2436 C.3     1  UNL1        0.0000
     30 C         -10.0801  -17.5879   20.2415 C.3     1  UNL1        0.0000
     31 C         -11.3451  -16.9555   19.7419 C.3     1  UNL1        0.0000
     32 C         -12.3914  -16.5002   20.7156 C.3     1  UNL1        0.0000
     33 C         -11.9882  -16.0079   22.0739 C.3     1  UNL1        0.0010
     34 C         -12.2047  -16.8730   23.2800 C.3     1  UNL1        0.0140
     35 C         -13.3989  -17.7780   23.3493 C.3     1  UNL1        0.0770
     36 C         -14.5470  -18.5454   26.0125 C.1     1  UNL1       -0.0141
     37 C         -13.9729  -18.1617   24.6809 C.1     1  UNL1       -0.0779
@<TRIPOS>BOND
     1    36    37    3
     2    37    35    1
     3    35    34    1
     4    34    33    1
     5    33    32    1
     6    32    31    1
     7    31    30    1
     8    30    29    1
     9    29    28    1
    10    28    27    1
    11    27    26    1
    12    26    25    1
    13    25    24    1
    14    24    23    1
    15    23    22    1
    16    22     1    1
    17     1     2    2
    18     1     3    1
    19     1     5    1
    20     5     6    1
    21     6     7    1
    22     7     8    1
    23     7     9    1
    24     9    10    1
    25    10    11   ar
    26    11    12   ar
    27    12    13   ar
    28    13    14   ar
    29    14    15    1
    30    14    16   ar
    31    16    17   ar
    32    17    18   ar
    33    18    19   ar
    34    19    10   ar
    35    19    13   ar
    36     3     4    1
    37    15    20    1
    38    15    21    1
@<TRIPOS>MOLECULE
*****
 37 38 0 0 0
SMALL
GASTEIGER

@<TRIPOS>ATOM
      1 P          -6.2988  -15.3490   25.2884 P.3     1  UNL1        0.3697
      2 O          -7.3706  -15.2610   26.3341 O.2     1  UNL1       -0.2553
      3 O          -5.4881  -14.3305   26.0335 O.3     1  UNL1       -0.3218
      4 H          -5.9668  -14.0572   26.8317 H       1  UNL1        0.2198
      5 C          -5.2270  -15.4371   24.2427 C.3     1  UNL1        0.2579
      6 O          -5.1676  -16.6241   23.3276 O.3     1  UNL1       -0.3426
      7 C          -4.3159  -17.8056   23.6860 C.3     1  UNL1        0.1387
      8 C          -3.4504  -17.7624   24.9104 C.3     1  UNL1        0.0342
      9 C          -4.3295  -19.0303   22.8200 C.3     1  UNL1        0.1384
     10 N          -3.7449  -18.9794   21.4395 N.ar    1  UNL1       -0.2918
     11 C          -4.1854  -19.8013   20.2646 C.ar    1  UNL1        0.1798
     12 N          -3.3299  -19.4274   19.0906 N.ar    1  UNL1       -0.2195
     13 C          -2.3607  -18.3744   19.5399 C.ar    1  UNL1        0.1481
     14 C          -1.2778  -17.6319   18.8147 C.ar    1  UNL1        0.1480
     15 N          -1.0213  -17.9088   17.3630 N.pl3   1  UNL1       -0.3413
     16 N          -0.4514  -16.6125   19.5413 N.ar    1  UNL1       -0.2078
     17 C          -0.7079  -16.3357   20.9930 C.ar    1  UNL1        0.2015
     18 N          -1.7908  -17.0781   21.7182 N.ar    1  UNL1       -0.2048
     19 C          -2.6172  -18.0975   20.9917 C.ar    1  UNL1        0.1674
     20 H          -1.5637  -18.5778   16.8862 H       1  UNL1        0.1438
     21 H          -0.3105  -17.4215   16.8870 H       1  UNL1        0.1438
     22 O          -7.1095  -16.3676   24.5432 O.3     1  UNL1       -0.2926
     23 C          -8.4819  -16.0182   24.0489 C.3     1  UNL1        0.1514
     24 C          -8.7423  -15.9047   22.5761 C.3     1  UNL1        0.0326
     25 C          -8.4513  -17.0653   21.6714 C.3     1  UNL1        0.0026
     26 C          -7.7134  -18.2602   22.1982 C.3     1  UNL1        0.0001
     27 C          -7.6433  -19.5176   21.3835 C.3     1  UNL1        0.0000
     28 C          -7.8661  -19.4643   19.9011 C.3     1  UNL1        0.0000
     29 C          -9.1971  -19.8521   19.3281 C.3     1  UNL1        0.0000
     30 C         -10.4507  -19.2069   19.8401 C.3     1  UNL1        0.0000
     31 C         -11.3396  -19.9476   20.7946 C.3     1  UNL1        0.0000
     32 C         -10.9915  -20.0053   22.2525 C.3     1  UNL1        0.0000
     33 C         -11.1859  -18.7960   23.1185 C.3     1  UNL1        0.0010
     34 C         -12.4892  -18.0541   23.0889 C.3     1  UNL1        0.0140
     35 C         -12.5330  -16.6337   22.6088 C.3     1  UNL1        0.0770
     36 C         -11.7445  -15.9782   19.7895 C.1     1  UNL1       -0.0141
     37 C         -12.1387  -16.3059   21.1992 C.1     1  UNL1       -0.0779
@<TRIPOS>BOND
     1    36    37    3
     2    37    35    1
     3    35    34    1
     4    34    33    1
     5    33    32    1
     6    32    31    1
     7    31    30    1
     8    30    29    1
     9    29    28    1
    10    28    27    1
    11    27    26    1
    12    26    25    1
    13    25    24    1
    14    24    23    1
    15    23    22    1
    16    22     1    1
    17     1     2    2
    18     1     3    1
    19     1     5    1
    20     5     6    1
    21     6     7    1
    22     7     8    1
    23     7     9    1
    24     9    10    1
    25    10    11   ar
    26    11    12   ar
    27    12    13   ar
    28    13    14   ar
    29    14    15    1
    30    14    16   ar
    31    16    17   ar
    32    17    18   ar
    33    18    19   ar
    34    19    10   ar
    35    19    13   ar
    36     3     4    1
    37    15    20    1
    38    15    21    1
@<TRIPOS>MOLECULE
*****
 37 38 0 0 0
SMALL
GASTEIGER

@<TRIPOS>ATOM
      1 P          -6.9152  -15.3646   24.7136 P.3     1  UNL1        0.3697
      2 O          -8.1279  -15.1658   25.5736 O.2     1  UNL1       -0.2553
      3 O          -6.0544  -14.7743   25.7910 O.3     1  UNL1       -0.3218
      4 H          -6.6083  -14.5259   26.5475 H       1  UNL1        0.2198
      5 C          -5.7024  -15.5634   23.8536 C.3     1  UNL1        0.2579
      6 O          -5.5048  -16.8587   23.1235 O.3     1  UNL1       -0.3426
      7 C          -4.4196  -17.8022   23.5501 C.3     1  UNL1        0.1387
      8 C          -3.7127  -17.5910   24.8561 C.3     1  UNL1        0.0342
      9 C          -4.0411  -18.9570   22.6706 C.3     1  UNL1        0.1384
     10 N          -3.7158  -18.7237   21.2250 N.ar    1  UNL1       -0.2918
     11 C          -4.6897  -18.7620   20.0848 C.ar    1  UNL1        0.1798
     12 N          -3.9353  -18.4731   18.8210 N.ar    1  UNL1       -0.2195
     13 C          -2.4951  -18.2562   19.1801 C.ar    1  UNL1        0.1481
     14 C          -1.2897  -17.9378   18.3461 C.ar    1  UNL1        0.1480
     15 N          -1.4254  -17.7829   16.8603 N.pl3   1  UNL1       -0.3413
     16 N           0.0513  -17.7742   18.9979 N.ar    1  UNL1       -0.2078
     17 C           0.1869  -17.9291   20.4837 C.ar    1  UNL1        0.2015
     18 N          -1.0185  -18.2476   21.3177 N.ar    1  UNL1       -0.2048
     19 C          -2.3595  -18.4111   20.6659 C.ar    1  UNL1        0.1674
     20 H          -2.3055  -17.8903   16.4325 H       1  UNL1        0.1438
     21 H          -0.6342  -17.5739   16.3129 H       1  UNL1        0.1438
     22 O          -7.7759  -15.9548   23.6362 O.3     1  UNL1       -0.2926
     23 C          -8.1191  -15.1439   22.4219 C.3     1  UNL1        0.1514
     24 C          -9.1591  -15.6370   21.4601 C.3     1  UNL1        0.0326
     25 C         -10.4217  -16.2615   21.9758 C.3     1  UNL1        0.0026
     26 C         -11.2022  -17.2026   21.1068 C.3     1  UNL1        0.0001
     27 C         -12.6483  -17.4708   21.4015 C.3     1  UNL1        0.0000
     28 C         -13.1797  -17.2745   22.7903 C.3     1  UNL1        0.0000
     29 C         -13.1446  -18.4066   23.7739 C.3     1  UNL1        0.0000
     30 C         -12.0585  -18.4696   24.8065 C.3     1  UNL1        0.0000
     31 C         -10.6805  -18.9179   24.4192 C.3     1  UNL1        0.0000
     32 C         -10.5030  -19.9783   23.3732 C.3     1  UNL1        0.0000
     33 C          -9.1243  -20.3974   22.9565 C.3     1  UNL1        0.0010
     34 C          -8.0678  -19.3615   22.7104 C.3     1  UNL1        0.0140
     35 C          -7.8230  -18.8555   21.3197 C.3     1  UNL1        0.0770
     36 C          -9.3617  -20.0021   19.0137 C.1     1  UNL1       -0.0141
     37 C          -8.5924  -19.4288   20.1667 C.1     1  UNL1       -0.0779
@<TRIPOS>BOND
     1    36    37    3
     2    37    35    1
     3    35    34    1
     4    34    33    1
     5    33    32    1
     6    32    31    1
     7    31    30    1
     8    30    29    1
     9    29    28    1
    10    28    27    1
    11    27    26    1
    12    26    25    1
    13    25    24    1
    14    24    23    1
    15    23    22    1
    16    22     1    1
    17     1     2    2
    18     1     3    1
    19     1     5    1
    20     5     6    1
    21     6     7    1
    22     7     8    1
    23     7     9    1
    24     9    10    1
    25    10    11   ar
    26    11    12   ar
    27    12    13   ar
    28    13    14   ar
    29    14    15    1
    30    14    16   ar
    31    16    17   ar
    32    17    18   ar
    33    18    19   ar
    34    19    10   ar
    35    19    13   ar
    36     3     4    1
    37    15    20    1
    38    15    21    1
@<TRIPOS>MOLECULE
*****
 37 38 0 0 0
SMALL
GASTEIGER

@<TRIPOS>ATOM
      1 P         -16.7127   -0.4120   20.0471 P.3     1  UNL1        0.3697
      2 O         -16.6685   -1.8417   19.5956 O.2     1  UNL1       -0.2553
      3 O         -18.0077   -0.6760   20.7565 O.3     1  UNL1       -0.3218
      4 H         -18.2599   -1.6047   20.6341 H       1  UNL1        0.2198
      5 C         -16.7569    1.0177   20.4986 C.3     1  UNL1        0.2579
      6 O         -15.9419    2.0552   19.7850 O.3     1  UNL1       -0.3426
      7 C         -16.2399    3.5116   19.9854 C.3     1  UNL1        0.1387
      8 C         -17.4147    4.1386   19.2949 C.3     1  UNL1        0.0342
      9 C         -15.3631    4.3410   20.8762 C.3     1  UNL1        0.1384
     10 N         -15.6346    4.4012   22.3502 N.ar    1  UNL1       -0.2918
     11 C         -16.9361    4.0755   23.0210 C.ar    1  UNL1        0.1798
     12 N         -16.7581    4.2708   24.4976 N.ar    1  UNL1       -0.2195
     13 C         -15.3466    4.7172   24.7393 C.ar    1  UNL1        0.1481
     14 C         -14.6039    5.0607   25.9964 C.ar    1  UNL1        0.1480
     15 N         -15.2982    4.9801   27.3236 N.pl3   1  UNL1       -0.3413
     16 N         -13.1668    5.4848   25.9263 N.ar    1  UNL1       -0.2078
     17 C         -12.4725    5.5654   24.5991 C.ar    1  UNL1        0.2015
     18 N         -13.2152    5.2219   23.3420 N.ar    1  UNL1       -0.2048
     19 C         -14.6522    4.7978   23.4121 C.ar    1  UNL1        0.1674
     20 H         -16.2414    4.7017   27.3695 H       1  UNL1        0.1438
     21 H         -14.8107    5.2055   28.1486 H       1  UNL1        0.1438
     22 O         -15.4177   -0.1479   19.3377 O.3     1  UNL1       -0.2926
     23 C         -15.1431   -0.7944   18.0124 C.3     1  UNL1        0.1514
     24 C         -13.7452   -1.2013   17.6516 C.3     1  UNL1        0.0326
     25 C         -12.5797   -0.6258   18.4003 C.3     1  UNL1        0.0026
     26 C         -11.2732   -1.3619   18.4350 C.3     1  UNL1        0.0001
     27 C         -10.6590   -1.8604   17.1606 C.3     1  UNL1        0.0000
     28 C         -10.6581   -3.3284   16.8524 C.3     1  UNL1        0.0000
     29 C          -9.5823   -4.2115   17.4118 C.3     1  UNL1        0.0000
     30 C          -9.6642   -4.6852   18.8327 C.3     1  UNL1        0.0000
     31 C          -9.7231   -6.1540   19.1314 C.3     1  UNL1        0.0000
     32 C         -10.3299   -7.0981   18.1362 C.3     1  UNL1        0.0000
     33 C         -11.8199   -7.2543   18.0626 C.3     1  UNL1        0.0010
     34 C         -12.6972   -6.5579   19.0602 C.3     1  UNL1        0.0140
     35 C         -13.2904   -5.2199   18.7323 C.3     1  UNL1        0.0770
     36 C         -13.6325   -3.1616   20.8879 C.1     1  UNL1       -0.0141
     37 C         -13.4614   -4.1907   19.8101 C.1     1  UNL1       -0.0779
@<TRIPOS>BOND
     1    36    37    3
     2    37    35    1
     3    35    34    1
     4    34    33    1
     5    33    32    1
     6    32    31    1
     7    31    30    1
     8    30    29    1
     9    29    28    1
    10    28    27    1
    11    27    26    1
    12    26    25    1
    13    25    24    1
    14    24    23    1
    15    23    22    1
    16    22     1    1
    17     1     2    2
    18     1     3    1
    19     1     5    1
    20     5     6    1
    21     6     7    1
    22     7     8    1
    23     7     9    1
    24     9    10    1
    25    10    11   ar
    26    11    12   ar
    27    12    13   ar
    28    13    14   ar
    29    14    15    1
    30    14    16   ar
    31    16    17   ar
    32    17    18   ar
    33    18    19   ar
    34    19    10   ar
    35    19    13   ar
    36     3     4    1
    37    15    20    1
    38    15    21    1
@<TRIPOS>MOLECULE
*****
 37 38 0 0 0
SMALL
GASTEIGER

@<TRIPOS>ATOM
      1 P           5.3973   -2.7756   24.2660 P.3     1  UNL1        0.3697
      2 O           4.3863   -1.7932   24.7785 O.2     1  UNL1       -0.2553
      3 O           6.2881   -2.4677   25.4329 O.3     1  UNL1       -0.3218
      4 H           5.8636   -1.8024   25.9970 H       1  UNL1        0.2198
      5 C           6.4084   -3.7580   23.7535 C.3     1  UNL1        0.2579
      6 O           7.7872   -3.7917   24.3430 O.3     1  UNL1       -0.3426
      7 C           8.3535   -5.0837   24.8531 C.3     1  UNL1        0.1387
      8 C           7.9682   -6.3798   24.2036 C.3     1  UNL1        0.0342
      9 C           9.3052   -5.0796   26.0126 C.3     1  UNL1        0.1384
     10 N           8.8368   -5.5172   27.3688 N.ar    1  UNL1       -0.2918
     11 C           9.1272   -6.8378   28.0182 C.ar    1  UNL1        0.1798
     12 N           8.4657   -6.8477   29.3644 N.ar    1  UNL1       -0.2195
     13 C           7.7665   -5.5332   29.5470 C.ar    1  UNL1        0.1481
     14 C           6.9506   -4.9789   30.6770 C.ar    1  UNL1        0.1480
     15 N           6.7212   -5.8012   31.9104 N.pl3   1  UNL1       -0.3413
     16 N           6.3641   -3.6022   30.5737 N.ar    1  UNL1       -0.2078
     17 C           6.5935   -2.7799   29.3403 C.ar    1  UNL1        0.2015
     18 N           7.4093   -3.3342   28.2103 N.ar    1  UNL1       -0.2048
     19 C           7.9959   -4.7109   28.3136 C.ar    1  UNL1        0.1674
     20 H           7.1062   -6.7048   31.9782 H       1  UNL1        0.1438
     21 H           6.1857   -5.4373   32.6520 H       1  UNL1        0.1438
     22 O           4.5066   -3.0835   23.0990 O.3     1  UNL1       -0.2926
     23 C           5.0968   -3.6020   21.8212 C.3     1  UNL1        0.1514
     24 C           4.2925   -3.5683   20.5556 C.3     1  UNL1        0.0326
     25 C           4.8946   -4.0556   19.2711 C.3     1  UNL1        0.0026
     26 C           5.3256   -3.0717   18.2241 C.3     1  UNL1        0.0001
     27 C           6.6075   -2.3111   18.3919 C.3     1  UNL1        0.0000
     28 C           6.6802   -0.8666   17.9944 C.3     1  UNL1        0.0000
     29 C           5.5619   -0.2476   17.2092 C.3     1  UNL1        0.0000
     30 C           4.4238    0.4194   17.9232 C.3     1  UNL1        0.0000
     31 C           3.0307   -0.1179   17.7804 C.3     1  UNL1        0.0000
     32 C           1.8679    0.6588   18.3230 C.3     1  UNL1        0.0000
     33 C           1.0842    0.1226   19.4842 C.3     1  UNL1        0.0010
     34 C           1.7156   -0.8598   20.4256 C.3     1  UNL1        0.0140
     35 C           2.4474   -0.3709   21.6402 C.3     1  UNL1        0.0770
     36 C           5.3969    0.1593   21.5024 C.1     1  UNL1       -0.0141
     37 C           3.9221   -0.1058   21.5713 C.1     1  UNL1       -0.0779
@<TRIPOS>BOND
     1    36    37    3
     2    37    35    1
     3    35    34    1
     4    34    33    1
     5    33    32    1
     6    32    31    1
     7    31    30    1
     8    30    29    1
     9    29    28    1
    10    28    27    1
    11    27    26    1
    12    26    25    1
    13    25    24    1
    14    24    23    1
    15    23    22    1
    16    22     1    1
    17     1     2    2
    18     1     3    1
    19     1     5    1
    20     5     6    1
    21     6     7    1
    22     7     8    1
    23     7     9    1
    24     9    10    1
    25    10    11   ar
    26    11    12   ar
    27    12    13   ar
    28    13    14   ar
    29    14    15    1
    30    14    16   ar
    31    16    17   ar
    32    17    18   ar
    33    18    19   ar
    34    19    10   ar
    35    19    13   ar
    36     3     4    1
    37    15    20    1
    38    15    21    1
@<TRIPOS>MOLECULE
*****
 37 38 0 0 0
SMALL
GASTEIGER

@<TRIPOS>ATOM
      1 P           4.0863   -4.2408   19.1374 P.3     1  UNL1        0.3697
      2 O           2.6496   -4.6424   18.9804 O.2     1  UNL1       -0.2553
      3 O           4.4172   -5.6178   19.6317 O.3     1  UNL1       -0.3218
      4 H           3.6126   -6.1595   19.6425 H       1  UNL1        0.2198
      5 C           5.5230   -3.8392   19.2944 C.3     1  UNL1        0.2579
      6 O           6.3237   -4.3555   20.4529 O.3     1  UNL1       -0.3426
      7 C           7.5556   -3.6246   20.8983 C.3     1  UNL1        0.1387
      8 C           8.0185   -2.4097   20.1501 C.3     1  UNL1        0.0342
      9 C           8.3246   -4.1086   22.0918 C.3     1  UNL1        0.1384
     10 N           7.6633   -4.1669   23.4369 N.ar    1  UNL1       -0.2918
     11 C           6.9363   -3.0415   24.1114 C.ar    1  UNL1        0.1798
     12 N           6.4365   -3.5400   25.4350 N.ar    1  UNL1       -0.2195
     13 C           6.8546   -4.9734   25.5785 C.ar    1  UNL1        0.1481
     14 C           6.6429   -5.9758   26.6740 C.ar    1  UNL1        0.1480
     15 N           5.8848   -5.5883   27.9089 N.pl3   1  UNL1       -0.3413
     16 N           7.1894   -7.3657   26.5346 N.ar    1  UNL1       -0.2078
     17 C           7.9476   -7.7532   25.2997 C.ar    1  UNL1        0.2015
     18 N           8.1593   -6.7508   24.2042 N.ar    1  UNL1       -0.2048
     19 C           7.6128   -5.3609   24.3435 C.ar    1  UNL1        0.1674
     20 H           5.5261   -4.6760   28.0004 H       1  UNL1        0.1438
     21 H           5.7458   -6.2462   28.6280 H       1  UNL1        0.1438
     22 O           3.7554   -2.8638   18.6432 O.3     1  UNL1       -0.2926
     23 C           4.8054   -2.0404   17.9580 C.3     1  UNL1        0.1514
     24 C           4.4320   -0.7447   17.3008 C.3     1  UNL1        0.0326
     25 C           5.4643    0.3279   17.1172 C.3     1  UNL1        0.0026
     26 C           5.6860    1.3478   18.1946 C.3     1  UNL1        0.0001
     27 C           6.7841    1.1528   19.1975 C.3     1  UNL1        0.0000
     28 C           6.4496    0.9379   20.6439 C.3     1  UNL1        0.0000
     29 C           5.0429    0.6083   21.0474 C.3     1  UNL1        0.0000
     30 C           4.6553   -0.8144   21.3225 C.3     1  UNL1        0.0000
     31 C           3.3015   -1.1271   21.8875 C.3     1  UNL1        0.0000
     32 C           2.0930   -0.3905   21.3906 C.3     1  UNL1        0.0000
     33 C           1.5062   -0.7288   20.0523 C.3     1  UNL1        0.0010
     34 C           1.1796    0.3645   19.0786 C.3     1  UNL1        0.0140
     35 C           2.1067    1.5336   18.9249 C.3     1  UNL1        0.0770
     36 C           1.0225    4.2120   18.1184 C.1     1  UNL1       -0.0141
     37 C           1.5646    2.8728   18.5217 C.1     1  UNL1       -0.0779
@<TRIPOS>BOND
     1    36    37    3
     2    37    35    1
     3    35    34    1
     4    34    33    1
     5    33    32    1
     6    32    31    1
     7    31    30    1
     8    30    29    1
     9    29    28    1
    10    28    27    1
    11    27    26    1
    12    26    25    1
    13    25    24    1
    14    24    23    1
    15    23    22    1
    16    22     1    1
    17     1     2    2
    18     1     3    1
    19     1     5    1
    20     5     6    1
    21     6     7    1
    22     7     8    1
    23     7     9    1
    24     9    10    1
    25    10    11   ar
    26    11    12   ar
    27    12    13   ar
    28    13    14   ar
    29    14    15    1
    30    14    16   ar
    31    16    17   ar
    32    17    18   ar
    33    18    19   ar
    34    19    10   ar
    35    19    13   ar
    36     3     4    1
    37    15    20    1
    38    15    21    1
@<TRIPOS>MOLECULE
*****
 37 38 0 0 0
SMALL
GASTEIGER

@<TRIPOS>ATOM
      1 P           8.0649   -4.2387   21.0632 P.3     1  UNL1        0.3697
      2 O           9.3447   -4.9942   20.8592 O.2     1  UNL1       -0.2553
      3 O           8.4710   -3.2634   19.9985 O.3     1  UNL1       -0.3218
      4 H           9.3387   -3.5137   19.6446 H       1  UNL1        0.2198
      5 C           6.7852   -3.4833   21.2672 C.3     1  UNL1        0.2579
      6 O           5.4778   -4.1011   20.8687 O.3     1  UNL1       -0.3426
      7 C           5.0483   -4.0863   19.4316 C.3     1  UNL1        0.1387
      8 C           4.3147   -5.2611   18.8558 C.3     1  UNL1        0.0342
      9 C           5.3525   -2.8965   18.5701 C.3     1  UNL1        0.1384
     10 N           4.3919   -1.7458   18.5142 N.ar    1  UNL1       -0.2918
     11 C           4.0163   -0.9697   17.2867 C.ar    1  UNL1        0.1798
     12 N           3.0305    0.0865   17.6898 N.ar    1  UNL1       -0.2195
     13 C           2.7967   -0.0369   19.1664 C.ar    1  UNL1        0.1481
     14 C           1.9264    0.7357   20.1127 C.ar    1  UNL1        0.1480
     15 N           1.0849    1.8681   19.6033 N.pl3   1  UNL1       -0.3413
     16 N           1.8974    0.3757   21.5686 N.ar    1  UNL1       -0.2078
     17 C           2.7388   -0.7567   22.0781 C.ar    1  UNL1        0.2015
     18 N           3.6092   -1.5293   21.1317 N.ar    1  UNL1       -0.2048
     19 C           3.6381   -1.1693   19.6758 C.ar    1  UNL1        0.1674
     20 H           1.1039    2.1044   18.6477 H       1  UNL1        0.1438
     21 H           0.5137    2.3752   20.2244 H       1  UNL1        0.1438
     22 O           7.6589   -5.2141   22.1280 O.3     1  UNL1       -0.2926
     23 C           8.5594   -5.4610   23.3019 C.3     1  UNL1        0.1514
     24 C           8.0059   -6.0669   24.5575 C.3     1  UNL1        0.0326
     25 C           8.1792   -7.5331   24.8224 C.3     1  UNL1        0.0026
     26 C           8.0127   -8.0687   26.2135 C.3     1  UNL1        0.0001
     27 C           9.1238   -8.8445   26.8566 C.3     1  UNL1        0.0000
     28 C           8.8124   -9.8752   27.9009 C.3     1  UNL1        0.0000
     29 C           7.4612  -10.5260   27.9329 C.3     1  UNL1        0.0000
     30 C           7.3499  -12.0204   27.9981 C.3     1  UNL1        0.0000
     31 C           6.4335  -12.6614   28.9978 C.3     1  UNL1        0.0000
     32 C           4.9933  -12.2480   29.0681 C.3     1  UNL1        0.0000
     33 C           4.2030  -12.0655   27.8063 C.3     1  UNL1        0.0010
     34 C           3.7825  -13.2618   27.0051 C.3     1  UNL1        0.0140
     35 C           2.8281  -14.2595   27.5915 C.3     1  UNL1        0.0770
     36 C           0.0790  -13.3951   28.4252 C.1     1  UNL1       -0.0141
     37 C           1.4536  -13.8273   28.0084 C.1     1  UNL1       -0.0779
@<TRIPOS>BOND
     1    36    37    3
     2    37    35    1
     3    35    34    1
     4    34    33    1
     5    33    32    1
     6    32    31    1
     7    31    30    1
     8    30    29    1
     9    29    28    1
    10    28    27    1
    11    27    26    1
    12    26    25    1
    13    25    24    1
    14    24    23    1
    15    23    22    1
    16    22     1    1
    17     1     2    2
    18     1     3    1
    19     1     5    1
    20     5     6    1
    21     6     7    1
    22     7     8    1
    23     7     9    1
    24     9    10    1
    25    10    11   ar
    26    11    12   ar
    27    12    13   ar
    28    13    14   ar
    29    14    15    1
    30    14    16   ar
    31    16    17   ar
    32    17    18   ar
    33    18    19   ar
    34    19    10   ar
    35    19    13   ar
    36     3     4    1
    37    15    20    1
    38    15    21    1
@<TRIPOS>MOLECULE
*****
 37 38 0 0 0
SMALL
GASTEIGER

@<TRIPOS>ATOM
      1 P           4.6786   -4.0939   19.5997 P.3     1  UNL1        0.3697
      2 O           3.3847   -4.5893   19.0250 O.2     1  UNL1       -0.2553
      3 O           4.3160   -4.6882   20.9283 O.3     1  UNL1       -0.3218
      4 H           3.4489   -5.1184   20.8643 H       1  UNL1        0.2198
      5 C           5.9725   -3.5985   20.1745 C.3     1  UNL1        0.2579
      6 O           6.9036   -4.5543   20.8597 O.3     1  UNL1       -0.3426
      7 C           8.3796   -4.2873   20.8683 C.3     1  UNL1        0.1387
      8 C           8.9444   -3.1688   20.0437 C.3     1  UNL1        0.0342
      9 C           9.2910   -5.1390   21.7016 C.3     1  UNL1        0.1384
     10 N           8.7710   -5.8026   22.9422 N.ar    1  UNL1       -0.2918
     11 C           8.8260   -7.2705   23.2462 C.ar    1  UNL1        0.1798
     12 N           8.1937   -7.4898   24.5885 N.ar    1  UNL1       -0.2195
     13 C           7.7478   -6.1576   25.1143 C.ar    1  UNL1        0.1481
     14 C           7.0630   -5.7593   26.3880 C.ar    1  UNL1        0.1480
     15 N           6.7062   -6.8021   27.4055 N.pl3   1  UNL1       -0.3413
     16 N           6.7351   -4.3183   26.6442 N.ar    1  UNL1       -0.2078
     17 C           7.0919   -3.2755   25.6267 C.ar    1  UNL1        0.2015
     18 N           7.7766   -3.6737   24.3530 N.ar    1  UNL1       -0.2048
     19 C           8.1046   -5.1148   24.0968 C.ar    1  UNL1        0.1674
     20 H           6.9215   -7.7480   27.2373 H       1  UNL1        0.1438
     21 H           6.2568   -6.5407   28.2415 H       1  UNL1        0.1438
     22 O           5.0413   -3.4995   18.2711 O.3     1  UNL1       -0.2926
     23 C           5.4005   -2.0466   18.1724 C.3     1  UNL1        0.1514
     24 C           4.4240   -1.0706   17.5861 C.3     1  UNL1        0.0326
     25 C           4.8114    0.3687   17.4177 C.3     1  UNL1        0.0026
     26 C           4.3270    1.3954   18.3981 C.3     1  UNL1        0.0001
     27 C           2.9195    1.9071   18.3143 C.3     1  UNL1        0.0000
     28 C           1.9153    1.5145   19.3571 C.3     1  UNL1        0.0000
     29 C           1.3429    0.1280   19.3628 C.3     1  UNL1        0.0000
     30 C           1.7015   -0.8270   20.4625 C.3     1  UNL1        0.0000
     31 C           3.0779   -0.8023   21.0581 C.3     1  UNL1        0.0000
     32 C           3.3557   -1.5376   22.3357 C.3     1  UNL1        0.0000
     33 C           3.1881   -0.8410   23.6536 C.3     1  UNL1        0.0010
     34 C           2.7567    0.5950   23.6933 C.3     1  UNL1        0.0140
     35 C           1.3281    0.9410   23.9919 C.3     1  UNL1        0.0770
     36 C          -0.2536    2.5904   22.0482 C.1     1  UNL1       -0.0141
     37 C           0.5373    1.7657   23.0200 C.1     1  UNL1       -0.0779
@<TRIPOS>BOND
     1    36    37    3
     2    37    35    1
     3    35    34    1
     4    34    33    1
     5    33    32    1
     6    32    31    1
     7    31    30    1
     8    30    29    1
     9    29    28    1
    10    28    27    1
    11    27    26    1
    12    26    25    1
    13    25    24    1
    14    24    23    1
    15    23    22    1
    16    22     1    1
    17     1     2    2
    18     1     3    1
    19     1     5    1
    20     5     6    1
    21     6     7    1
    22     7     8    1
    23     7     9    1
    24     9    10    1
    25    10    11   ar
    26    11    12   ar
    27    12    13   ar
    28    13    14   ar
    29    14    15    1
    30    14    16   ar
    31    16    17   ar
    32    17    18   ar
    33    18    19   ar
    34    19    10   ar
    35    19    13   ar
    36     3     4    1
    37    15    20    1
    38    15    21    1
