@<TRIPOS>MOLECULE
*****
 43 48 0 0 0
SMALL
GASTEIGER

@<TRIPOS>ATOM
      1 N           3.6078    1.5117   35.4618 N.3     1  UNL1       -0.2676
      2 C           4.4352    0.6169   34.5873 C.3     1  UNL1        0.0746
      3 C           4.0953    0.4657   33.1342 C.3     1  UNL1        0.0449
      4 C           2.9281    1.2092   32.5556 C.3     1  UNL1        0.1391
      5 C           2.1008    2.1040   33.4301 C.3     1  UNL1        0.0449
      6 C           2.4407    2.2552   34.8832 C.3     1  UNL1        0.0746
      7 C           1.7967    1.8856   31.8397 C.2     1  UNL1        0.2529
      8 O           0.8066    2.8320   32.4512 O.2     1  UNL1       -0.2724
      9 N           1.8294    1.4495   30.4047 N.am    1  UNL1       -0.1907
     10 C           2.9809    0.5035   30.2339 C.2     1  UNL1        0.3219
     11 O           3.3828   -0.1748   28.9579 O.2     1  UNL1       -0.2512
     12 N           3.6600    0.3551   31.5631 N.am    1  UNL1       -0.2222
     13 C           4.8601   -0.4978   31.8497 C.ar    1  UNL1        0.1453
     14 C           4.6891   -1.9586   32.1442 C.ar    1  UNL1        0.0922
     15 C           5.8894   -2.8114   32.4308 C.ar    1  UNL1        0.2259
     16 O           5.7184   -4.2723   32.7252 O.3     1  UNL1       -0.4919
     17 N           7.2607   -2.2035   32.4229 N.ar    1  UNL1       -0.1894
     18 C           7.4317   -0.7427   32.1284 C.ar    1  UNL1        0.2027
     19 N           6.2314    0.1101   31.8419 N.ar    1  UNL1       -0.2084
     20 H           4.8618   -4.6521   32.7301 H       1  UNL1        0.2938
     21 C           0.8776    1.8832   29.3296 C.ar    1  UNL1        0.0622
     22 C           0.8368    3.3192   28.8986 C.ar    1  UNL1        0.0154
     23 C          -0.1149    3.7529   27.8234 C.ar    1  UNL1        0.0013
     24 C          -1.0260    2.7505   27.1792 C.ar    1  UNL1        0.0001
     25 C          -0.9852    1.3143   27.6103 C.ar    1  UNL1        0.0013
     26 C          -0.0335    0.8806   28.6854 C.ar    1  UNL1        0.0154
     27 C          -1.9778    3.1841   26.1041 C.ar    1  UNL1        0.0000
     28 C          -1.5317    3.2070   24.6721 C.ar    1  UNL1        0.0000
     29 C          -2.4835    3.6407   23.5969 C.ar    1  UNL1        0.0011
     30 C          -3.8814    4.0515   23.9537 C.ar    1  UNL1        0.0140
     31 C          -4.3274    4.0286   25.3857 C.ar    1  UNL1        0.0011
     32 C          -3.3756    3.5949   26.4609 C.ar    1  UNL1        0.0000
     33 C          -4.8332    4.4852   22.8785 C.2     1  UNL1        0.0729
     34 O          -6.2438    3.9750   22.8752 O.co2   1  UNL1       -0.5446
     35 O          -4.3744    5.4289   21.8067 O.co2   1  UNL1       -0.5446
     36 C           3.9477    1.6629   36.9150 C.3     1  UNL1        0.1183
     37 C           2.7668    4.2165   37.9565 C.3     1  UNL1        0.0323
     38 C           2.2703    2.8970   38.4686 C.ar    1  UNL1       -0.0069
     39 C           1.1834    2.8542   39.5014 C.ar    1  UNL1       -0.0015
     40 C           0.6869    1.5347   40.0135 C.ar    1  UNL1        0.0203
     41 C           1.2772    0.2579   39.4928 C.ar    1  UNL1        0.0985
     42 N           2.3642    0.3006   38.4599 N.ar    1  UNL1       -0.2471
     43 C           2.8608    1.6201   37.9478 C.ar    1  UNL1        0.0712
@<TRIPOS>UNITY_ATOM_ATTR
34 1
charge -1
@<TRIPOS>BOND
     1    37    38    1
     2    38    39   ar
     3    39    40   ar
     4    40    41   ar
     5    41    42   ar
     6    42    43   ar
     7    43    36    1
     8    36     1    1
     9     1     2    1
    10     2     3    1
    11     3     4    1
    12     4     5    1
    13     5     6    1
    14     4     7    1
    15     7     8    2
    16     7     9   am
    17     9    21    1
    18    21    22   ar
    19    22    23   ar
    20    23    24   ar
    21    24    27    1
    22    27    28   ar
    23    28    29   ar
    24    29    30   ar
    25    30    33    1
    26    33    34   ar
    27    33    35   ar
    28    30    31   ar
    29    31    32   ar
    30    24    25   ar
    31    25    26   ar
    32     9    10   am
    33    10    11    2
    34    10    12   am
    35    12    13    1
    36    13    14   ar
    37    14    15   ar
    38    15    16    1
    39    15    17   ar
    40    17    18   ar
    41    18    19   ar
    42    43    38   ar
    43     6     1    1
    44    26    21   ar
    45    19    13   ar
    46    12     4    1
    47    32    27   ar
    48    16    20    1
@<TRIPOS>MOLECULE
*****
 43 48 0 0 0
SMALL
GASTEIGER

@<TRIPOS>ATOM
      1 N           2.7064    2.7970   35.0905 N.3     1  UNL1       -0.2676
      2 C           3.4671    1.6607   34.4741 C.3     1  UNL1        0.0746
      3 C           3.2103    1.2724   33.0482 C.3     1  UNL1        0.0449
      4 C           2.1928    2.0204   32.2387 C.3     1  UNL1        0.1391
      5 C           1.4321    3.1567   32.8552 C.3     1  UNL1        0.0449
      6 C           1.6889    3.5450   34.2811 C.3     1  UNL1        0.0746
      7 C           1.2113    2.6723   31.3104 C.2     1  UNL1        0.2529
      8 O           0.3142    3.8269   31.6451 O.2     1  UNL1       -0.2724
      9 N           1.2843    1.9668   29.9886 N.am    1  UNL1       -0.1907
     10 C           2.3110    0.8788   30.1001 C.2     1  UNL1        0.3219
     11 O           2.7068   -0.0748   29.0120 O.2     1  UNL1       -0.2512
     12 N           2.8725    0.9120   31.4906 N.am    1  UNL1       -0.2222
     13 C           3.9282   -0.0027   32.0373 C.ar    1  UNL1        0.1453
     14 C           5.3763    0.3722   31.9259 C.ar    1  UNL1        0.0922
     15 C           6.4320   -0.5425   32.4725 C.ar    1  UNL1        0.2259
     16 O           7.8801   -0.1676   32.3611 O.3     1  UNL1       -0.4919
     17 N           6.0397   -1.8321   33.1306 N.ar    1  UNL1       -0.1894
     18 C           4.5916   -2.2070   33.2420 C.ar    1  UNL1        0.2027
     19 N           3.5359   -1.2923   32.6953 N.ar    1  UNL1       -0.2084
     20 H           8.1253    0.6380   31.9501 H       1  UNL1        0.2938
     21 C           0.4732    2.2920   28.7696 C.ar    1  UNL1        0.0622
     22 C           0.2885    3.7204   28.3508 C.ar    1  UNL1        0.0154
     23 C          -0.5227    4.0457   27.1318 C.ar    1  UNL1        0.0013
     24 C          -1.1492    2.9426   26.3315 C.ar    1  UNL1        0.0001
     25 C          -0.9645    1.5141   26.7502 C.ar    1  UNL1        0.0013
     26 C          -0.1533    1.1889   27.9693 C.ar    1  UNL1        0.0154
     27 C          -1.9604    3.2679   25.1124 C.ar    1  UNL1        0.0000
     28 C          -3.4203    3.5857   25.2458 C.ar    1  UNL1        0.0000
     29 C          -4.2315    3.9110   24.0267 C.ar    1  UNL1        0.0011
     30 C          -3.5828    3.9185   22.6742 C.ar    1  UNL1        0.0140
     31 C          -2.1229    3.6007   22.5408 C.ar    1  UNL1        0.0011
     32 C          -1.3117    3.2754   23.7600 C.ar    1  UNL1        0.0000
     33 C          -4.3939    4.2438   21.4551 C.2     1  UNL1        0.0729
     34 O          -4.5996    3.2057   20.3921 O.co2   1  UNL1       -0.5446
     35 O          -4.9995    5.6073   21.2990 O.co2   1  UNL1       -0.5446
     36 C           2.9631    3.1853   36.5165 C.3     1  UNL1        0.1183
     37 C           3.9935    0.6426   37.7301 C.3     1  UNL1        0.0323
     38 C           2.7160    1.2487   38.2307 C.ar    1  UNL1       -0.0069
     39 C           1.9537    0.5835   39.3381 C.ar    1  UNL1       -0.0015
     40 C           0.6762    1.1897   39.8387 C.ar    1  UNL1        0.0203
     41 C           0.1610    2.4610   39.2319 C.ar    1  UNL1        0.0985
     42 N           0.9233    3.1263   38.1245 N.ar    1  UNL1       -0.2471
     43 C           2.2008    2.5201   37.6239 C.ar    1  UNL1        0.0712
@<TRIPOS>UNITY_ATOM_ATTR
34 1
charge -1
@<TRIPOS>BOND
     1    37    38    1
     2    38    39   ar
     3    39    40   ar
     4    40    41   ar
     5    41    42   ar
     6    42    43   ar
     7    43    36    1
     8    36     1    1
     9     1     2    1
    10     2     3    1
    11     3     4    1
    12     4     5    1
    13     5     6    1
    14     4     7    1
    15     7     8    2
    16     7     9   am
    17     9    21    1
    18    21    22   ar
    19    22    23   ar
    20    23    24   ar
    21    24    27    1
    22    27    28   ar
    23    28    29   ar
    24    29    30   ar
    25    30    33    1
    26    33    34   ar
    27    33    35   ar
    28    30    31   ar
    29    31    32   ar
    30    24    25   ar
    31    25    26   ar
    32     9    10   am
    33    10    11    2
    34    10    12   am
    35    12    13    1
    36    13    14   ar
    37    14    15   ar
    38    15    16    1
    39    15    17   ar
    40    17    18   ar
    41    18    19   ar
    42    43    38   ar
    43     6     1    1
    44    26    21   ar
    45    19    13   ar
    46    12     4    1
    47    32    27   ar
    48    16    20    1
@<TRIPOS>MOLECULE
*****
 43 48 0 0 0
SMALL
GASTEIGER

@<TRIPOS>ATOM
      1 N           6.5665   -2.6349   23.9018 N.3     1  UNL1       -0.2676
      2 C           6.1524   -2.5267   22.4642 C.3     1  UNL1        0.0746
      3 C           4.9275   -1.7444   22.0934 C.3     1  UNL1        0.0449
      4 C           4.1167   -1.0702   23.1602 C.3     1  UNL1        0.1391
      5 C           4.5308   -1.1784   24.5978 C.3     1  UNL1        0.0449
      6 C           5.7557   -1.9607   24.9686 C.3     1  UNL1        0.0746
      7 C           3.2114   -0.3460   24.1120 C.2     1  UNL1        0.2529
      8 O           3.3721   -0.2769   25.6018 O.2     1  UNL1       -0.2724
      9 N           2.1172    0.2972   23.3125 N.am    1  UNL1       -0.1907
     10 C           2.3462   -0.0297   21.8665 C.2     1  UNL1        0.3219
     11 O           1.4899    0.4112   20.7166 O.2     1  UNL1       -0.2512
     12 N           3.5819   -0.8747   21.7724 N.am    1  UNL1       -0.2222
     13 C           4.1783   -1.4273   20.5118 C.ar    1  UNL1        0.1453
     14 C           3.8382   -2.8193   20.0686 C.ar    1  UNL1        0.0922
     15 C           4.4346   -3.3718   18.8080 C.ar    1  UNL1        0.2259
     16 O           4.0945   -4.7639   18.3648 O.3     1  UNL1       -0.4919
     17 N           5.3712   -2.5323   17.9907 N.ar    1  UNL1       -0.1894
     18 C           5.7113   -1.1403   18.4339 C.ar    1  UNL1        0.2027
     19 N           5.1149   -0.5878   19.6945 N.ar    1  UNL1       -0.2084
     20 H           3.5094   -5.2883   18.8754 H       1  UNL1        0.2938
     21 C           0.9916    1.1222   23.8623 C.ar    1  UNL1        0.0622
     22 C           0.3542    2.1819   23.0136 C.ar    1  UNL1        0.0154
     23 C          -0.7713    3.0069   23.5634 C.ar    1  UNL1        0.0013
     24 C          -1.2596    2.7722   24.9621 C.ar    1  UNL1        0.0001
     25 C          -0.6222    1.7123   25.8110 C.ar    1  UNL1        0.0013
     26 C           0.5033    0.8873   25.2611 C.ar    1  UNL1        0.0154
     27 C          -2.3852    3.5972   25.5120 C.ar    1  UNL1        0.0000
     28 C          -2.1508    4.4952   26.6905 C.ar    1  UNL1        0.0000
     29 C          -3.2764    5.3202   27.2403 C.ar    1  UNL1        0.0011
     30 C          -4.6364    5.2472   26.6118 C.ar    1  UNL1        0.0140
     31 C          -4.8708    4.3493   25.4333 C.ar    1  UNL1        0.0011
     32 C          -3.7452    3.5242   24.8834 C.ar    1  UNL1        0.0000
     33 C          -5.7620    6.0723   27.1616 C.2     1  UNL1        0.0729
     34 O          -5.6292    6.7194   28.5083 O.co2   1  UNL1       -0.5446
     35 O          -7.0204    6.2501   26.3648 O.co2   1  UNL1       -0.5446
     36 C           7.7914   -3.4173   24.2727 C.3     1  UNL1        0.1183
     37 C           8.8336   -5.7206   22.6576 C.3     1  UNL1        0.0323
     38 C           8.1790   -5.9700   23.9840 C.ar    1  UNL1       -0.0069
     39 C           8.0455   -7.3710   24.5028 C.ar    1  UNL1       -0.0015
     40 C           7.3909   -7.6204   25.8292 C.ar    1  UNL1        0.0203
     41 C           6.8698   -6.4688   26.6367 C.ar    1  UNL1        0.0985
     42 N           7.0033   -5.0677   26.1179 N.ar    1  UNL1       -0.2471
     43 C           7.6579   -4.8183   24.7915 C.ar    1  UNL1        0.0712
@<TRIPOS>UNITY_ATOM_ATTR
34 1
charge -1
@<TRIPOS>BOND
     1    37    38    1
     2    38    39   ar
     3    39    40   ar
     4    40    41   ar
     5    41    42   ar
     6    42    43   ar
     7    43    36    1
     8    36     1    1
     9     1     2    1
    10     2     3    1
    11     3     4    1
    12     4     5    1
    13     5     6    1
    14     4     7    1
    15     7     8    2
    16     7     9   am
    17     9    21    1
    18    21    22   ar
    19    22    23   ar
    20    23    24   ar
    21    24    27    1
    22    27    28   ar
    23    28    29   ar
    24    29    30   ar
    25    30    33    1
    26    33    34   ar
    27    33    35   ar
    28    30    31   ar
    29    31    32   ar
    30    24    25   ar
    31    25    26   ar
    32     9    10   am
    33    10    11    2
    34    10    12   am
    35    12    13    1
    36    13    14   ar
    37    14    15   ar
    38    15    16    1
    39    15    17   ar
    40    17    18   ar
    41    18    19   ar
    42    43    38   ar
    43     6     1    1
    44    26    21   ar
    45    19    13   ar
    46    12     4    1
    47    32    27   ar
    48    16    20    1
@<TRIPOS>MOLECULE
*****
 43 48 0 0 0
SMALL
GASTEIGER

@<TRIPOS>ATOM
      1 N           6.5491   -2.1388   24.1577 N.3     1  UNL1       -0.2676
      2 C           7.0500   -3.4126   24.7711 C.3     1  UNL1        0.0746
      3 C           6.9785   -3.6084   26.2565 C.3     1  UNL1        0.0449
      4 C           6.4062   -2.5304   27.1285 C.3     1  UNL1        0.1391
      5 C           5.9053   -1.2565   26.5150 C.3     1  UNL1        0.0449
      6 C           5.9767   -1.0607   25.0296 C.3     1  UNL1        0.0746
      7 C           5.8629   -1.5470   28.1223 C.2     1  UNL1        0.2529
      8 O           5.2957   -0.1950   27.8052 O.2     1  UNL1       -0.2724
      9 N           5.9864   -2.1528   29.4891 N.am    1  UNL1       -0.1907
     10 C           6.6061   -3.5107   29.3398 C.2     1  UNL1        0.3219
     11 O           6.9125   -4.4673   30.4538 O.2     1  UNL1       -0.2512
     12 N           6.8655   -3.7441   27.8810 N.am    1  UNL1       -0.2222
     13 C           7.4769   -4.9749   27.2800 C.ar    1  UNL1        0.1453
     14 C           6.6457   -6.2090   27.0898 C.ar    1  UNL1        0.0922
     15 C           7.2571   -7.4398   26.4888 C.ar    1  UNL1        0.2259
     16 O           6.4259   -8.6738   26.2986 O.3     1  UNL1       -0.4919
     17 N           8.6998   -7.4366   26.0779 N.ar    1  UNL1       -0.1894
     18 C           9.5310   -6.2025   26.2681 C.ar    1  UNL1        0.2027
     19 N           8.9195   -4.9717   26.8691 N.ar    1  UNL1       -0.2084
     20 H           5.5248   -8.6759   26.5552 H       1  UNL1        0.2938
     21 C           5.5644   -1.5131   30.7785 C.ar    1  UNL1        0.0622
     22 C           4.1703   -0.9811   30.9307 C.ar    1  UNL1        0.0154
     23 C           3.7483   -0.3414   32.2202 C.ar    1  UNL1        0.0013
     24 C           4.7204   -0.2338   33.3574 C.ar    1  UNL1        0.0001
     25 C           6.1146   -0.7658   33.2051 C.ar    1  UNL1        0.0013
     26 C           6.5366   -1.4055   31.9157 C.ar    1  UNL1        0.0154
     27 C           4.2984    0.4059   34.6468 C.ar    1  UNL1        0.0000
     28 C           3.3990    1.6063   34.6295 C.ar    1  UNL1        0.0000
     29 C           2.9771    2.2459   35.9189 C.ar    1  UNL1        0.0011
     30 C           3.4544    1.6853   37.2258 C.ar    1  UNL1        0.0140
     31 C           4.3538    0.4849   37.2432 C.ar    1  UNL1        0.0011
     32 C           4.7758   -0.1548   35.9536 C.ar    1  UNL1        0.0000
     33 C           3.0324    2.3250   38.5153 C.2     1  UNL1        0.0729
     34 O           4.0428    2.5710   39.5963 O.co2   1  UNL1       -0.5446
     35 O           1.6001    2.7186   38.7237 O.co2   1  UNL1       -0.5446
     36 C           6.6205   -1.9429   22.6722 C.3     1  UNL1        0.1183
     37 C           4.4554   -3.8280   21.8011 C.3     1  UNL1        0.0323
     38 C           4.3454   -2.3647   21.4906 C.ar    1  UNL1       -0.0069
     39 C           3.1528   -1.8438   20.7446 C.ar    1  UNL1       -0.0015
     40 C           3.0428   -0.3805   20.4341 C.ar    1  UNL1        0.0203
     41 C           4.1253    0.5621   20.8696 C.ar    1  UNL1        0.0985
     42 N           5.3179    0.0413   21.6156 N.ar    1  UNL1       -0.2471
     43 C           5.4280   -1.4221   21.9262 C.ar    1  UNL1        0.0712
@<TRIPOS>UNITY_ATOM_ATTR
34 1
charge -1
@<TRIPOS>BOND
     1    37    38    1
     2    38    39   ar
     3    39    40   ar
     4    40    41   ar
     5    41    42   ar
     6    42    43   ar
     7    43    36    1
     8    36     1    1
     9     1     2    1
    10     2     3    1
    11     3     4    1
    12     4     5    1
    13     5     6    1
    14     4     7    1
    15     7     8    2
    16     7     9   am
    17     9    21    1
    18    21    22   ar
    19    22    23   ar
    20    23    24   ar
    21    24    27    1
    22    27    28   ar
    23    28    29   ar
    24    29    30   ar
    25    30    33    1
    26    33    34   ar
    27    33    35   ar
    28    30    31   ar
    29    31    32   ar
    30    24    25   ar
    31    25    26   ar
    32     9    10   am
    33    10    11    2
    34    10    12   am
    35    12    13    1
    36    13    14   ar
    37    14    15   ar
    38    15    16    1
    39    15    17   ar
    40    17    18   ar
    41    18    19   ar
    42    43    38   ar
    43     6     1    1
    44    26    21   ar
    45    19    13   ar
    46    12     4    1
    47    32    27   ar
    48    16    20    1
@<TRIPOS>MOLECULE
*****
 43 48 0 0 0
SMALL
GASTEIGER

@<TRIPOS>ATOM
      1 N           6.4844   -2.1670   28.8422 N.3     1  UNL1       -0.2676
      2 C           6.0592   -1.7955   30.2318 C.3     1  UNL1        0.0746
      3 C           4.8123   -0.9893   30.4442 C.3     1  UNL1        0.0449
      4 C           3.9905   -0.5547   29.2669 C.3     1  UNL1        0.1391
      5 C           4.4158   -0.9263   27.8773 C.3     1  UNL1        0.0449
      6 C           5.6627   -1.7324   27.6649 C.3     1  UNL1        0.0746
      7 C           3.0724   -0.0514   28.1928 C.2     1  UNL1        0.2529
      8 O           3.2400   -0.2659   26.7177 O.2     1  UNL1       -0.2724
      9 N           1.9571    0.7041   28.8528 N.am    1  UNL1       -0.1907
     10 C           2.1861    0.6678   30.3348 C.2     1  UNL1        0.3219
     11 O           1.3118    1.2985   31.3777 O.2     1  UNL1       -0.2512
     12 N           3.4427   -0.1102   30.5908 N.am    1  UNL1       -0.2222
     13 C           4.0458   -0.3940   31.9345 C.ar    1  UNL1        0.1453
     14 C           4.9793    0.5982   32.5624 C.ar    1  UNL1        0.0922
     15 C           5.5823    0.3144   33.9061 C.ar    1  UNL1        0.2259
     16 O           6.5158    1.3066   34.5340 O.3     1  UNL1       -0.4919
     17 N           5.2519   -0.9616   34.6222 N.ar    1  UNL1       -0.1894
     18 C           4.3184   -1.9538   33.9943 C.ar    1  UNL1        0.2027
     19 N           3.7154   -1.6700   32.6506 N.ar    1  UNL1       -0.2084
     20 H           6.7222    2.1037   34.0867 H       1  UNL1        0.2938
     21 C           0.8138    1.3777   28.1535 C.ar    1  UNL1        0.0622
     22 C           1.0798    2.4791   27.1707 C.ar    1  UNL1        0.0154
     23 C          -0.0636    3.1527   26.4714 C.ar    1  UNL1        0.0013
     24 C          -1.4730    2.7249   26.7550 C.ar    1  UNL1        0.0001
     25 C          -1.7390    1.6235   27.7380 C.ar    1  UNL1        0.0013
     26 C          -0.5957    0.9499   28.4372 C.ar    1  UNL1        0.0154
     27 C          -2.6163    3.3985   26.0558 C.ar    1  UNL1        0.0000
     28 C          -2.5940    3.5584   24.5645 C.ar    1  UNL1        0.0000
     29 C          -3.7374    4.2320   23.8653 C.ar    1  UNL1        0.0011
     30 C          -4.9031    4.7458   24.6573 C.ar    1  UNL1        0.0140
     31 C          -4.9254    4.5859   26.1486 C.ar    1  UNL1        0.0011
     32 C          -3.7820    3.9122   26.8479 C.ar    1  UNL1        0.0000
     33 C          -6.0465    5.4194   23.9581 C.2     1  UNL1        0.0729
     34 O          -5.8418    6.0310   22.6038 O.co2   1  UNL1       -0.5446
     35 O          -7.3945    5.4813   24.6130 O.co2   1  UNL1       -0.5446
     36 C           7.7315   -2.9733   28.6297 C.3     1  UNL1        0.1183
     37 C           6.9342   -5.6987   29.5975 C.3     1  UNL1        0.0323
     38 C           7.3230   -5.4962   28.1630 C.ar    1  UNL1       -0.0069
     39 C           7.3131   -6.6564   27.2123 C.ar    1  UNL1       -0.0015
     40 C           7.7019   -6.4540   25.7778 C.ar    1  UNL1        0.0203
     41 C           8.1005   -5.0913   25.2939 C.ar    1  UNL1        0.0985
     42 N           8.1104   -3.9310   26.2446 N.ar    1  UNL1       -0.2471
     43 C           7.7216   -4.1335   27.6791 C.ar    1  UNL1        0.0712
@<TRIPOS>UNITY_ATOM_ATTR
34 1
charge -1
@<TRIPOS>BOND
     1    37    38    1
     2    38    39   ar
     3    39    40   ar
     4    40    41   ar
     5    41    42   ar
     6    42    43   ar
     7    43    36    1
     8    36     1    1
     9     1     2    1
    10     2     3    1
    11     3     4    1
    12     4     5    1
    13     5     6    1
    14     4     7    1
    15     7     8    2
    16     7     9   am
    17     9    21    1
    18    21    22   ar
    19    22    23   ar
    20    23    24   ar
    21    24    27    1
    22    27    28   ar
    23    28    29   ar
    24    29    30   ar
    25    30    33    1
    26    33    34   ar
    27    33    35   ar
    28    30    31   ar
    29    31    32   ar
    30    24    25   ar
    31    25    26   ar
    32     9    10   am
    33    10    11    2
    34    10    12   am
    35    12    13    1
    36    13    14   ar
    37    14    15   ar
    38    15    16    1
    39    15    17   ar
    40    17    18   ar
    41    18    19   ar
    42    43    38   ar
    43     6     1    1
    44    26    21   ar
    45    19    13   ar
    46    12     4    1
    47    32    27   ar
    48    16    20    1
@<TRIPOS>MOLECULE
*****
 43 48 0 0 0
SMALL
GASTEIGER

@<TRIPOS>ATOM
      1 N           6.5959   -1.8525   28.8475 N.3     1  UNL1       -0.2676
      2 C           6.1340   -1.5538   30.2429 C.3     1  UNL1        0.0746
      3 C           4.8545   -0.8031   30.4648 C.3     1  UNL1        0.0449
      4 C           4.0369   -0.3511   29.2912 C.3     1  UNL1        0.1391
      5 C           4.4989   -0.6498   27.8957 C.3     1  UNL1        0.0449
      6 C           5.7784   -1.4005   27.6739 C.3     1  UNL1        0.0746
      7 C           3.1187    0.1618   28.2216 C.2     1  UNL1        0.2529
      8 O           3.3189    0.0140   26.7424 O.2     1  UNL1       -0.2724
      9 N           1.9652    0.8484   28.8910 N.am    1  UNL1       -0.1907
     10 C           2.1705    0.7599   30.3743 C.2     1  UNL1        0.3219
     11 O           1.2560    1.3152   31.4256 O.2     1  UNL1       -0.2512
     12 N           3.4508    0.0186   30.6216 N.am    1  UNL1       -0.2222
     13 C           4.0415   -0.2976   31.9636 C.ar    1  UNL1        0.1453
     14 C           4.9515    0.6887   32.6338 C.ar    1  UNL1        0.0922
     15 C           5.5421    0.3724   33.9759 C.ar    1  UNL1        0.2259
     16 O           6.4521    1.3587   34.6460 O.3     1  UNL1       -0.4919
     17 N           5.2228   -0.9301   34.6478 N.ar    1  UNL1       -0.1894
     18 C           4.3128   -1.9164   33.9776 C.ar    1  UNL1        0.2027
     19 N           3.7221   -1.6001   32.6356 N.ar    1  UNL1       -0.2084
     20 H           6.6516    2.1723   34.2263 H       1  UNL1        0.2938
     21 C           0.8094    1.5078   28.1986 C.ar    1  UNL1        0.0622
     22 C          -0.5706    0.9356   28.3326 C.ar    1  UNL1        0.0154
     23 C          -1.7264    1.5949   27.6403 C.ar    1  UNL1        0.0013
     24 C          -1.5022    2.8265   26.8140 C.ar    1  UNL1        0.0001
     25 C          -0.1222    3.3987   26.6800 C.ar    1  UNL1        0.0013
     26 C           1.0337    2.7394   27.3723 C.ar    1  UNL1        0.0154
     27 C          -2.6580    3.4858   26.1217 C.ar    1  UNL1        0.0000
     28 C          -3.7837    4.0642   26.9268 C.ar    1  UNL1        0.0000
     29 C          -4.9395    4.7236   26.2345 C.ar    1  UNL1        0.0011
     30 C          -4.9697    4.8045   24.7369 C.ar    1  UNL1        0.0140
     31 C          -3.8440    4.2261   23.9318 C.ar    1  UNL1        0.0011
     32 C          -2.6882    3.5667   24.6242 C.ar    1  UNL1        0.0000
     33 C          -6.1255    5.4639   24.0446 C.2     1  UNL1        0.0729
     34 O          -7.2777    4.6371   23.5559 O.co2   1  UNL1       -0.5446
     35 O          -6.1291    6.9500   23.8410 O.co2   1  UNL1       -0.5446
     36 C           7.8755   -2.6032   28.6256 C.3     1  UNL1        0.1183
     37 C           6.5202   -5.2300   28.1125 C.3     1  UNL1        0.0323
     38 C           7.5254   -5.1082   29.2192 C.ar    1  UNL1       -0.0069
     39 C           7.8530   -6.2998   30.0694 C.ar    1  UNL1       -0.0015
     40 C           8.8582   -6.1780   31.1760 C.ar    1  UNL1        0.0203
     41 C           9.5358   -4.8647   31.4326 C.ar    1  UNL1        0.0985
     42 N           9.2083   -3.6730   30.5824 N.ar    1  UNL1       -0.2471
     43 C           8.2031   -3.7948   29.4757 C.ar    1  UNL1        0.0712
@<TRIPOS>UNITY_ATOM_ATTR
34 1
charge -1
@<TRIPOS>BOND
     1    37    38    1
     2    38    39   ar
     3    39    40   ar
     4    40    41   ar
     5    41    42   ar
     6    42    43   ar
     7    43    36    1
     8    36     1    1
     9     1     2    1
    10     2     3    1
    11     3     4    1
    12     4     5    1
    13     5     6    1
    14     4     7    1
    15     7     8    2
    16     7     9   am
    17     9    21    1
    18    21    22   ar
    19    22    23   ar
    20    23    24   ar
    21    24    27    1
    22    27    28   ar
    23    28    29   ar
    24    29    30   ar
    25    30    33    1
    26    33    34   ar
    27    33    35   ar
    28    30    31   ar
    29    31    32   ar
    30    24    25   ar
    31    25    26   ar
    32     9    10   am
    33    10    11    2
    34    10    12   am
    35    12    13    1
    36    13    14   ar
    37    14    15   ar
    38    15    16    1
    39    15    17   ar
    40    17    18   ar
    41    18    19   ar
    42    43    38   ar
    43     6     1    1
    44    26    21   ar
    45    19    13   ar
    46    12     4    1
    47    32    27   ar
    48    16    20    1
@<TRIPOS>MOLECULE
*****
 43 48 0 0 0
SMALL
GASTEIGER

@<TRIPOS>ATOM
      1 N           5.8258   -2.1916   24.3932 N.3     1  UNL1       -0.2676
      2 C           6.5356   -3.3729   24.9853 C.3     1  UNL1        0.0746
      3 C           6.6412   -3.5151   26.4748 C.3     1  UNL1        0.0449
      4 C           6.0371   -2.4760   27.3722 C.3     1  UNL1        0.1391
      5 C           5.3273   -1.2947   26.7801 C.3     1  UNL1        0.0449
      6 C           5.2217   -1.1525   25.2906 C.3     1  UNL1        0.0746
      7 C           5.4855   -1.5225   28.3903 C.2     1  UNL1        0.2529
      8 O           4.7314   -0.2593   28.0976 O.2     1  UNL1       -0.2724
      9 N           5.8204   -2.0540   29.7525 N.am    1  UNL1       -0.1907
     10 C           6.5790   -3.3360   29.5762 C.2     1  UNL1        0.3219
     11 O           7.1104   -4.2045   30.6776 O.2     1  UNL1       -0.2512
     12 N           6.7130   -3.5968   28.1051 N.am    1  UNL1       -0.2222
     13 C           7.4017   -4.7721   27.4772 C.ar    1  UNL1        0.1453
     14 C           6.6457   -6.0457   27.2399 C.ar    1  UNL1        0.0922
     15 C           7.3346   -7.2209   26.6120 C.ar    1  UNL1        0.2259
     16 O           6.5786   -8.4945   26.3747 O.3     1  UNL1       -0.4919
     17 N           8.7795   -7.1225   26.2213 N.ar    1  UNL1       -0.1894
     18 C           9.5355   -5.8489   26.4585 C.ar    1  UNL1        0.2027
     19 N           8.8467   -4.6737   27.0865 N.ar    1  UNL1       -0.2084
     20 H           5.6760   -8.5560   26.6187 H       1  UNL1        0.2938
     21 C           5.4600   -1.4155   31.0611 C.ar    1  UNL1        0.0622
     22 C           4.0285   -1.0887   31.3671 C.ar    1  UNL1        0.0154
     23 C           3.6681   -0.4503   32.6757 C.ar    1  UNL1        0.0013
     24 C           4.7392   -0.1386   33.6783 C.ar    1  UNL1        0.0001
     25 C           6.1709   -0.4654   33.3723 C.ar    1  UNL1        0.0013
     26 C           6.5313   -1.1039   32.0637 C.ar    1  UNL1        0.0154
     27 C           4.3788    0.4998   34.9869 C.ar    1  UNL1        0.0000
     28 C           4.9674   -0.0230   36.2638 C.ar    1  UNL1        0.0000
     29 C           4.6070    0.6154   37.5724 C.ar    1  UNL1        0.0011
     30 C           3.6580    1.7767   37.6042 C.ar    1  UNL1        0.0140
     31 C           3.0694    2.2995   36.3273 C.ar    1  UNL1        0.0011
     32 C           3.4299    1.6610   35.0187 C.ar    1  UNL1        0.0000
     33 C           3.2976    2.4152   38.9128 C.2     1  UNL1        0.0729
     34 O           1.9014    2.2932   39.4475 O.co2   1  UNL1       -0.5446
     35 O           4.3334    3.1756   39.6868 O.co2   1  UNL1       -0.5446
     36 C           5.7201   -2.0493   22.9037 C.3     1  UNL1        0.1183
     37 C           5.8159   -3.7607   20.4415 C.3     1  UNL1        0.0323
     38 C           7.0064   -2.9334   20.8267 C.ar    1  UNL1       -0.0069
     39 C           8.2448   -2.9618   19.9808 C.ar    1  UNL1       -0.0015
     40 C           9.4353   -2.1346   20.3660 C.ar    1  UNL1        0.0203
     41 C           9.3874   -1.2789   21.5970 C.ar    1  UNL1        0.0985
     42 N           8.1490   -1.2504   22.4430 N.ar    1  UNL1       -0.2471
     43 C           6.9585   -2.0777   22.0578 C.ar    1  UNL1        0.0712
@<TRIPOS>UNITY_ATOM_ATTR
34 1
charge -1
@<TRIPOS>BOND
     1    37    38    1
     2    38    39   ar
     3    39    40   ar
     4    40    41   ar
     5    41    42   ar
     6    42    43   ar
     7    43    36    1
     8    36     1    1
     9     1     2    1
    10     2     3    1
    11     3     4    1
    12     4     5    1
    13     5     6    1
    14     4     7    1
    15     7     8    2
    16     7     9   am
    17     9    21    1
    18    21    22   ar
    19    22    23   ar
    20    23    24   ar
    21    24    27    1
    22    27    28   ar
    23    28    29   ar
    24    29    30   ar
    25    30    33    1
    26    33    34   ar
    27    33    35   ar
    28    30    31   ar
    29    31    32   ar
    30    24    25   ar
    31    25    26   ar
    32     9    10   am
    33    10    11    2
    34    10    12   am
    35    12    13    1
    36    13    14   ar
    37    14    15   ar
    38    15    16    1
    39    15    17   ar
    40    17    18   ar
    41    18    19   ar
    42    43    38   ar
    43     6     1    1
    44    26    21   ar
    45    19    13   ar
    46    12     4    1
    47    32    27   ar
    48    16    20    1
@<TRIPOS>MOLECULE
*****
 43 48 0 0 0
SMALL
GASTEIGER

@<TRIPOS>ATOM
      1 N           2.4490    2.4596   35.1544 N.3     1  UNL1       -0.2676
      2 C           1.7070    3.7290   34.8578 C.3     1  UNL1        0.0746
      3 C           1.3092    4.0531   33.4483 C.3     1  UNL1        0.0449
      4 C           1.6534    3.1080   32.3356 C.3     1  UNL1        0.1391
      5 C           2.3954    1.8386   32.6323 C.3     1  UNL1        0.0449
      6 C           2.7932    1.5144   34.0417 C.3     1  UNL1        0.0746
      7 C           1.9269    2.2642   31.1259 C.2     1  UNL1        0.2529
      8 O           2.6463    0.9480   31.1134 O.2     1  UNL1       -0.2724
      9 N           1.3547    2.9676   29.9310 N.am    1  UNL1       -0.1907
     10 C           0.7275    4.2463   30.4021 C.2     1  UNL1        0.3219
     11 O           0.0371    5.2600   29.5388 O.2     1  UNL1       -0.2512
     12 N           0.9121    4.3330   31.8882 N.am    1  UNL1       -0.2222
     13 C           0.4387    5.4487   32.7718 C.ar    1  UNL1        0.1453
     14 C          -0.9525    5.4229   33.3323 C.ar    1  UNL1        0.0922
     15 C          -1.4259    6.5387   34.2159 C.ar    1  UNL1        0.2259
     16 O          -2.8170    6.5129   34.7763 O.3     1  UNL1       -0.4919
     17 N          -0.5082    7.6804   34.5392 N.ar    1  UNL1       -0.1894
     18 C           0.8830    7.7062   33.9788 C.ar    1  UNL1        0.2027
     19 N           1.3563    6.5904   33.0951 N.ar    1  UNL1       -0.2084
     20 H          -3.3903    5.7998   34.5744 H       1  UNL1        0.2938
     21 C           1.4015    2.4784   28.5138 C.ar    1  UNL1        0.0622
     22 C           0.1310    2.1187   27.8022 C.ar    1  UNL1        0.0154
     23 C           0.1777    1.6295   26.3851 C.ar    1  UNL1        0.0013
     24 C           1.4950    1.5000   25.6794 C.ar    1  UNL1        0.0001
     25 C           2.7655    1.8598   26.3909 C.ar    1  UNL1        0.0013
     26 C           2.7188    2.3490   27.8081 C.ar    1  UNL1        0.0154
     27 C           1.5417    1.0108   24.2622 C.ar    1  UNL1        0.0000
     28 C           2.5997    0.0348   23.8402 C.ar    1  UNL1        0.0000
     29 C           2.6465   -0.4544   22.4230 C.ar    1  UNL1        0.0011
     30 C           1.6352    0.0324   21.4277 C.ar    1  UNL1        0.0140
     31 C           0.5772    1.0084   21.8497 C.ar    1  UNL1        0.0011
     32 C           0.5305    1.4976   23.2670 C.ar    1  UNL1        0.0000
     33 C           1.6820   -0.4569   20.0105 C.2     1  UNL1        0.0729
     34 O           2.5908   -1.5905   19.6381 O.co2   1  UNL1       -0.5446
     35 O           0.8199    0.1876   18.9658 O.co2   1  UNL1       -0.5446
     36 C           2.8469    2.1353   36.5640 C.3     1  UNL1        0.1183
     37 C           4.8679   -0.0813   36.5178 C.3     1  UNL1        0.0323
     38 C           5.2618    1.2828   37.0015 C.ar    1  UNL1       -0.0069
     39 C           6.6662    1.5386   37.4621 C.ar    1  UNL1       -0.0015
     40 C           7.0602    2.9028   37.9458 C.ar    1  UNL1        0.0203
     41 C           6.0497    4.0111   37.9689 C.ar    1  UNL1        0.0985
     42 N           4.6452    3.7553   37.5082 N.ar    1  UNL1       -0.2471
     43 C           4.2513    2.3912   37.0246 C.ar    1  UNL1        0.0712
@<TRIPOS>UNITY_ATOM_ATTR
34 1
charge -1
@<TRIPOS>BOND
     1    37    38    1
     2    38    39   ar
     3    39    40   ar
     4    40    41   ar
     5    41    42   ar
     6    42    43   ar
     7    43    36    1
     8    36     1    1
     9     1     2    1
    10     2     3    1
    11     3     4    1
    12     4     5    1
    13     5     6    1
    14     4     7    1
    15     7     8    2
    16     7     9   am
    17     9    21    1
    18    21    22   ar
    19    22    23   ar
    20    23    24   ar
    21    24    27    1
    22    27    28   ar
    23    28    29   ar
    24    29    30   ar
    25    30    33    1
    26    33    34   ar
    27    33    35   ar
    28    30    31   ar
    29    31    32   ar
    30    24    25   ar
    31    25    26   ar
    32     9    10   am
    33    10    11    2
    34    10    12   am
    35    12    13    1
    36    13    14   ar
    37    14    15   ar
    38    15    16    1
    39    15    17   ar
    40    17    18   ar
    41    18    19   ar
    42    43    38   ar
    43     6     1    1
    44    26    21   ar
    45    19    13   ar
    46    12     4    1
    47    32    27   ar
    48    16    20    1
@<TRIPOS>MOLECULE
*****
 43 48 0 0 0
SMALL
GASTEIGER

@<TRIPOS>ATOM
      1 N           2.5583   -0.6427   21.2196 N.3     1  UNL1       -0.2676
      2 C           1.8015    0.6431   21.3741 C.3     1  UNL1        0.0746
      3 C           1.6590    1.2713   22.7287 C.3     1  UNL1        0.0449
      4 C           2.2734    0.6137   23.9288 C.3     1  UNL1        0.1391
      5 C           3.0302   -0.6721   23.7742 C.3     1  UNL1        0.0449
      6 C           3.1727   -1.3003   22.4196 C.3     1  UNL1        0.0746
      7 C           2.8301    0.0752   25.2134 C.2     1  UNL1        0.2529
      8 O           3.6270   -1.1861   25.3689 O.2     1  UNL1       -0.2724
      9 N           2.4499    1.0194   26.3153 N.am    1  UNL1       -0.1907
     10 C           1.6582    2.1415   25.7116 C.2     1  UNL1        0.3219
     11 O           1.0777    3.3092   26.4527 O.2     1  UNL1       -0.2512
     12 N           1.5491    1.8907   24.2368 N.am    1  UNL1       -0.2222
     13 C           0.8403    2.7636   23.2441 C.ar    1  UNL1        0.1453
     14 C          -0.6170    2.5479   22.9616 C.ar    1  UNL1        0.0922
     15 C          -1.3258    3.4209   21.9689 C.ar    1  UNL1        0.2259
     16 O          -2.7831    3.2052   21.6865 O.3     1  UNL1       -0.4919
     17 N          -0.5773    4.5096   21.2586 N.ar    1  UNL1       -0.1894
     18 C           0.8799    4.7253   21.5410 C.ar    1  UNL1        0.2027
     19 N           1.5887    3.8524   22.5337 N.ar    1  UNL1       -0.2084
     20 H          -3.2506    2.5251   22.1302 H       1  UNL1        0.2938
     21 C           2.8000    0.8681   27.7660 C.ar    1  UNL1        0.0622
     22 C           3.8391    1.7564   28.3833 C.ar    1  UNL1        0.0154
     23 C           4.1891    1.6051   29.8340 C.ar    1  UNL1        0.0013
     24 C           3.5001    0.5656   30.6674 C.ar    1  UNL1        0.0001
     25 C           2.4609   -0.3227   30.0500 C.ar    1  UNL1        0.0013
     26 C           2.1108   -0.1714   28.5993 C.ar    1  UNL1        0.0154
     27 C           3.8501    0.4143   32.1181 C.ar    1  UNL1        0.0000
     28 C           3.7986    1.6042   33.0301 C.ar    1  UNL1        0.0000
     29 C           4.1486    1.4529   34.4808 C.ar    1  UNL1        0.0011
     30 C           4.5502    0.1118   35.0196 C.ar    1  UNL1        0.0140
     31 C           4.6018   -1.0781   34.1076 C.ar    1  UNL1        0.0011
     32 C           4.2517   -0.9267   32.6568 C.ar    1  UNL1        0.0000
     33 C           4.9003   -0.0395   36.4703 C.2     1  UNL1        0.0729
     34 O           6.2003   -0.6746   36.8658 O.co2   1  UNL1       -0.5446
     35 O           3.9503    0.4444   37.5254 O.co2   1  UNL1       -0.5446
     36 C           2.7008   -1.2710   19.8649 C.3     1  UNL1        0.1183
     37 C           3.5162   -4.0518   19.0888 C.3     1  UNL1        0.0323
     38 C           4.4728   -2.9111   18.9056 C.ar    1  UNL1       -0.0069
     39 C           5.8371   -3.1607   18.3344 C.ar    1  UNL1       -0.0015
     40 C           6.7938   -2.0200   18.1513 C.ar    1  UNL1        0.0203
     41 C           6.3861   -0.6296   18.5394 C.ar    1  UNL1        0.0985
     42 N           5.0218   -0.3799   19.1106 N.ar    1  UNL1       -0.2471
     43 C           4.0651   -1.5206   19.2937 C.ar    1  UNL1        0.0712
@<TRIPOS>UNITY_ATOM_ATTR
34 1
charge -1
@<TRIPOS>BOND
     1    37    38    1
     2    38    39   ar
     3    39    40   ar
     4    40    41   ar
     5    41    42   ar
     6    42    43   ar
     7    43    36    1
     8    36     1    1
     9     1     2    1
    10     2     3    1
    11     3     4    1
    12     4     5    1
    13     5     6    1
    14     4     7    1
    15     7     8    2
    16     7     9   am
    17     9    21    1
    18    21    22   ar
    19    22    23   ar
    20    23    24   ar
    21    24    27    1
    22    27    28   ar
    23    28    29   ar
    24    29    30   ar
    25    30    33    1
    26    33    34   ar
    27    33    35   ar
    28    30    31   ar
    29    31    32   ar
    30    24    25   ar
    31    25    26   ar
    32     9    10   am
    33    10    11    2
    34    10    12   am
    35    12    13    1
    36    13    14   ar
    37    14    15   ar
    38    15    16    1
    39    15    17   ar
    40    17    18   ar
    41    18    19   ar
    42    43    38   ar
    43     6     1    1
    44    26    21   ar
    45    19    13   ar
    46    12     4    1
    47    32    27   ar
    48    16    20    1
