@<TRIPOS>MOLECULE
*****
 33 35 0 0 0
SMALL
GASTEIGER

@<TRIPOS>ATOM
      1 C         -10.1871  -18.3234   22.0128 C.ar    1  UNL1        0.1306
      2 C          -8.7079  -18.2244   21.7846 C.ar    1  UNL1        0.0115
      3 C          -7.8458  -17.4846   22.7641 C.ar    1  UNL1       -0.0048
      4 C          -8.4628  -16.8438   23.9718 C.ar    1  UNL1       -0.0102
      5 C          -9.9420  -16.9429   24.2000 C.ar    1  UNL1       -0.0048
      6 C         -10.8041  -17.6827   23.2205 C.ar    1  UNL1        0.0106
      7 C          -7.6007  -16.1040   24.9513 C.3     1  UNL1        0.1227
      8 C          -7.9961  -16.0360   26.3966 C.2     1  UNL1       -0.0115
      9 C          -7.1340  -15.2962   27.3761 C.2     1  UNL1        0.0141
     10 C          -5.8764  -14.6244   26.9103 C.2     1  UNL1        0.0883
     11 N          -5.4809  -14.6924   25.4650 N.am    1  UNL1       -0.1774
     12 C          -6.3431  -15.4322   24.4855 C.2     1  UNL1        0.2533
     13 O          -5.9476  -15.5001   23.0401 O.2     1  UNL1       -0.2723
     14 C         -12.2834  -17.7817   23.4488 C.3     1  UNL1        0.0218
     15 C         -12.0690  -18.9873   24.3151 C.3     1  UNL1        0.0045
     16 C         -12.4978  -16.5761   22.5825 C.3     1  UNL1        0.0045
     17 C         -13.7626  -17.8807   23.6771 C.3     1  UNL1        0.0045
     18 C         -11.3323  -18.4693   19.6854 C.3     1  UNL1        0.2524
     19 O         -11.0492  -19.0632   21.0333 O.3     1  UNL1       -0.4721
     20 C          -8.0908  -18.8652   20.5768 C.3     1  UNL1        0.0341
     21 C          -7.0898  -19.9699   20.7429 C.3     1  UNL1        0.0311
     22 C          -5.6364  -19.6446   20.9212 C.ar    1  UNL1       -0.0218
     23 C          -4.7480  -19.4977   19.7216 C.ar    1  UNL1       -0.0029
     24 C          -3.2947  -19.1724   19.9000 C.ar    1  UNL1        0.0155
     25 C          -2.7296  -18.9940   21.2780 C.ar    1  UNL1        0.0644
     26 C          -3.6180  -19.1410   22.4776 C.ar    1  UNL1        0.0155
     27 C          -5.0713  -19.4663   22.2993 C.ar    1  UNL1       -0.0029
     28 N          -1.2762  -18.6687   21.4563 N.pl3   1  UNL1       -0.2187
     29 H          -0.7668  -19.0785   22.1924 H       1  UNL1        0.1734
     30 S          -0.5990  -17.7192   20.5131 S.O2    1  UNL1        0.0558
     31 C           0.0783  -16.7696   19.5699 C.3     1  UNL1        0.1996
     32 O          -1.3748  -16.5793   21.1036 O.2     1  UNL1       -0.1544
     33 O           0.1769  -18.8591   19.9227 O.2     1  UNL1       -0.1544
@<TRIPOS>BOND
     1    18    19    1
     2    19     1    1
     3     1     2   ar
     4     2    20    1
     5    20    21    1
     6    21    22    1
     7    22    23   ar
     8    23    24   ar
     9    24    25   ar
    10    25    28    1
    11    28    30    1
    12    30    31    1
    13    30    32    2
    14    30    33    2
    15    25    26   ar
    16    26    27   ar
    17     2     3   ar
    18     3     4   ar
    19     4     7    1
    20     7     8    1
    21     8     9    2
    22     9    10    1
    23    10    11    2
    24    11    12    1
    25    12    13    2
    26     4     5   ar
    27     5     6   ar
    28     6    14    1
    29    14    15    1
    30    14    16    1
    31    14    17    1
    32     6     1   ar
    33    27    22   ar
    34    12     7    1
    35    28    29    1
@<TRIPOS>MOLECULE
*****
 33 35 0 0 0
SMALL
GASTEIGER

@<TRIPOS>ATOM
      1 C           4.6051   -3.1831   21.8445 C.ar    1  UNL1        0.1306
      2 C           4.2238   -2.0914   22.7998 C.ar    1  UNL1        0.0115
      3 C           3.3537   -0.9603   22.3376 C.ar    1  UNL1       -0.0048
      4 C           2.8649   -0.9210   20.9201 C.ar    1  UNL1       -0.0102
      5 C           3.2463   -2.0127   19.9647 C.ar    1  UNL1       -0.0048
      6 C           4.1164   -3.1437   20.4269 C.ar    1  UNL1        0.0106
      7 C           1.9948    0.2101   20.4579 C.3     1  UNL1        0.1227
      8 C           0.5923    0.3369   20.9745 C.2     1  UNL1       -0.0115
      9 C          -0.2778    1.4680   20.5123 C.2     1  UNL1        0.0141
     10 C           0.2546    2.4722   19.5335 C.2     1  UNL1        0.0883
     11 N           1.6570    2.3454   19.0169 N.am    1  UNL1       -0.1774
     12 C           2.5272    1.2143   19.4791 C.2     1  UNL1        0.2533
     13 O           3.9297    1.0875   18.9624 O.2     1  UNL1       -0.2723
     14 C           4.4977   -4.2354   19.4714 C.3     1  UNL1        0.0218
     15 C           3.3700   -5.0798   19.9863 C.3     1  UNL1        0.0045
     16 C           5.6255   -3.3910   18.9566 C.3     1  UNL1        0.0045
     17 C           4.8790   -5.3271   18.5161 C.3     1  UNL1        0.0045
     18 C           6.9671   -4.1584   22.3132 C.3     1  UNL1        0.2524
     19 O           5.4753   -4.3141   22.3066 O.3     1  UNL1       -0.4721
     20 C           4.7126   -2.1307   24.2175 C.3     1  UNL1        0.0341
     21 C           5.0160   -0.8528   24.9419 C.3     1  UNL1        0.0311
     22 C           3.9880   -0.2417   25.8474 C.ar    1  UNL1       -0.0218
     23 C           3.4267    1.1143   25.5373 C.ar    1  UNL1       -0.0029
     24 C           2.3987    1.7254   26.4428 C.ar    1  UNL1        0.0155
     25 C           1.9322    0.9805   27.6583 C.ar    1  UNL1        0.0644
     26 C           2.4936   -0.3755   27.9684 C.ar    1  UNL1        0.0155
     27 C           3.5215   -0.9866   27.0629 C.ar    1  UNL1       -0.0029
     28 N           0.9042    1.5916   28.5638 N.pl3   1  UNL1       -0.2187
     29 H           1.0657    2.4756   28.9660 H       1  UNL1        0.1734
     30 S          -0.3697    0.8559   28.8565 S.O2    1  UNL1        0.0558
     31 C          -1.6437    0.1202   29.1493 C.3     1  UNL1        0.1996
     32 O          -0.8056    1.0447   27.4338 O.2     1  UNL1       -0.1544
     33 O           0.0662    0.6672   30.2793 O.2     1  UNL1       -0.1544
@<TRIPOS>BOND
     1    18    19    1
     2    19     1    1
     3     1     2   ar
     4     2    20    1
     5    20    21    1
     6    21    22    1
     7    22    23   ar
     8    23    24   ar
     9    24    25   ar
    10    25    28    1
    11    28    30    1
    12    30    31    1
    13    30    32    2
    14    30    33    2
    15    25    26   ar
    16    26    27   ar
    17     2     3   ar
    18     3     4   ar
    19     4     7    1
    20     7     8    1
    21     8     9    2
    22     9    10    1
    23    10    11    2
    24    11    12    1
    25    12    13    2
    26     4     5   ar
    27     5     6   ar
    28     6    14    1
    29    14    15    1
    30    14    16    1
    31    14    17    1
    32     6     1   ar
    33    27    22   ar
    34    12     7    1
    35    28    29    1
@<TRIPOS>MOLECULE
*****
 33 35 0 0 0
SMALL
GASTEIGER

@<TRIPOS>ATOM
      1 C           4.4703   -3.1560   21.8185 C.ar    1  UNL1        0.1306
      2 C           4.0350   -2.0559   22.7406 C.ar    1  UNL1        0.0115
      3 C           3.1884   -0.9322   22.2203 C.ar    1  UNL1       -0.0048
      4 C           2.7770   -0.9087   20.7781 C.ar    1  UNL1       -0.0102
      5 C           3.2123   -2.0089   19.8560 C.ar    1  UNL1       -0.0048
      6 C           4.0589   -3.1325   20.3763 C.ar    1  UNL1        0.0106
      7 C           1.9304    0.2149   20.2578 C.3     1  UNL1        0.1227
      8 C           0.5321    0.3990   20.7685 C.2     1  UNL1       -0.0115
      9 C          -0.3145    1.5226   20.2482 C.2     1  UNL1        0.0141
     10 C           0.2371    2.4622   19.2173 C.2     1  UNL1        0.0883
     11 N           1.6354    2.2781   18.7067 N.am    1  UNL1       -0.1774
     12 C           2.4821    1.1545   19.2269 C.2     1  UNL1        0.2533
     13 O           3.8804    0.9704   18.7162 O.2     1  UNL1       -0.2723
     14 C           4.4942   -4.2327   19.4542 C.3     1  UNL1        0.0218
     15 C           5.6715   -3.4078   19.0257 C.3     1  UNL1        0.0045
     16 C           3.3170   -5.0576   19.8826 C.3     1  UNL1        0.0045
     17 C           4.9295   -5.3328   18.5321 C.3     1  UNL1        0.0045
     18 C           6.8019   -4.1059   22.4599 C.3     1  UNL1        0.2524
     19 O           5.3169   -4.2796   22.3388 O.3     1  UNL1       -0.4721
     20 C           4.4464   -2.0793   24.1829 C.3     1  UNL1        0.0341
     21 C           4.6706   -0.7923   24.9199 C.3     1  UNL1        0.0311
     22 C           3.5821   -0.2206   25.7793 C.ar    1  UNL1       -0.0218
     23 C           3.3919   -0.7213   27.1804 C.ar    1  UNL1       -0.0029
     24 C           2.3035   -0.1497   28.0398 C.ar    1  UNL1        0.0155
     25 C           1.4053    0.9226   27.4981 C.ar    1  UNL1        0.0644
     26 C           1.5956    1.4233   26.0970 C.ar    1  UNL1        0.0155
     27 C           2.6840    0.8517   25.2376 C.ar    1  UNL1       -0.0029
     28 N           0.3168    1.4942   28.3575 N.pl3   1  UNL1       -0.2187
     29 H          -0.5732    1.6676   27.9741 H       1  UNL1        0.1734
     30 S           0.5845    1.8016   29.8010 S.O2    1  UNL1        0.0558
     31 C           0.8522    2.1091   31.2445 C.3     1  UNL1        0.1996
     32 O          -0.3622    0.7119   30.2087 O.2     1  UNL1       -0.1544
     33 O           1.5312    2.8914   29.3934 O.2     1  UNL1       -0.1544
@<TRIPOS>BOND
     1    18    19    1
     2    19     1    1
     3     1     2   ar
     4     2    20    1
     5    20    21    1
     6    21    22    1
     7    22    23   ar
     8    23    24   ar
     9    24    25   ar
    10    25    28    1
    11    28    30    1
    12    30    31    1
    13    30    32    2
    14    30    33    2
    15    25    26   ar
    16    26    27   ar
    17     2     3   ar
    18     3     4   ar
    19     4     7    1
    20     7     8    1
    21     8     9    2
    22     9    10    1
    23    10    11    2
    24    11    12    1
    25    12    13    2
    26     4     5   ar
    27     5     6   ar
    28     6    14    1
    29    14    15    1
    30    14    16    1
    31    14    17    1
    32     6     1   ar
    33    27    22   ar
    34    12     7    1
    35    28    29    1
@<TRIPOS>MOLECULE
*****
 33 35 0 0 0
SMALL
GASTEIGER

@<TRIPOS>ATOM
      1 C          -1.7264    3.5315   23.0572 C.ar    1  UNL1        0.1306
      2 C          -0.4421    2.7796   23.2444 C.ar    1  UNL1        0.0115
      3 C          -0.0291    2.3299   24.6145 C.ar    1  UNL1       -0.0048
      4 C          -0.9005    2.6320   25.7975 C.ar    1  UNL1       -0.0102
      5 C          -2.1849    3.3839   25.6103 C.ar    1  UNL1       -0.0048
      6 C          -2.5978    3.8337   24.2402 C.ar    1  UNL1        0.0106
      7 C          -0.4876    2.1822   27.1676 C.3     1  UNL1        0.1227
      8 C          -0.8407    0.8040   27.6427 C.2     1  UNL1       -0.0115
      9 C          -0.4278    0.3542   29.0128 C.2     1  UNL1        0.0141
     10 C           0.3383    1.2826   29.9078 C.2     1  UNL1        0.0883
     11 N           0.6914    2.6609   29.4327 N.am    1  UNL1       -0.1774
     12 C           0.2785    3.1106   28.0626 C.2     1  UNL1        0.2533
     13 O           0.6317    4.4889   27.5875 O.2     1  UNL1       -0.2723
     14 C          -3.8822    4.5856   24.0530 C.3     1  UNL1        0.0218
     15 C          -4.6355    3.2891   24.0140 C.3     1  UNL1        0.0045
     16 C          -3.1289    5.8821   24.0920 C.3     1  UNL1        0.0045
     17 C          -5.1666    5.3375   23.8659 C.3     1  UNL1        0.0045
     18 C          -2.9811    3.0869   20.8261 C.3     1  UNL1        0.2524
     19 O          -2.1393    3.9813   21.6871 O.3     1  UNL1       -0.4721
     20 C           0.4294    2.4775   22.0615 C.3     1  UNL1        0.0341
     21 C           0.2384    1.2020   21.2955 C.3     1  UNL1        0.0311
     22 C           1.3650    0.2177   21.1850 C.ar    1  UNL1       -0.0218
     23 C           1.5223   -0.6054   19.9409 C.ar    1  UNL1       -0.0029
     24 C           2.6488   -1.5897   19.8304 C.ar    1  UNL1        0.0155
     25 C           3.6179   -1.7508   20.9639 C.ar    1  UNL1        0.0644
     26 C           3.4605   -0.9277   22.2080 C.ar    1  UNL1        0.0155
     27 C           2.3341    0.0565   22.3185 C.ar    1  UNL1       -0.0029
     28 N           4.7444   -2.7352   20.8534 N.pl3   1  UNL1       -0.2187
     29 H           5.5319   -2.6497   21.4379 H       1  UNL1        0.1734
     30 S           4.6709   -3.8497   19.8522 S.O2    1  UNL1        0.0558
     31 C           4.5975   -4.9642   18.8510 C.3     1  UNL1        0.1996
     32 O           5.3521   -2.9817   18.8360 O.2     1  UNL1       -0.1544
     33 O           3.9898   -4.7176   20.8684 O.2     1  UNL1       -0.1544
@<TRIPOS>BOND
     1    18    19    1
     2    19     1    1
     3     1     2   ar
     4     2    20    1
     5    20    21    1
     6    21    22    1
     7    22    23   ar
     8    23    24   ar
     9    24    25   ar
    10    25    28    1
    11    28    30    1
    12    30    31    1
    13    30    32    2
    14    30    33    2
    15    25    26   ar
    16    26    27   ar
    17     2     3   ar
    18     3     4   ar
    19     4     7    1
    20     7     8    1
    21     8     9    2
    22     9    10    1
    23    10    11    2
    24    11    12    1
    25    12    13    2
    26     4     5   ar
    27     5     6   ar
    28     6    14    1
    29    14    15    1
    30    14    16    1
    31    14    17    1
    32     6     1   ar
    33    27    22   ar
    34    12     7    1
    35    28    29    1
