@<TRIPOS>MOLECULE
*****
 29 32 0 0 0
SMALL
GASTEIGER

@<TRIPOS>ATOM
      1 O           6.0659   -2.5053   24.8209 O.2     1  UNL1       -0.2522
      2 C           6.5935   -3.9085   24.7686 C.2     1  UNL1        0.3080
      3 N           6.8356   -4.5699   23.4443 N.am    1  UNL1       -0.2681
      4 N           6.8791   -4.6503   26.0407 N.am    1  UNL1       -0.2559
      5 C           7.4034   -6.0461   25.8765 C.3     1  UNL1        0.1425
      6 C           7.7807   -7.0346   26.9399 C.3     1  UNL1        0.2268
      7 O           7.7269   -6.8713   28.4299 O.3     1  UNL1       -0.4739
      8 C           7.2825   -5.6794   29.2248 C.ar    1  UNL1        0.1362
      9 C           7.3860   -5.9345   30.6993 C.ar    1  UNL1        0.0366
     10 C           6.9891   -4.8664   31.6749 C.ar    1  UNL1        0.0031
     11 C           6.4888   -3.5432   31.1759 C.ar    1  UNL1        0.0000
     12 C           6.3853   -3.2882   29.7013 C.ar    1  UNL1        0.0004
     13 C           6.7822   -4.3562   28.7258 C.ar    1  UNL1        0.0317
     14 C           6.6027   -3.8983   27.3087 C.3     1  UNL1        0.1248
     15 H           7.1819   -5.4908   23.4099 H       1  UNL1        0.1564
     16 C           6.5500   -3.8280   22.1721 C.ar    1  UNL1        0.0525
     17 C           7.6641   -3.1447   21.4362 C.ar    1  UNL1        0.0156
     18 C           7.3785   -2.4029   20.1641 C.ar    1  UNL1        0.0135
     19 C           5.9788   -2.3445   19.6280 C.ar    1  UNL1        0.0683
     20 CL          5.6933   -1.6026   18.3559 Cl      1  UNL1       -0.0814
     21 C           4.8647   -3.0278   20.3640 C.ar    1  UNL1        0.0694
     22 CL          3.4650   -2.9694   19.8279 Cl      1  UNL1       -0.0813
     23 C           5.1503   -3.7696   21.6360 C.ar    1  UNL1        0.0270
     24 C           6.0920   -2.4752   32.1515 C.ar    1  UNL1        0.0031
     25 C           6.9715   -1.2764   32.3500 C.ar    1  UNL1        0.0207
     26 C           6.5747   -0.2083   33.3255 C.ar    1  UNL1        0.0989
     27 N           5.2982   -0.3390   34.1026 N.ar    1  UNL1       -0.2423
     28 C           4.4187   -1.5377   33.9040 C.ar    1  UNL1        0.0989
     29 C           4.8156   -2.6058   32.9284 C.ar    1  UNL1        0.0207
@<TRIPOS>BOND
     1     1     2    2
     2     2     3   am
     3     3    16    1
     4    16    17   ar
     5    17    18   ar
     6    18    19   ar
     7    19    20    1
     8    19    21   ar
     9    21    22    1
    10    21    23   ar
    11     2     4   am
    12     4     5    1
    13     5     6    1
    14     6     7    1
    15     7     8    1
    16     8     9   ar
    17     9    10   ar
    18    10    11   ar
    19    11    24    1
    20    24    25   ar
    21    25    26   ar
    22    26    27   ar
    23    27    28   ar
    24    28    29   ar
    25    11    12   ar
    26    12    13   ar
    27    13    14    1
    28    23    16   ar
    29    14     4    1
    30    13     8   ar
    31    29    24   ar
    32     3    15    1
@<TRIPOS>MOLECULE
*****
 29 32 0 0 0
SMALL
GASTEIGER

@<TRIPOS>ATOM
      1 O           5.8188   -2.4144   26.2724 O.2     1  UNL1       -0.2522
      2 C           6.7845   -3.3791   25.6505 C.2     1  UNL1        0.3080
      3 N           7.7875   -4.0934   26.5070 N.am    1  UNL1       -0.2681
      4 N           6.7470   -3.6296   24.1720 N.am    1  UNL1       -0.2559
      5 C           7.7550   -4.6117   23.6526 C.3     1  UNL1        0.1425
      6 C           7.9714   -5.0715   22.2413 C.3     1  UNL1        0.2268
      7 O           7.2335   -4.6630   21.0010 O.3     1  UNL1       -0.4739
      8 C           6.0969   -3.6936   20.8655 C.ar    1  UNL1        0.1362
      9 C           5.6468   -3.5726   19.4397 C.ar    1  UNL1        0.0366
     10 C           4.5173   -2.6513   19.0854 C.ar    1  UNL1        0.0031
     11 C           3.8378   -1.8511   20.1568 C.ar    1  UNL1        0.0000
     12 C           4.2879   -1.9722   21.5826 C.ar    1  UNL1        0.0004
     13 C           5.4174   -2.8934   21.9369 C.ar    1  UNL1        0.0317
     14 C           5.7068   -2.8649   23.4085 C.3     1  UNL1        0.1248
     15 H           8.4213   -4.7266   26.0988 H       1  UNL1        0.1564
     16 C           7.8249   -3.8430   27.9856 C.ar    1  UNL1        0.0525
     17 C           8.3431   -2.5376   28.5122 C.ar    1  UNL1        0.0156
     18 C           8.3804   -2.2872   29.9907 C.ar    1  UNL1        0.0135
     19 C           7.8997   -3.3421   30.9425 C.ar    1  UNL1        0.0683
     20 CL          7.9371   -3.0916   32.4210 Cl      1  UNL1       -0.0814
     21 C           7.3815   -4.6475   30.4158 C.ar    1  UNL1        0.0694
     22 CL          6.9008   -5.7025   31.3676 Cl      1  UNL1       -0.0813
     23 C           7.3442   -4.8979   28.9373 C.ar    1  UNL1        0.0270
     24 C           2.7083   -0.9299   19.8025 C.ar    1  UNL1        0.0031
     25 C           2.7428   -0.1617   18.5146 C.ar    1  UNL1        0.0207
     26 C           1.6133    0.7595   18.1603 C.ar    1  UNL1        0.0989
     27 N           0.4493    0.9125   19.0940 N.ar    1  UNL1       -0.2423
     28 C           0.4148    0.1444   20.3819 C.ar    1  UNL1        0.0989
     29 C           1.5444   -0.7769   20.7361 C.ar    1  UNL1        0.0207
@<TRIPOS>BOND
     1     1     2    2
     2     2     3   am
     3     3    16    1
     4    16    17   ar
     5    17    18   ar
     6    18    19   ar
     7    19    20    1
     8    19    21   ar
     9    21    22    1
    10    21    23   ar
    11     2     4   am
    12     4     5    1
    13     5     6    1
    14     6     7    1
    15     7     8    1
    16     8     9   ar
    17     9    10   ar
    18    10    11   ar
    19    11    24    1
    20    24    25   ar
    21    25    26   ar
    22    26    27   ar
    23    27    28   ar
    24    28    29   ar
    25    11    12   ar
    26    12    13   ar
    27    13    14    1
    28    23    16   ar
    29    14     4    1
    30    13     8   ar
    31    29    24   ar
    32     3    15    1
@<TRIPOS>MOLECULE
*****
 29 32 0 0 0
SMALL
GASTEIGER

@<TRIPOS>ATOM
      1 O           5.8412   -2.0970   29.6161 O.2     1  UNL1       -0.2522
      2 C           6.4792   -3.3604   30.1127 C.2     1  UNL1        0.3080
      3 N           6.6113   -3.6048   31.5867 N.am    1  UNL1       -0.2681
      4 N           6.9853   -4.3795   29.1352 N.am    1  UNL1       -0.2559
      5 C           7.6054   -5.6060   29.7363 C.3     1  UNL1        0.1425
      6 C           8.1977   -6.7933   29.0364 C.3     1  UNL1        0.2268
      7 O           8.3162   -7.0472   27.5629 O.3     1  UNL1       -0.4739
      8 C           7.8716   -6.1767   26.4251 C.ar    1  UNL1        0.1362
      9 C           8.1802   -6.8073   25.0996 C.ar    1  UNL1        0.0366
     10 C           7.8160   -6.0984   23.8288 C.ar    1  UNL1        0.0031
     11 C           7.1432   -4.7589   23.8836 C.ar    1  UNL1        0.0000
     12 C           6.8345   -4.1283   25.2092 C.ar    1  UNL1        0.0004
     13 C           7.1987   -4.8372   26.4799 C.ar    1  UNL1        0.0317
     14 C           6.8043   -4.0374   27.6861 C.3     1  UNL1        0.1248
     15 H           7.0300   -4.4340   31.9126 H       1  UNL1        0.1564
     16 C           6.1052   -2.5857   32.5642 C.ar    1  UNL1        0.0525
     17 C           4.6945   -2.6653   33.0678 C.ar    1  UNL1        0.0156
     18 C           4.1885   -1.6462   34.0452 C.ar    1  UNL1        0.0135
     19 C           5.0932   -0.5475   34.5191 C.ar    1  UNL1        0.0683
     20 CL          4.5871    0.4715   35.4965 Cl      1  UNL1       -0.0814
     21 C           6.5038   -0.4680   34.0154 C.ar    1  UNL1        0.0694
     22 CL          7.4085    0.6308   34.4893 Cl      1  UNL1       -0.0813
     23 C           7.0098   -1.4870   33.0380 C.ar    1  UNL1        0.0270
     24 C           6.7790   -4.0500   22.6129 C.ar    1  UNL1        0.0031
     25 C           5.3410   -3.7552   22.3041 C.ar    1  UNL1        0.0207
     26 C           4.9768   -3.0463   21.0334 C.ar    1  UNL1        0.0989
     27 N           6.0506   -2.6322   20.0713 N.ar    1  UNL1       -0.2423
     28 C           7.4886   -2.9270   20.3801 C.ar    1  UNL1        0.0989
     29 C           7.8528   -3.6359   21.6509 C.ar    1  UNL1        0.0207
@<TRIPOS>BOND
     1     1     2    2
     2     2     3   am
     3     3    16    1
     4    16    17   ar
     5    17    18   ar
     6    18    19   ar
     7    19    20    1
     8    19    21   ar
     9    21    22    1
    10    21    23   ar
    11     2     4   am
    12     4     5    1
    13     5     6    1
    14     6     7    1
    15     7     8    1
    16     8     9   ar
    17     9    10   ar
    18    10    11   ar
    19    11    24    1
    20    24    25   ar
    21    25    26   ar
    22    26    27   ar
    23    27    28   ar
    24    28    29   ar
    25    11    12   ar
    26    12    13   ar
    27    13    14    1
    28    23    16   ar
    29    14     4    1
    30    13     8   ar
    31    29    24   ar
    32     3    15    1
@<TRIPOS>MOLECULE
*****
 29 32 0 0 0
SMALL
GASTEIGER

@<TRIPOS>ATOM
      1 O           5.3165   -1.5823   26.9310 O.2     1  UNL1       -0.2522
      2 C           6.2356   -2.6988   26.5331 C.2     1  UNL1        0.3080
      3 N           7.1355   -3.3294   27.5541 N.am    1  UNL1       -0.2681
      4 N           6.2549   -3.1848   25.1141 N.am    1  UNL1       -0.2559
      5 C           7.2095   -4.3046   24.8226 C.3     1  UNL1        0.1425
      6 C           7.4620   -5.0028   23.5192 C.3     1  UNL1        0.2268
      7 O           6.8223   -4.7539   22.1856 O.3     1  UNL1       -0.4739
      8 C           5.7720   -3.7451   21.8258 C.ar    1  UNL1        0.1362
      9 C           5.4063   -3.8290   20.3735 C.ar    1  UNL1        0.0366
     10 C           4.3706   -2.9040   19.8063 C.ar    1  UNL1        0.0031
     11 C           3.7007   -1.8951   20.6913 C.ar    1  UNL1        0.0000
     12 C           4.0665   -1.8112   22.1437 C.ar    1  UNL1        0.0004
     13 C           5.1021   -2.7362   22.7109 C.ar    1  UNL1        0.0317
     14 C           5.3171   -2.4869   24.1743 C.3     1  UNL1        0.1248
     15 H           7.7388   -4.0623   27.2929 H       1  UNL1        0.1564
     16 C           7.1163   -2.8434   28.9731 C.ar    1  UNL1        0.0525
     17 C           6.4656   -3.6720   30.0409 C.ar    1  UNL1        0.0156
     18 C           6.4464   -3.1859   31.4598 C.ar    1  UNL1        0.0135
     19 C           7.0778   -1.8714   31.8110 C.ar    1  UNL1        0.0683
     20 CL          7.0585   -1.3854   33.2299 Cl      1  UNL1       -0.0814
     21 C           7.7284   -1.0429   30.7432 C.ar    1  UNL1        0.0694
     22 CL          8.3598    0.2717   31.0944 Cl      1  UNL1       -0.0813
     23 C           7.7477   -1.5289   29.3243 C.ar    1  UNL1        0.0270
     24 C           2.6651   -0.9701   20.1241 C.ar    1  UNL1        0.0031
     25 C           1.4183   -0.6720   20.9031 C.ar    1  UNL1        0.0207
     26 C           0.3827    0.2530   20.3359 C.ar    1  UNL1        0.0989
     27 N           0.5938    0.8800   18.9897 N.ar    1  UNL1       -0.2423
     28 C           1.8405    0.5820   18.2107 C.ar    1  UNL1        0.0989
     29 C           2.8762   -0.3431   18.7779 C.ar    1  UNL1        0.0207
@<TRIPOS>BOND
     1     1     2    2
     2     2     3   am
     3     3    16    1
     4    16    17   ar
     5    17    18   ar
     6    18    19   ar
     7    19    20    1
     8    19    21   ar
     9    21    22    1
    10    21    23   ar
    11     2     4   am
    12     4     5    1
    13     5     6    1
    14     6     7    1
    15     7     8    1
    16     8     9   ar
    17     9    10   ar
    18    10    11   ar
    19    11    24    1
    20    24    25   ar
    21    25    26   ar
    22    26    27   ar
    23    27    28   ar
    24    28    29   ar
    25    11    12   ar
    26    12    13   ar
    27    13    14    1
    28    23    16   ar
    29    14     4    1
    30    13     8   ar
    31    29    24   ar
    32     3    15    1
@<TRIPOS>MOLECULE
*****
 29 32 0 0 0
SMALL
GASTEIGER

@<TRIPOS>ATOM
      1 O           1.9586    1.0046   25.3638 O.2     1  UNL1       -0.2522
      2 C           0.7888    1.7809   24.8357 C.2     1  UNL1        0.3080
      3 N          -0.1629    2.4433   25.7873 N.am    1  UNL1       -0.2681
      4 N           0.5706    1.8947   23.3561 N.am    1  UNL1       -0.2559
      5 C          -0.6278    2.6925   22.9344 C.3     1  UNL1        0.1425
      6 C          -1.1131    2.9882   21.5462 C.3     1  UNL1        0.2268
      7 O          -0.5200    2.5593   20.2370 O.3     1  UNL1       -0.4739
      8 C           0.7048    1.7287   19.9924 C.ar    1  UNL1        0.1362
      9 C           0.9491    1.5312   18.5257 C.ar    1  UNL1        0.0366
     10 C           2.1278    0.7268   18.0632 C.ar    1  UNL1        0.0031
     11 C           3.0621    0.1199   19.0676 C.ar    1  UNL1        0.0000
     12 C           2.8177    0.3175   20.5344 C.ar    1  UNL1        0.0004
     13 C           1.6391    1.1218   20.9967 C.ar    1  UNL1        0.0317
     14 C           1.5793    1.1957   22.4937 C.3     1  UNL1        0.1248
     15 H          -0.9307    2.9528   25.4407 H       1  UNL1        0.1564
     16 C           0.0554    2.3295   27.2671 C.ar    1  UNL1        0.0525
     17 C          -0.4020    1.1037   28.0005 C.ar    1  UNL1        0.0156
     18 C          -0.1837    0.9899   29.4802 C.ar    1  UNL1        0.0135
     19 C           0.4919    2.1020   30.2264 C.ar    1  UNL1        0.0683
     20 CL          0.7101    1.9881   31.7060 Cl      1  UNL1       -0.0814
     21 C           0.9493    3.3278   29.4928 C.ar    1  UNL1        0.0694
     22 CL          1.6250    4.4399   30.2391 Cl      1  UNL1       -0.0813
     23 C           0.7311    3.4416   28.0132 C.ar    1  UNL1        0.0270
     24 C           4.2407   -0.6845   18.6053 C.ar    1  UNL1        0.0031
     25 C           4.2047   -2.1819   18.6855 C.ar    1  UNL1        0.0207
     26 C           5.3834   -2.9863   18.2232 C.ar    1  UNL1        0.0989
     27 N           6.5980   -2.2932   17.6806 N.ar    1  UNL1       -0.2423
     28 C           6.6340   -0.7958   17.6003 C.ar    1  UNL1        0.0989
     29 C           5.4553    0.0086   18.0627 C.ar    1  UNL1        0.0207
@<TRIPOS>BOND
     1     1     2    2
     2     2     3   am
     3     3    16    1
     4    16    17   ar
     5    17    18   ar
     6    18    19   ar
     7    19    20    1
     8    19    21   ar
     9    21    22    1
    10    21    23   ar
    11     2     4   am
    12     4     5    1
    13     5     6    1
    14     6     7    1
    15     7     8    1
    16     8     9   ar
    17     9    10   ar
    18    10    11   ar
    19    11    24    1
    20    24    25   ar
    21    25    26   ar
    22    26    27   ar
    23    27    28   ar
    24    28    29   ar
    25    11    12   ar
    26    12    13   ar
    27    13    14    1
    28    23    16   ar
    29    14     4    1
    30    13     8   ar
    31    29    24   ar
    32     3    15    1
@<TRIPOS>MOLECULE
*****
 29 32 0 0 0
SMALL
GASTEIGER

@<TRIPOS>ATOM
      1 O           2.1520    0.7892   26.8685 O.2     1  UNL1       -0.2522
      2 C           1.1611    1.7059   26.2145 C.2     1  UNL1        0.3080
      3 N           0.4017    2.7014   27.0404 N.am    1  UNL1       -0.2681
      4 N           0.9297    1.6270   24.7346 N.am    1  UNL1       -0.2559
      5 C          -0.0813    2.5875   24.1819 C.3     1  UNL1        0.1425
      6 C          -0.5319    2.7563   22.7611 C.3     1  UNL1        0.2268
      7 O          -0.0828    2.0063   21.5422 O.3     1  UNL1       -0.4739
      8 C           0.9278    0.9023   21.4429 C.ar    1  UNL1        0.1362
      9 C           1.0815    0.4256   20.0291 C.ar    1  UNL1        0.0366
     10 C           2.0463   -0.6779   19.7103 C.ar    1  UNL1        0.0031
     11 C           2.8574   -1.3046   20.8055 C.ar    1  UNL1        0.0000
     12 C           2.7036   -0.8278   22.2194 C.ar    1  UNL1        0.0004
     13 C           1.7388    0.2756   22.5381 C.ar    1  UNL1        0.0317
     14 C           1.7396    0.5982   24.0030 C.3     1  UNL1        0.1248
     15 H          -0.2487    3.3031   26.6111 H       1  UNL1        0.1564
     16 C           0.6332    2.7803   28.5204 C.ar    1  UNL1        0.0525
     17 C           0.1582    1.6730   29.4138 C.ar    1  UNL1        0.0156
     18 C           0.3898    1.7519   30.8937 C.ar    1  UNL1        0.0135
     19 C           1.0962    2.9381   31.4802 C.ar    1  UNL1        0.0683
     20 CL          1.3276    3.0169   32.9601 Cl      1  UNL1       -0.0814
     21 C           1.5711    4.0453   30.5867 C.ar    1  UNL1        0.0694
     22 CL          2.2775    5.2316   31.1732 Cl      1  UNL1       -0.0813
     23 C           1.3396    3.9665   29.1068 C.ar    1  UNL1        0.0270
     24 C           3.8221   -2.4080   20.4868 C.ar    1  UNL1        0.0031
     25 C           5.0763   -2.5643   21.2946 C.ar    1  UNL1        0.0207
     26 C           6.0411   -3.6677   20.9759 C.ar    1  UNL1        0.0989
     27 N           5.7517   -4.6150   19.8493 N.ar    1  UNL1       -0.2423
     28 C           4.4975   -4.4587   19.0415 C.ar    1  UNL1        0.0989
     29 C           3.5327   -3.3552   19.3603 C.ar    1  UNL1        0.0207
@<TRIPOS>BOND
     1     1     2    2
     2     2     3   am
     3     3    16    1
     4    16    17   ar
     5    17    18   ar
     6    18    19   ar
     7    19    20    1
     8    19    21   ar
     9    21    22    1
    10    21    23   ar
    11     2     4   am
    12     4     5    1
    13     5     6    1
    14     6     7    1
    15     7     8    1
    16     8     9   ar
    17     9    10   ar
    18    10    11   ar
    19    11    24    1
    20    24    25   ar
    21    25    26   ar
    22    26    27   ar
    23    27    28   ar
    24    28    29   ar
    25    11    12   ar
    26    12    13   ar
    27    13    14    1
    28    23    16   ar
    29    14     4    1
    30    13     8   ar
    31    29    24   ar
    32     3    15    1
@<TRIPOS>MOLECULE
*****
 29 32 0 0 0
SMALL
GASTEIGER

@<TRIPOS>ATOM
      1 O           2.8417    0.1166   26.5574 O.2     1  UNL1       -0.2522
      2 C           1.6827    1.0688   26.5520 C.2     1  UNL1        0.3080
      3 N           1.1532    1.6131   27.8456 N.am    1  UNL1       -0.2681
      4 N           1.0532    1.4766   25.2530 N.am    1  UNL1       -0.2559
      5 C          -0.0983    2.4321   25.3596 C.3     1  UNL1        0.1425
      6 C          -0.9290    3.0220   24.2586 C.3     1  UNL1        0.2268
      7 O          -0.8133    2.8022   22.7794 O.3     1  UNL1       -0.4739
      8 C           0.1615    1.9382   22.0356 C.ar    1  UNL1        0.1362
      9 C          -0.0683    2.0022   20.5547 C.ar    1  UNL1        0.0366
     10 C           0.8018    1.2087   19.6256 C.ar    1  UNL1        0.0031
     11 C           1.9018    0.3511   20.1774 C.ar    1  UNL1        0.0000
     12 C           2.1317    0.2870   21.6584 C.ar    1  UNL1        0.0004
     13 C           1.2615    1.0806   22.5874 C.ar    1  UNL1        0.0317
     14 C           1.6583    0.8752   24.0194 C.3     1  UNL1        0.1248
     15 H           0.3925    2.2380   27.8420 H       1  UNL1        0.1564
     16 C           1.7828    1.2052   29.1446 C.ar    1  UNL1        0.0525
     17 C           1.9317   -0.2488   29.4819 C.ar    1  UNL1        0.0156
     18 C           2.5613   -0.6566   30.7809 C.ar    1  UNL1        0.0135
     19 C           3.0418    0.3895   31.7425 C.ar    1  UNL1        0.0683
     20 CL          3.6714   -0.0184   33.0415 Cl      1  UNL1       -0.0814
     21 C           2.8929    1.8434   31.4051 C.ar    1  UNL1        0.0694
     22 CL          3.3735    2.8895   32.3668 Cl      1  UNL1       -0.0813
     23 C           2.2634    2.2513   30.1062 C.ar    1  UNL1        0.0270
     24 C           2.7719   -0.4425   19.2484 C.ar    1  UNL1        0.0031
     25 C           3.3287   -1.7642   19.6879 C.ar    1  UNL1        0.0207
     26 C           4.1988   -2.5577   18.7589 C.ar    1  UNL1        0.0989
     27 N           4.5122   -2.0296   17.3903 N.ar    1  UNL1       -0.2423
     28 C           3.9555   -0.7079   16.9508 C.ar    1  UNL1        0.0989
     29 C           3.0853    0.0857   17.8800 C.ar    1  UNL1        0.0207
@<TRIPOS>BOND
     1     1     2    2
     2     2     3   am
     3     3    16    1
     4    16    17   ar
     5    17    18   ar
     6    18    19   ar
     7    19    20    1
     8    19    21   ar
     9    21    22    1
    10    21    23   ar
    11     2     4   am
    12     4     5    1
    13     5     6    1
    14     6     7    1
    15     7     8    1
    16     8     9   ar
    17     9    10   ar
    18    10    11   ar
    19    11    24    1
    20    24    25   ar
    21    25    26   ar
    22    26    27   ar
    23    27    28   ar
    24    28    29   ar
    25    11    12   ar
    26    12    13   ar
    27    13    14    1
    28    23    16   ar
    29    14     4    1
    30    13     8   ar
    31    29    24   ar
    32     3    15    1
@<TRIPOS>MOLECULE
*****
 29 32 0 0 0
SMALL
GASTEIGER

@<TRIPOS>ATOM
      1 O           1.8027    0.0585   21.6316 O.2     1  UNL1       -0.2522
      2 C           1.6469    0.6257   20.2517 C.2     1  UNL1        0.3080
      3 N           2.5279    0.1423   19.1382 N.am    1  UNL1       -0.2681
      4 N           0.6099    1.6764   19.9855 N.am    1  UNL1       -0.2559
      5 C           0.5373    2.1758   18.5729 C.3     1  UNL1        0.1425
      6 C          -0.3805    3.2110   17.9929 C.3     1  UNL1        0.2268
      7 O          -1.4521    4.0022   18.6823 O.3     1  UNL1       -0.4739
      8 C          -1.8709    3.9538   20.1218 C.ar    1  UNL1        0.1362
      9 C          -2.9891    4.9142   20.3998 C.ar    1  UNL1        0.0366
     10 C          -3.5578    5.0230   21.7836 C.ar    1  UNL1        0.0031
     11 C          -3.0082    4.1714   22.8894 C.ar    1  UNL1        0.0000
     12 C          -1.8899    3.2110   22.6113 C.ar    1  UNL1        0.0004
     13 C          -1.3213    3.1022   21.2276 C.ar    1  UNL1        0.0317
     14 C          -0.2172    2.0887   21.1668 C.3     1  UNL1        0.1248
     15 H           2.4256    0.5146   18.2326 H       1  UNL1        0.1564
     16 C           3.5649   -0.9084   19.4045 C.ar    1  UNL1        0.0525
     17 C           4.9758   -0.5072   19.7178 C.ar    1  UNL1        0.0156
     18 C           6.0127   -1.5580   19.9841 C.ar    1  UNL1        0.0135
     19 C           5.6386   -3.0098   19.9371 C.ar    1  UNL1        0.0683
     20 CL          6.6756   -4.0604   20.2034 Cl      1  UNL1       -0.0814
     21 C           4.2276   -3.4109   19.6238 C.ar    1  UNL1        0.0694
     22 CL          3.8536   -4.8628   19.5768 Cl      1  UNL1       -0.0813
     23 C           3.1908   -2.3602   19.3575 C.ar    1  UNL1        0.0270
     24 C          -3.5767    4.2801   24.2732 C.ar    1  UNL1        0.0031
     25 C          -4.9187    4.9161   24.4848 C.ar    1  UNL1        0.0207
     26 C          -5.4872    5.0248   25.8686 C.ar    1  UNL1        0.0989
     27 N          -4.7139    4.4976   27.0408 N.ar    1  UNL1       -0.2423
     28 C          -3.3720    3.8616   26.8292 C.ar    1  UNL1        0.0989
     29 C          -2.8034    3.7529   25.4453 C.ar    1  UNL1        0.0207
@<TRIPOS>BOND
     1     1     2    2
     2     2     3   am
     3     3    16    1
     4    16    17   ar
     5    17    18   ar
     6    18    19   ar
     7    19    20    1
     8    19    21   ar
     9    21    22    1
    10    21    23   ar
    11     2     4   am
    12     4     5    1
    13     5     6    1
    14     6     7    1
    15     7     8    1
    16     8     9   ar
    17     9    10   ar
    18    10    11   ar
    19    11    24    1
    20    24    25   ar
    21    25    26   ar
    22    26    27   ar
    23    27    28   ar
    24    28    29   ar
    25    11    12   ar
    26    12    13   ar
    27    13    14    1
    28    23    16   ar
    29    14     4    1
    30    13     8   ar
    31    29    24   ar
    32     3    15    1
@<TRIPOS>MOLECULE
*****
 29 32 0 0 0
SMALL
GASTEIGER

@<TRIPOS>ATOM
      1 O           0.0833    2.6151   24.5023 O.2     1  UNL1       -0.2522
      2 C           0.6300    2.0416   25.7759 C.2     1  UNL1        0.3080
      3 N           0.1349    2.5461   27.0989 N.am    1  UNL1       -0.2681
      4 N           1.6719    0.9636   25.7265 N.am    1  UNL1       -0.2559
      5 C           2.1507    0.4600   27.0559 C.3     1  UNL1        0.1425
      6 C           3.1732   -0.5999   27.3414 C.3     1  UNL1        0.2268
      7 O           3.9691   -1.4179   26.3682 O.3     1  UNL1       -0.4739
      8 C           3.9393   -1.3781   24.8690 C.ar    1  UNL1        0.1362
      9 C           4.8983   -2.3670   24.2754 C.ar    1  UNL1        0.0366
     10 C           5.0242   -2.4883   22.7855 C.ar    1  UNL1        0.0031
     11 C           4.1910   -1.6207   21.8894 C.ar    1  UNL1        0.0000
     12 C           3.2321   -0.6317   22.4830 C.ar    1  UNL1        0.0004
     13 C           3.1062   -0.5104   23.9728 C.ar    1  UNL1        0.0317
     14 C           2.0971    0.5317   24.3545 C.3     1  UNL1        0.1248
     15 H           0.4938    2.1696   27.9348 H       1  UNL1        0.1564
     16 C          -0.9070    3.6241   27.1482 C.ar    1  UNL1        0.0525
     17 C          -0.5577    4.9807   27.6844 C.ar    1  UNL1        0.0156
     18 C          -1.5996    6.0587   27.7337 C.ar    1  UNL1        0.0135
     19 C          -2.9907    5.7801   27.2468 C.ar    1  UNL1        0.0683
     20 CL         -4.0325    6.8581   27.2962 Cl      1  UNL1       -0.0814
     21 C          -3.3399    4.4235   26.7107 C.ar    1  UNL1        0.0694
     22 CL         -4.7312    4.1448   26.2238 Cl      1  UNL1       -0.0813
     23 C          -2.2981    3.3455   26.6613 C.ar    1  UNL1        0.0270
     24 C           4.3169   -1.7420   20.3996 C.ar    1  UNL1        0.0031
     25 C           3.6017   -0.7732   19.5052 C.ar    1  UNL1        0.0207
     26 C           3.7275   -0.8945   18.0154 C.ar    1  UNL1        0.0989
     27 N           4.5686   -1.9846   17.4200 N.ar    1  UNL1       -0.2423
     28 C           5.2838   -2.9534   18.3145 C.ar    1  UNL1        0.0989
     29 C           5.1579   -2.8320   19.8043 C.ar    1  UNL1        0.0207
@<TRIPOS>BOND
     1     1     2    2
     2     2     3   am
     3     3    16    1
     4    16    17   ar
     5    17    18   ar
     6    18    19   ar
     7    19    20    1
     8    19    21   ar
     9    21    22    1
    10    21    23   ar
    11     2     4   am
    12     4     5    1
    13     5     6    1
    14     6     7    1
    15     7     8    1
    16     8     9   ar
    17     9    10   ar
    18    10    11   ar
    19    11    24    1
    20    24    25   ar
    21    25    26   ar
    22    26    27   ar
    23    27    28   ar
    24    28    29   ar
    25    11    12   ar
    26    12    13   ar
    27    13    14    1
    28    23    16   ar
    29    14     4    1
    30    13     8   ar
    31    29    24   ar
    32     3    15    1
