@<TRIPOS>MOLECULE
*****
 27 29 0 0 0
SMALL
GASTEIGER

@<TRIPOS>ATOM
      1 C          -4.2463  -18.2092   21.3322 C.3     1  UNL1        0.0383
      2 C          -4.2195  -19.1591   20.1717 C.3     1  UNL1        0.0075
      3 C          -5.4754  -19.8618   19.7486 C.3     1  UNL1        0.0219
      4 C          -6.7580  -19.6146   20.4861 C.3     1  UNL1        0.0950
      5 N          -6.7847  -18.6647   21.6467 N.am    1  UNL1       -0.2637
      6 C          -8.0673  -18.4174   22.3842 C.2     1  UNL1        0.3077
      7 O          -8.0939  -17.4675   23.5447 O.2     1  UNL1       -0.2522
      8 N          -9.3231  -19.1202   21.9611 N.am    1  UNL1       -0.2681
      9 C          -5.5288  -17.9619   22.0697 C.3     1  UNL1        0.0989
     10 H          -9.3056  -19.7437   21.1994 H       1  UNL1        0.1564
     11 C         -10.6056  -18.8729   22.6987 C.ar    1  UNL1        0.0516
     12 C         -11.7147  -18.1080   22.0390 C.ar    1  UNL1        0.0156
     13 C         -12.9971  -17.8608   22.7764 C.ar    1  UNL1        0.0127
     14 C         -13.1707  -18.3782   24.1736 C.ar    1  UNL1        0.0578
     15 CL        -14.4533  -18.1309   24.9111 Cl      1  UNL1       -0.0822
     16 C         -12.0618  -19.1431   24.8333 C.ar    1  UNL1        0.0127
     17 C         -10.7792  -19.3904   24.0958 C.ar    1  UNL1        0.0156
     18 C          -2.7983  -18.1151   20.9518 C.ar    1  UNL1       -0.0212
     19 C          -2.1273  -16.7755   20.8795 C.ar    1  UNL1       -0.0042
     20 C          -0.6794  -16.6815   20.4992 C.ar    1  UNL1       -0.0003
     21 C           0.0975  -17.9271   20.1912 C.ar    1  UNL1       -0.0000
     22 C          -0.5734  -19.2667   20.2635 C.ar    1  UNL1       -0.0003
     23 C          -2.0213  -19.3607   20.6438 C.ar    1  UNL1       -0.0042
     24 C          -3.7701  -17.2265   22.3607 C.3     1  UNL1        0.0219
     25 C          -4.3470  -17.2510   23.7450 C.3     1  UNL1        0.1058
     26 N          -5.4921  -14.7477   24.9374 N.1     1  UNL1       -0.1959
     27 C          -4.9195  -15.9993   24.3412 C.1     1  UNL1        0.0732
@<TRIPOS>BOND
     1    26    27    3
     2    27    25    1
     3    25    24    1
     4    24     1    1
     5     1    18    1
     6    18    19   ar
     7    19    20   ar
     8    20    21   ar
     9    21    22   ar
    10    22    23   ar
    11     1     2    1
    12     2     3    1
    13     3     4    1
    14     4     5    1
    15     5     6   am
    16     6     7    2
    17     6     8   am
    18     8    11    1
    19    11    12   ar
    20    12    13   ar
    21    13    14   ar
    22    14    15    1
    23    14    16   ar
    24    16    17   ar
    25     5     9    1
    26     9     1    1
    27    23    18   ar
    28    17    11   ar
    29     8    10    1
@<TRIPOS>MOLECULE
*****
 27 29 0 0 0
SMALL
GASTEIGER

@<TRIPOS>ATOM
      1 C           3.5282   -1.3170   21.4470 C.3     1  UNL1        0.0383
      2 C           3.0767   -0.2528   22.4027 C.3     1  UNL1        0.0075
      3 C           3.4876   -0.3157   23.8439 C.3     1  UNL1        0.0219
      4 C           4.3501   -1.4428   24.3294 C.3     1  UNL1        0.0950
      5 N           4.8017   -2.5070   23.3737 N.am    1  UNL1       -0.2637
      6 C           5.6642   -3.6342   23.8591 C.2     1  UNL1        0.3077
      7 O           6.1158   -4.6983   22.9033 O.2     1  UNL1       -0.2522
      8 N           6.0752   -3.6970   25.3004 N.am    1  UNL1       -0.2681
      9 C           4.3908   -2.4442   21.9324 C.3     1  UNL1        0.0989
     10 H           5.7788   -2.9985   25.9277 H       1  UNL1        0.1564
     11 C           6.9377   -4.8241   25.7858 C.ar    1  UNL1        0.0516
     12 C           6.4087   -5.7872   26.8070 C.ar    1  UNL1        0.0156
     13 C           7.2711   -6.9143   27.2924 C.ar    1  UNL1        0.0127
     14 C           8.6625   -7.0785   26.7567 C.ar    1  UNL1        0.0578
     15 CL          9.5250   -8.2057   27.2421 Cl      1  UNL1       -0.0822
     16 C           9.1915   -6.1155   25.7355 C.ar    1  UNL1        0.0127
     17 C           8.3291   -4.9883   25.2501 C.ar    1  UNL1        0.0156
     18 C           2.7257   -0.4556   20.5174 C.ar    1  UNL1       -0.0212
     19 C           3.4062    0.2799   19.4012 C.ar    1  UNL1       -0.0042
     20 C           2.6037    1.1412   18.4717 C.ar    1  UNL1       -0.0003
     21 C           1.1207    1.2671   18.6584 C.ar    1  UNL1       -0.0000
     22 C           0.4402    0.5317   19.7746 C.ar    1  UNL1       -0.0003
     23 C           1.2427   -0.3297   20.7041 C.ar    1  UNL1       -0.0042
     24 C           3.7011   -2.0821   20.1683 C.3     1  UNL1        0.0219
     25 C           4.9803   -2.8188   19.9022 C.3     1  UNL1        0.1058
     26 N           6.6103   -2.1641   17.4704 N.1     1  UNL1       -0.1959
     27 C           5.7953   -2.4915   18.6863 C.1     1  UNL1        0.0732
@<TRIPOS>BOND
     1    26    27    3
     2    27    25    1
     3    25    24    1
     4    24     1    1
     5     1    18    1
     6    18    19   ar
     7    19    20   ar
     8    20    21   ar
     9    21    22   ar
    10    22    23   ar
    11     1     2    1
    12     2     3    1
    13     3     4    1
    14     4     5    1
    15     5     6   am
    16     6     7    2
    17     6     8   am
    18     8    11    1
    19    11    12   ar
    20    12    13   ar
    21    13    14   ar
    22    14    15    1
    23    14    16   ar
    24    16    17   ar
    25     5     9    1
    26     9     1    1
    27    23    18   ar
    28    17    11   ar
    29     8    10    1
@<TRIPOS>MOLECULE
*****
 27 29 0 0 0
SMALL
GASTEIGER

@<TRIPOS>ATOM
      1 C           3.5653   -1.3088   21.9190 C.3     1  UNL1        0.0383
      2 C           2.8077   -0.2544   22.6699 C.3     1  UNL1        0.0075
      3 C           2.9851   -0.1161   24.1529 C.3     1  UNL1        0.0219
      4 C           3.9203   -1.0324   24.8850 C.3     1  UNL1        0.0950
      5 N           4.6780   -2.0869   24.1341 N.am    1  UNL1       -0.2637
      6 C           5.6132   -3.0032   24.8661 C.2     1  UNL1        0.3077
      7 O           6.3708   -4.0577   24.1151 O.2     1  UNL1       -0.2522
      8 N           5.7906   -2.8650   26.3492 N.am    1  UNL1       -0.2681
      9 C           4.5005   -2.2251   22.6510 C.3     1  UNL1        0.0989
     10 H           5.2933   -2.1729   26.8421 H       1  UNL1        0.1564
     11 C           6.7258   -3.7813   27.0811 C.ar    1  UNL1        0.0516
     12 C           6.1784   -4.8388   27.9934 C.ar    1  UNL1        0.0156
     13 C           7.1135   -5.7551   28.7254 C.ar    1  UNL1        0.0127
     14 C           8.5960   -5.6140   28.5452 C.ar    1  UNL1        0.0578
     15 CL          9.5311   -6.5304   29.2772 Cl      1  UNL1       -0.0822
     16 C           9.1433   -4.5566   27.6330 C.ar    1  UNL1        0.0127
     17 C           8.2082   -3.6402   26.9009 C.ar    1  UNL1        0.0156
     18 C           2.8011   -0.6833   20.7898 C.ar    1  UNL1       -0.0212
     19 C           1.3304   -0.4254   20.9318 C.ar    1  UNL1       -0.0042
     20 C           0.5662    0.2001   19.8027 C.ar    1  UNL1       -0.0003
     21 C           1.2729    0.5676   18.5317 C.ar    1  UNL1       -0.0000
     22 C           2.7437    0.3097   18.3897 C.ar    1  UNL1       -0.0003
     23 C           3.5078   -0.3158   19.5188 C.ar    1  UNL1       -0.0042
     24 C           4.0576   -2.1461   20.7758 C.3     1  UNL1        0.0219
     25 C           4.4383   -3.5788   21.0049 C.3     1  UNL1        0.1058
     26 N           4.6718   -5.4591   18.6791 N.1     1  UNL1       -0.1959
     27 C           4.5550   -4.5190   19.8420 C.1     1  UNL1        0.0732
@<TRIPOS>BOND
     1    26    27    3
     2    27    25    1
     3    25    24    1
     4    24     1    1
     5     1    18    1
     6    18    19   ar
     7    19    20   ar
     8    20    21   ar
     9    21    22   ar
    10    22    23   ar
    11     1     2    1
    12     2     3    1
    13     3     4    1
    14     4     5    1
    15     5     6   am
    16     6     7    2
    17     6     8   am
    18     8    11    1
    19    11    12   ar
    20    12    13   ar
    21    13    14   ar
    22    14    15    1
    23    14    16   ar
    24    16    17   ar
    25     5     9    1
    26     9     1    1
    27    23    18   ar
    28    17    11   ar
    29     8    10    1
@<TRIPOS>MOLECULE
*****
 27 29 0 0 0
SMALL
GASTEIGER

@<TRIPOS>ATOM
      1 C         -12.6689   -4.3569   19.0174 C.3     1  UNL1        0.0383
      2 C         -13.3736   -5.5405   19.6111 C.3     1  UNL1        0.0075
      3 C         -14.7435   -5.3796   20.2005 C.3     1  UNL1        0.0219
      4 C         -15.4087   -4.0352   20.1963 C.3     1  UNL1        0.0950
      5 N         -14.7040   -2.8516   19.6027 N.am    1  UNL1       -0.2637
      6 C         -15.3692   -1.5071   19.5985 C.2     1  UNL1        0.3077
      7 O         -14.6643   -0.3236   19.0048 O.2     1  UNL1       -0.2522
      8 N         -16.7391   -1.3463   20.1879 N.am    1  UNL1       -0.2681
      9 C         -13.3341   -3.0124   19.0132 C.3     1  UNL1        0.0989
     10 H         -17.2016   -2.1231   20.5776 H       1  UNL1        0.1564
     11 C         -17.4041   -0.0018   20.1837 C.ar    1  UNL1        0.0516
     12 C         -17.0659    1.0055   21.2425 C.ar    1  UNL1        0.0156
     13 C         -17.7309    2.3500   21.2383 C.ar    1  UNL1        0.0127
     14 C         -18.7342    2.6872   20.1754 C.ar    1  UNL1        0.0578
     15 CL        -19.3993    4.0318   20.1712 Cl      1  UNL1       -0.0822
     16 C         -19.0724    1.6799   19.1166 C.ar    1  UNL1        0.0127
     17 C         -18.4073    0.3354   19.1208 C.ar    1  UNL1        0.0156
     18 C         -11.6342   -5.4184   18.7877 C.ar    1  UNL1       -0.0212
     19 C         -10.2455   -5.2411   19.3264 C.ar    1  UNL1       -0.0042
     20 C          -9.2109   -6.3025   19.0967 C.ar    1  UNL1       -0.0003
     21 C          -9.5648   -7.5412   18.3283 C.ar    1  UNL1       -0.0000
     22 C         -10.9534   -7.7184   17.7896 C.ar    1  UNL1       -0.0003
     23 C         -11.9881   -6.6570   18.0193 C.ar    1  UNL1       -0.0042
     24 C         -11.6048   -3.5420   18.3439 C.3     1  UNL1        0.0219
     25 C         -11.4481   -2.0885   18.6798 C.3     1  UNL1        0.1058
     26 N         -10.4551   -0.1671   16.6010 N.1     1  UNL1       -0.1959
     27 C         -10.9516   -1.1278   17.6404 C.1     1  UNL1        0.0732
@<TRIPOS>BOND
     1    26    27    3
     2    27    25    1
     3    25    24    1
     4    24     1    1
     5     1    18    1
     6    18    19   ar
     7    19    20   ar
     8    20    21   ar
     9    21    22   ar
    10    22    23   ar
    11     1     2    1
    12     2     3    1
    13     3     4    1
    14     4     5    1
    15     5     6   am
    16     6     7    2
    17     6     8   am
    18     8    11    1
    19    11    12   ar
    20    12    13   ar
    21    13    14   ar
    22    14    15    1
    23    14    16   ar
    24    16    17   ar
    25     5     9    1
    26     9     1    1
    27    23    18   ar
    28    17    11   ar
    29     8    10    1
@<TRIPOS>MOLECULE
*****
 27 29 0 0 0
SMALL
GASTEIGER

@<TRIPOS>ATOM
      1 C           3.6370   -1.3399   21.7685 C.3     1  UNL1        0.0383
      2 C           3.8634   -2.3789   20.7106 C.3     1  UNL1        0.0075
      3 C           4.6541   -3.6132   21.0288 C.3     1  UNL1        0.0219
      4 C           5.2183   -3.8085   22.4049 C.3     1  UNL1        0.0950
      5 N           4.9919   -2.7695   23.4627 N.am    1  UNL1       -0.2637
      6 C           5.5561   -2.9648   24.8388 C.2     1  UNL1        0.3077
      7 O           5.3296   -1.9257   25.8966 O.2     1  UNL1       -0.2522
      8 N           6.3468   -4.1991   25.1569 N.am    1  UNL1       -0.2681
      9 C           4.2012   -1.5352   23.1446 C.3     1  UNL1        0.0989
     10 H           6.4955   -4.8811   24.4626 H       1  UNL1        0.1564
     11 C           6.9110   -4.3943   26.5330 C.ar    1  UNL1        0.0516
     12 C           8.1913   -3.7161   26.9218 C.ar    1  UNL1        0.0156
     13 C           8.7555   -3.9113   28.2977 C.ar    1  UNL1        0.0127
     14 C           8.0396   -4.7846   29.2851 C.ar    1  UNL1        0.0578
     15 CL          8.6038   -4.9798   30.6612 Cl      1  UNL1       -0.0822
     16 C           6.7594   -5.4628   28.8963 C.ar    1  UNL1        0.0127
     17 C           6.1951   -5.2676   27.5202 C.ar    1  UNL1        0.0156
     18 C           2.9059   -0.7074   20.6215 C.ar    1  UNL1       -0.0212
     19 C           1.4396   -0.4134   20.7373 C.ar    1  UNL1       -0.0042
     20 C           0.7086    0.2190   19.5903 C.ar    1  UNL1       -0.0003
     21 C           1.4439    0.5575   18.3275 C.ar    1  UNL1       -0.0000
     22 C           2.9102    0.2635   18.2116 C.ar    1  UNL1       -0.0003
     23 C           3.6412   -0.3690   19.3586 C.ar    1  UNL1       -0.0042
     24 C           3.1566   -0.0812   22.4280 C.3     1  UNL1        0.0219
     25 C           2.7586   -0.0970   23.8741 C.3     1  UNL1        0.1058
     26 N           0.4237    1.5404   24.8052 N.1     1  UNL1       -0.1959
     27 C           1.5911    0.7217   24.3397 C.1     1  UNL1        0.0732
@<TRIPOS>BOND
     1    26    27    3
     2    27    25    1
     3    25    24    1
     4    24     1    1
     5     1    18    1
     6    18    19   ar
     7    19    20   ar
     8    20    21   ar
     9    21    22   ar
    10    22    23   ar
    11     1     2    1
    12     2     3    1
    13     3     4    1
    14     4     5    1
    15     5     6   am
    16     6     7    2
    17     6     8   am
    18     8    11    1
    19    11    12   ar
    20    12    13   ar
    21    13    14   ar
    22    14    15    1
    23    14    16   ar
    24    16    17   ar
    25     5     9    1
    26     9     1    1
    27    23    18   ar
    28    17    11   ar
    29     8    10    1
@<TRIPOS>MOLECULE
*****
 27 29 0 0 0
SMALL
GASTEIGER

@<TRIPOS>ATOM
      1 C         -12.7305   -4.5152   18.7139 C.3     1  UNL1        0.0383
      2 C         -11.5011   -3.7317   18.3610 C.3     1  UNL1        0.0075
      3 C         -11.5454   -2.2324   18.3475 C.3     1  UNL1        0.0219
      4 C         -12.8192   -1.5167   18.6870 C.3     1  UNL1        0.0950
      5 N         -14.0486   -2.3002   19.0399 N.am    1  UNL1       -0.2637
      6 C         -15.3224   -1.5844   19.3793 C.2     1  UNL1        0.3077
      7 O         -16.5518   -2.3681   19.7322 O.2     1  UNL1       -0.2522
      8 N         -15.3667   -0.0852   19.3659 N.am    1  UNL1       -0.2681
      9 C         -14.0043   -3.7995   19.0533 C.3     1  UNL1        0.0989
     10 H         -14.5598    0.4291   19.1342 H       1  UNL1        0.1564
     11 C         -16.6405    0.6305   19.7053 C.ar    1  UNL1        0.0516
     12 C         -17.6012    1.0085   18.6170 C.ar    1  UNL1        0.0156
     13 C         -18.8750    1.7241   18.9564 C.ar    1  UNL1        0.0127
     14 C         -19.1882    2.0618   20.3840 C.ar    1  UNL1        0.0578
     15 CL        -20.4621    2.7775   20.7234 Cl      1  UNL1       -0.0822
     16 C         -18.2275    1.6838   21.4722 C.ar    1  UNL1        0.0127
     17 C         -16.9537    0.9681   21.1328 C.ar    1  UNL1        0.0156
     18 C         -11.7675   -5.6386   18.4673 C.ar    1  UNL1       -0.0212
     19 C         -12.1327   -6.7460   17.5237 C.ar    1  UNL1       -0.0042
     20 C         -11.1698   -7.8693   17.2771 C.ar    1  UNL1       -0.0003
     21 C          -9.8416   -7.8853   17.9741 C.ar    1  UNL1       -0.0000
     22 C          -9.4764   -6.7779   18.9177 C.ar    1  UNL1       -0.0003
     23 C         -10.4393   -5.6546   19.1642 C.ar    1  UNL1       -0.0042
     24 C         -13.6255   -5.6889   18.9812 C.3     1  UNL1        0.0219
     25 C         -15.1093   -5.4932   19.0810 C.3     1  UNL1        0.1058
     26 N         -16.8905   -7.8232   19.7120 N.1     1  UNL1       -0.1959
     27 C         -15.9999   -6.6583   19.3965 C.1     1  UNL1        0.0732
@<TRIPOS>BOND
     1    26    27    3
     2    27    25    1
     3    25    24    1
     4    24     1    1
     5     1    18    1
     6    18    19   ar
     7    19    20   ar
     8    20    21   ar
     9    21    22   ar
    10    22    23   ar
    11     1     2    1
    12     2     3    1
    13     3     4    1
    14     4     5    1
    15     5     6   am
    16     6     7    2
    17     6     8   am
    18     8    11    1
    19    11    12   ar
    20    12    13   ar
    21    13    14   ar
    22    14    15    1
    23    14    16   ar
    24    16    17   ar
    25     5     9    1
    26     9     1    1
    27    23    18   ar
    28    17    11   ar
    29     8    10    1
@<TRIPOS>MOLECULE
*****
 27 29 0 0 0
SMALL
GASTEIGER

@<TRIPOS>ATOM
      1 C           3.1068   -1.3597   21.2616 C.3     1  UNL1        0.0383
      2 C           3.9977   -1.8902   22.3454 C.3     1  UNL1        0.0075
      3 C           3.9038   -1.3312   23.7342 C.3     1  UNL1        0.0219
      4 C           2.9189   -0.2416   24.0390 C.3     1  UNL1        0.0950
      5 N           2.0280    0.2889   22.9552 N.am    1  UNL1       -0.2637
      6 C           1.0432    1.3785   23.2600 C.2     1  UNL1        0.3077
      7 O           0.1523    1.9090   22.1761 O.2     1  UNL1       -0.2522
      8 N           0.9493    1.9376   24.6488 N.am    1  UNL1       -0.2681
      9 C           2.1219   -0.2701   21.5664 C.3     1  UNL1        0.0989
     10 H           1.5340    1.5894   25.3602 H       1  UNL1        0.1564
     11 C          -0.0356    3.0271   24.9536 C.ar    1  UNL1        0.0516
     12 C           0.3394    4.4618   24.7270 C.ar    1  UNL1        0.0156
     13 C          -0.6454    5.5514   25.0318 C.ar    1  UNL1        0.0127
     14 C          -2.0051    5.2064   25.5630 C.ar    1  UNL1        0.0578
     15 CL         -2.9900    6.2961   25.8678 Cl      1  UNL1       -0.0822
     16 C          -2.3800    3.7718   25.7896 C.ar    1  UNL1        0.0127
     17 C          -1.3952    2.6821   25.4848 C.ar    1  UNL1        0.0156
     18 C           3.8749   -2.3892   20.4868 C.ar    1  UNL1       -0.0212
     19 C           5.3731   -2.3320   20.4440 C.ar    1  UNL1       -0.0042
     20 C           6.1411   -3.3615   19.6693 C.ar    1  UNL1       -0.0003
     21 C           5.4109   -4.4482   18.9373 C.ar    1  UNL1       -0.0000
     22 C           3.9126   -4.5054   18.9800 C.ar    1  UNL1       -0.0003
     23 C           3.1446   -3.4759   19.7548 C.ar    1  UNL1       -0.0042
     24 C           2.4826   -1.1867   19.9086 C.3     1  UNL1        0.0219
     25 C           2.9854   -0.1201   18.9815 C.3     1  UNL1        0.1058
     26 N           4.0823   -0.8664   16.2909 N.1     1  UNL1       -0.1959
     27 C           3.5339   -0.4933   17.6361 C.1     1  UNL1        0.0732
@<TRIPOS>BOND
     1    26    27    3
     2    27    25    1
     3    25    24    1
     4    24     1    1
     5     1    18    1
     6    18    19   ar
     7    19    20   ar
     8    20    21   ar
     9    21    22   ar
    10    22    23   ar
    11     1     2    1
    12     2     3    1
    13     3     4    1
    14     4     5    1
    15     5     6   am
    16     6     7    2
    17     6     8   am
    18     8    11    1
    19    11    12   ar
    20    12    13   ar
    21    13    14   ar
    22    14    15    1
    23    14    16   ar
    24    16    17   ar
    25     5     9    1
    26     9     1    1
    27    23    18   ar
    28    17    11   ar
    29     8    10    1
@<TRIPOS>MOLECULE
*****
 27 29 0 0 0
SMALL
GASTEIGER

@<TRIPOS>ATOM
      1 C           3.5135   -1.7350   21.4824 C.3     1  UNL1        0.0383
      2 C           4.3865   -2.6116   22.3307 C.3     1  UNL1        0.0075
      3 C           4.5005   -2.3554   23.8042 C.3     1  UNL1        0.0219
      4 C           3.7417   -1.2226   24.4295 C.3     1  UNL1        0.0950
      5 N           2.8687   -0.3460   23.5812 N.am    1  UNL1       -0.2637
      6 C           2.1098    0.7868   24.2064 C.2     1  UNL1        0.3077
      7 O           1.2369    1.6633   23.3581 O.2     1  UNL1       -0.2522
      8 N           2.2239    1.0430   25.6800 N.am    1  UNL1       -0.2681
      9 C           2.7546   -0.6022   22.1077 C.3     1  UNL1        0.0989
     10 H           2.7969    0.4677   26.2368 H       1  UNL1        0.1564
     11 C           1.4650    2.1758   26.3051 C.ar    1  UNL1        0.0516
     12 C           2.0539    3.5554   26.3196 C.ar    1  UNL1        0.0156
     13 C           1.2951    4.6881   26.9447 C.ar    1  UNL1        0.0127
     14 C          -0.0526    4.4415   27.5554 C.ar    1  UNL1        0.0578
     15 CL         -0.8115    5.5744   28.1805 Cl      1  UNL1       -0.0822
     16 C          -0.6415    3.0620   27.5409 C.ar    1  UNL1        0.0127
     17 C           0.1174    1.9291   26.9157 C.ar    1  UNL1        0.0156
     18 C           4.0317   -2.6770   20.4363 C.ar    1  UNL1       -0.0212
     19 C           3.6783   -4.1335   20.4973 C.ar    1  UNL1       -0.0042
     20 C           4.1965   -5.0754   19.4513 C.ar    1  UNL1       -0.0003
     21 C           5.0681   -4.5609   18.3443 C.ar    1  UNL1       -0.0000
     22 C           5.4216   -3.1044   18.2833 C.ar    1  UNL1       -0.0003
     23 C           4.9034   -2.1625   19.3293 C.ar    1  UNL1       -0.0042
     24 C           2.8205   -1.1856   20.2708 C.3     1  UNL1        0.0219
     25 C           1.4692   -0.5484   20.4041 C.3     1  UNL1        0.1058
     26 N           0.4821    1.3324   18.2857 N.1     1  UNL1       -0.1959
     27 C           0.9756    0.3920   19.3449 C.1     1  UNL1        0.0732
@<TRIPOS>BOND
     1    26    27    3
     2    27    25    1
     3    25    24    1
     4    24     1    1
     5     1    18    1
     6    18    19   ar
     7    19    20   ar
     8    20    21   ar
     9    21    22   ar
    10    22    23   ar
    11     1     2    1
    12     2     3    1
    13     3     4    1
    14     4     5    1
    15     5     6   am
    16     6     7    2
    17     6     8   am
    18     8    11    1
    19    11    12   ar
    20    12    13   ar
    21    13    14   ar
    22    14    15    1
    23    14    16   ar
    24    16    17   ar
    25     5     9    1
    26     9     1    1
    27    23    18   ar
    28    17    11   ar
    29     8    10    1
@<TRIPOS>MOLECULE
*****
 27 29 0 0 0
SMALL
GASTEIGER

@<TRIPOS>ATOM
      1 C           3.0327   -0.8450   21.0269 C.3     1  UNL1        0.0383
      2 C           2.1398   -0.9118   19.8235 C.3     1  UNL1        0.0075
      3 C           0.8702   -0.1140   19.7863 C.3     1  UNL1        0.0219
      4 C           0.4933    0.7507   20.9526 C.3     1  UNL1        0.0950
      5 N           1.3861    0.8175   22.1561 N.am    1  UNL1       -0.2637
      6 C           1.0093    1.6823   23.3225 C.2     1  UNL1        0.3077
      7 O           1.9022    1.7491   24.5259 O.2     1  UNL1       -0.2522
      8 N          -0.2604    2.4801   23.2853 N.am    1  UNL1       -0.2681
      9 C           2.6558    0.0197   22.1933 C.3     1  UNL1        0.0989
     10 H          -0.8464    2.4362   22.4954 H       1  UNL1        0.1564
     11 C          -0.6371    3.3447   24.4516 C.ar    1  UNL1        0.0516
     12 C          -1.4111    2.7630   25.5974 C.ar    1  UNL1        0.0156
     13 C          -1.7879    3.6275   26.7637 C.ar    1  UNL1        0.0127
     14 C          -1.3907    5.0739   26.7844 C.ar    1  UNL1        0.0578
     15 CL         -1.7675    5.9385   27.9509 Cl      1  UNL1       -0.0822
     16 C          -0.6168    5.6556   25.6388 C.ar    1  UNL1        0.0127
     17 C          -0.2400    4.7910   24.4724 C.ar    1  UNL1        0.0156
     18 C           3.8138   -1.8019   20.1759 C.ar    1  UNL1       -0.0212
     19 C           5.2006   -1.4469   19.7277 C.ar    1  UNL1       -0.0042
     20 C           5.9817   -2.4038   18.8767 C.ar    1  UNL1       -0.0003
     21 C           5.3760   -3.7157   18.4740 C.ar    1  UNL1       -0.0000
     22 C           3.9893   -4.0707   18.9221 C.ar    1  UNL1       -0.0003
     23 C           3.2082   -3.1138   19.7731 C.ar    1  UNL1       -0.0042
     24 C           4.1968   -1.1105   21.9349 C.3     1  UNL1        0.0219
     25 C           3.9956   -1.8786   23.2074 C.3     1  UNL1        0.1058
     26 N           6.0725   -3.8420   24.1188 N.1     1  UNL1       -0.1959
     27 C           5.0341   -2.8603   23.6631 C.1     1  UNL1        0.0732
@<TRIPOS>BOND
     1    26    27    3
     2    27    25    1
     3    25    24    1
     4    24     1    1
     5     1    18    1
     6    18    19   ar
     7    19    20   ar
     8    20    21   ar
     9    21    22   ar
    10    22    23   ar
    11     1     2    1
    12     2     3    1
    13     3     4    1
    14     4     5    1
    15     5     6   am
    16     6     7    2
    17     6     8   am
    18     8    11    1
    19    11    12   ar
    20    12    13   ar
    21    13    14   ar
    22    14    15    1
    23    14    16   ar
    24    16    17   ar
    25     5     9    1
    26     9     1    1
    27    23    18   ar
    28    17    11   ar
    29     8    10    1
