@<TRIPOS>MOLECULE
*****
 15 16 0 0 0
SMALL
GASTEIGER

@<TRIPOS>ATOM
      1 C          -3.8179  -19.1984   20.0289 C.ar    1  UNL1        0.1677
      2 C          -4.1048  -20.6705   20.0562 C.ar    1  UNL1        0.0424
      3 C          -5.5885  -20.8513   20.1816 C.ar    1  UNL1        0.0407
      4 C          -6.2187  -19.4910   20.2317 C.ar    1  UNL1        0.1469
      5 O          -5.1244  -18.4694   20.1374 O.2     1  UNL1       -0.4518
      6 C          -7.6857  -19.2028   20.3547 C.ar    1  UNL1        0.0537
      7 C          -8.6413  -19.7232   19.3223 C.ar    1  UNL1        0.0062
      8 C         -10.1082  -19.4350   19.4452 C.ar    1  UNL1        0.0208
      9 C         -10.6194  -18.6265   20.6006 C.ar    1  UNL1        0.0989
     10 N          -9.6638  -18.1061   21.6330 N.ar    1  UNL1       -0.2422
     11 C          -8.1969  -18.3942   21.5100 C.ar    1  UNL1        0.1019
     12 O          -0.4869  -17.7310   18.4473 O.2     1  UNL1       -0.4086
     13 N          -1.8423  -18.3631   18.5628 N.2     1  UNL1       -0.0814
     14 C          -2.4625  -18.5663   19.9134 C.2     1  UNL1        0.1771
     15 H          -0.0995  -17.6041   17.6036 H       1  UNL1        0.3278
@<TRIPOS>BOND
     1    12    13    1
     2    13    14    2
     3    14     1    1
     4     1     2   ar
     5     2     3   ar
     6     3     4   ar
     7     4     6    1
     8     6     7   ar
     9     7     8   ar
    10     8     9   ar
    11     9    10   ar
    12    10    11   ar
    13     4     5   ar
    14     5     1   ar
    15    11     6   ar
    16    12    15    1
@<TRIPOS>MOLECULE
*****
 15 16 0 0 0
SMALL
GASTEIGER

@<TRIPOS>ATOM
      1 C         -11.2928  -16.9504   22.4996 C.ar    1  UNL1        0.1677
      2 C         -11.3219  -18.1574   23.3899 C.ar    1  UNL1        0.0424
      3 C         -10.2165  -18.0191   24.3944 C.ar    1  UNL1        0.0407
      4 C          -9.5043  -16.7268   24.1250 C.ar    1  UNL1        0.1469
      5 O         -10.1694  -16.0663   22.9540 O.2     1  UNL1       -0.4518
      6 C          -8.3326  -16.1893   24.8920 C.ar    1  UNL1        0.0537
      7 C          -8.3330  -16.2346   26.3913 C.ar    1  UNL1        0.0062
      8 C          -7.1614  -15.6971   27.1582 C.ar    1  UNL1        0.0208
      9 C          -5.9892  -15.1143   26.4259 C.ar    1  UNL1        0.0989
     10 N          -5.9887  -15.0689   24.9266 N.ar    1  UNL1       -0.2422
     11 C          -7.1604  -15.6064   24.1596 C.ar    1  UNL1        0.1019
     12 O         -12.6524  -15.6898   18.9907 O.2     1  UNL1       -0.4086
     13 N         -11.7216  -15.9644   20.1345 N.2     1  UNL1       -0.0814
     14 C         -12.2236  -16.6759   21.3558 C.2     1  UNL1        0.1771
     15 H         -12.3388  -15.2454   18.2278 H       1  UNL1        0.3278
@<TRIPOS>BOND
     1    12    13    1
     2    13    14    2
     3    14     1    1
     4     1     2   ar
     5     2     3   ar
     6     3     4   ar
     7     4     6    1
     8     6     7   ar
     9     7     8   ar
    10     8     9   ar
    11     9    10   ar
    12    10    11   ar
    13     4     5   ar
    14     5     1   ar
    15    11     6   ar
    16    12    15    1
@<TRIPOS>MOLECULE
*****
 15 16 0 0 0
SMALL
GASTEIGER

@<TRIPOS>ATOM
      1 C          -9.2305  -17.9418   21.6056 C.ar    1  UNL1        0.1677
      2 C          -9.3380  -19.1895   22.4313 C.ar    1  UNL1        0.0424
      3 C          -7.9728  -19.8044   22.5217 C.ar    1  UNL1        0.0407
      4 C          -7.0217  -18.9369   21.7518 C.ar    1  UNL1        0.1469
      5 O          -7.7990  -17.7857   21.1856 O.2     1  UNL1       -0.4518
      6 C          -5.5513  -19.1781   21.5786 C.ar    1  UNL1        0.0537
      7 C          -5.0601  -20.0388   20.4527 C.ar    1  UNL1        0.0062
      8 C          -3.5898  -20.2801   20.2795 C.ar    1  UNL1        0.0208
      9 C          -2.6108  -19.6606   21.2322 C.ar    1  UNL1        0.0989
     10 N          -3.1020  -18.7998   22.3581 N.ar    1  UNL1       -0.2422
     11 C          -4.5723  -18.5586   22.5313 C.ar    1  UNL1        0.1019
     12 O         -12.0467  -16.0734   19.5251 O.2     1  UNL1       -0.4086
     13 N         -10.9203  -17.0019   19.8703 N.2     1  UNL1       -0.0814
     14 C         -10.3569  -17.0133   21.2604 C.2     1  UNL1        0.1771
     15 H         -12.3986  -16.0663   18.6567 H       1  UNL1        0.3278
@<TRIPOS>BOND
     1    12    13    1
     2    13    14    2
     3    14     1    1
     4     1     2   ar
     5     2     3   ar
     6     3     4   ar
     7     4     6    1
     8     6     7   ar
     9     7     8   ar
    10     8     9   ar
    11     9    10   ar
    12    10    11   ar
    13     4     5   ar
    14     5     1   ar
    15    11     6   ar
    16    12    15    1
@<TRIPOS>MOLECULE
*****
 15 16 0 0 0
SMALL
GASTEIGER

@<TRIPOS>ATOM
      1 C          -3.6332  -19.0830   19.9480 C.ar    1  UNL1        0.1677
      2 C          -3.8461  -20.5636   20.0601 C.ar    1  UNL1        0.0424
      3 C          -5.3164  -20.8091   20.2265 C.ar    1  UNL1        0.0407
      4 C          -6.0123  -19.4803   20.2172 C.ar    1  UNL1        0.1469
      5 O          -4.9720  -18.4135   20.0451 O.2     1  UNL1       -0.4518
      6 C          -7.4892  -19.2575   20.3557 C.ar    1  UNL1        0.0537
      7 C          -8.0379  -18.6165   21.5959 C.ar    1  UNL1        0.0062
      8 C          -9.5148  -18.3937   21.7344 C.ar    1  UNL1        0.0208
      9 C         -10.4429  -18.8118   20.6327 C.ar    1  UNL1        0.0989
     10 N          -9.8942  -19.4528   19.3926 N.ar    1  UNL1       -0.2422
     11 C          -8.4174  -19.6756   19.2541 C.ar    1  UNL1        0.1019
     12 O           0.1887  -18.1212   20.4155 O.2     1  UNL1       -0.4086
     13 N          -1.1313  -18.8112   20.5935 N.2     1  UNL1       -0.0814
     14 C          -2.3132  -18.3930   19.7700 C.2     1  UNL1        0.1771
     15 H           0.9270  -18.3824   20.9299 H       1  UNL1        0.3278
@<TRIPOS>BOND
     1    12    13    1
     2    13    14    2
     3    14     1    1
     4     1     2   ar
     5     2     3   ar
     6     3     4   ar
     7     4     6    1
     8     6     7   ar
     9     7     8   ar
    10     8     9   ar
    11     9    10   ar
    12    10    11   ar
    13     4     5   ar
    14     5     1   ar
    15    11     6   ar
    16    12    15    1
@<TRIPOS>MOLECULE
*****
 15 16 0 0 0
SMALL
GASTEIGER

@<TRIPOS>ATOM
      1 C          -3.4832  -18.9245   20.8941 C.ar    1  UNL1        0.1677
      2 C          -4.0293  -20.1380   20.2018 C.ar    1  UNL1        0.0424
      3 C          -5.4665  -20.2927   20.6023 C.ar    1  UNL1        0.0407
      4 C          -5.8087  -19.1749   21.5423 C.ar    1  UNL1        0.1469
      5 O          -4.5830  -18.3293   21.7226 O.2     1  UNL1       -0.4518
      6 C          -7.1425  -18.9434   22.1884 C.ar    1  UNL1        0.0537
      7 C          -7.9987  -20.1109   22.5804 C.ar    1  UNL1        0.0062
      8 C          -9.3325  -19.8794   23.2265 C.ar    1  UNL1        0.0208
      9 C          -9.8100  -18.4803   23.4806 C.ar    1  UNL1        0.0989
     10 N          -8.9537  -17.3128   23.0886 N.ar    1  UNL1       -0.2422
     11 C          -7.6200  -17.5443   22.4425 C.ar    1  UNL1        0.1019
     12 O           0.3229  -18.5975   19.8188 O.2     1  UNL1       -0.4086
     13 N          -1.0771  -19.1235   19.9345 N.2     1  UNL1       -0.0814
     14 C          -2.0832  -18.3985   20.7784 C.2     1  UNL1        0.1771
     15 H           0.9514  -19.0504   19.2917 H       1  UNL1        0.3278
@<TRIPOS>BOND
     1    12    13    1
     2    13    14    2
     3    14     1    1
     4     1     2   ar
     5     2     3   ar
     6     3     4   ar
     7     4     6    1
     8     6     7   ar
     9     7     8   ar
    10     8     9   ar
    11     9    10   ar
    12    10    11   ar
    13     4     5   ar
    14     5     1   ar
    15    11     6   ar
    16    12    15    1
@<TRIPOS>MOLECULE
*****
 15 16 0 0 0
SMALL
GASTEIGER

@<TRIPOS>ATOM
      1 C          -5.3698  -18.4850   22.4074 C.ar    1  UNL1        0.1677
      2 C          -5.7718  -19.8743   22.0093 C.ar    1  UNL1        0.0424
      3 C          -7.2298  -19.8521   21.6578 C.ar    1  UNL1        0.0407
      4 C          -7.7290  -18.4492   21.8386 C.ar    1  UNL1        0.1469
      5 O          -6.5795  -17.6043   22.3019 O.2     1  UNL1       -0.4518
      6 C          -9.1316  -17.9746   21.5983 C.ar    1  UNL1        0.0537
      7 C         -10.0957  -18.8376   20.8396 C.ar    1  UNL1        0.0062
      8 C         -11.4982  -18.3629   20.5994 C.ar    1  UNL1        0.0208
      9 C         -11.9365  -17.0253   21.1178 C.ar    1  UNL1        0.0989
     10 N         -10.9723  -16.1624   21.8764 N.ar    1  UNL1       -0.2422
     11 C          -9.5698  -16.6370   22.1167 C.ar    1  UNL1        0.1019
     12 O          -1.7525  -16.8552   22.3162 O.2     1  UNL1       -0.4086
     13 N          -3.1234  -17.2878   21.8878 N.2     1  UNL1       -0.0814
     14 C          -3.9989  -18.0524   22.8358 C.2     1  UNL1        0.1771
     15 H          -1.2055  -16.3775   21.7240 H       1  UNL1        0.3278
@<TRIPOS>BOND
     1    12    13    1
     2    13    14    2
     3    14     1    1
     4     1     2   ar
     5     2     3   ar
     6     3     4   ar
     7     4     6    1
     8     6     7   ar
     9     7     8   ar
    10     8     9   ar
    11     9    10   ar
    12    10    11   ar
    13     4     5   ar
    14     5     1   ar
    15    11     6   ar
    16    12    15    1
@<TRIPOS>MOLECULE
*****
 15 16 0 0 0
SMALL
GASTEIGER

@<TRIPOS>ATOM
      1 C         -15.2112   -8.5885   18.6203 C.ar    1  UNL1        0.1677
      2 C         -15.9147   -7.4049   19.2156 C.ar    1  UNL1        0.0424
      3 C         -14.9079   -6.3066   19.3894 C.ar    1  UNL1        0.0407
      4 C         -13.5823   -6.8115   18.9016 C.ar    1  UNL1        0.1469
      5 O         -13.7698   -8.2217   18.4263 O.2     1  UNL1       -0.4518
      6 C         -12.2952   -6.0412   18.8909 C.ar    1  UNL1        0.0537
      7 C         -10.9856   -6.7698   18.8279 C.ar    1  UNL1        0.0062
      8 C          -9.6985   -5.9995   18.8173 C.ar    1  UNL1        0.0208
      9 C          -9.7211   -4.5006   18.8697 C.ar    1  UNL1        0.0989
     10 N         -11.0307   -3.7720   18.9327 N.ar    1  UNL1       -0.2422
     11 C         -12.3177   -4.5423   18.9433 C.ar    1  UNL1        0.1019
     12 O         -17.2726  -11.9621   18.9671 O.2     1  UNL1       -0.4086
     13 N         -16.6447  -10.6432   19.3084 N.2     1  UNL1       -0.0814
     14 C         -15.8391   -9.9074   18.2791 C.2     1  UNL1        0.1771
     15 H         -17.7759  -12.4217   19.6101 H       1  UNL1        0.3278
@<TRIPOS>BOND
     1    12    13    1
     2    13    14    2
     3    14     1    1
     4     1     2   ar
     5     2     3   ar
     6     3     4   ar
     7     4     6    1
     8     6     7   ar
     9     7     8   ar
    10     8     9   ar
    11     9    10   ar
    12    10    11   ar
    13     4     5   ar
    14     5     1   ar
    15    11     6   ar
    16    12    15    1
@<TRIPOS>MOLECULE
*****
 15 16 0 0 0
SMALL
GASTEIGER

@<TRIPOS>ATOM
      1 C          -5.3402  -16.5323   23.5026 C.ar    1  UNL1        0.1677
      2 C          -5.7988  -15.4038   24.3781 C.ar    1  UNL1        0.0424
      3 C          -7.2975  -15.3622   24.3335 C.ar    1  UNL1        0.0407
      4 C          -7.7653  -16.4649   23.4305 C.ar    1  UNL1        0.1469
      5 O          -6.5556  -17.1880   22.9170 O.2     1  UNL1       -0.4518
      6 C          -9.1922  -16.7877   23.0992 C.ar    1  UNL1        0.0537
      7 C         -10.0075  -17.6296   24.0353 C.ar    1  UNL1        0.0062
      8 C         -11.4344  -17.9524   23.7040 C.ar    1  UNL1        0.0208
      9 C         -12.0459  -17.4332   22.4365 C.ar    1  UNL1        0.0989
     10 N         -11.2306  -16.5913   21.5004 N.ar    1  UNL1       -0.2422
     11 C          -9.8038  -16.2685   21.8317 C.ar    1  UNL1        0.1019
     12 O          -1.6595  -16.5778   22.0193 O.2     1  UNL1       -0.4086
     13 N          -3.0834  -16.1757   22.2659 N.2     1  UNL1       -0.0814
     14 C          -3.9163  -16.9344   23.2561 C.2     1  UNL1        0.1771
     15 H          -1.1392  -16.1039   21.4008 H       1  UNL1        0.3278
@<TRIPOS>BOND
     1    12    13    1
     2    13    14    2
     3    14     1    1
     4     1     2   ar
     5     2     3   ar
     6     3     4   ar
     7     4     6    1
     8     6     7   ar
     9     7     8   ar
    10     8     9   ar
    11     9    10   ar
    12    10    11   ar
    13     4     5   ar
    14     5     1   ar
    15    11     6   ar
    16    12    15    1
@<TRIPOS>MOLECULE
*****
 15 16 0 0 0
SMALL
GASTEIGER

@<TRIPOS>ATOM
      1 C           2.6930  -13.5823   28.6404 C.ar    1  UNL1        0.1677
      2 C           2.8715  -12.1546   29.0648 C.ar    1  UNL1        0.0424
      3 C           4.3418  -11.8935   29.2060 C.ar    1  UNL1        0.0407
      4 C           5.0720  -13.1597   28.8689 C.ar    1  UNL1        0.1469
      5 O           4.0530  -14.2034   28.5193 O.2     1  UNL1       -0.4518
      6 C           6.5601  -13.3489   28.8794 C.ar    1  UNL1        0.0537
      7 C           7.4194  -12.5907   27.9116 C.ar    1  UNL1        0.0062
      8 C           8.9073  -12.7800   27.9222 C.ar    1  UNL1        0.0208
      9 C           9.5360  -13.7273   28.9007 C.ar    1  UNL1        0.0989
     10 N           8.6766  -14.4854   29.8685 N.ar    1  UNL1       -0.2422
     11 C           7.1887  -14.2962   29.8579 C.ar    1  UNL1        0.1019
     12 O          -0.0380  -16.4406   28.2917 O.2     1  UNL1       -0.4086
     13 N           1.2707  -15.7546   28.5498 N.2     1  UNL1       -0.0814
     14 C           1.3843  -14.2683   28.3823 C.2     1  UNL1        0.1771
     15 H          -0.1089  -17.3691   28.3963 H       1  UNL1        0.3278
@<TRIPOS>BOND
     1    12    13    1
     2    13    14    2
     3    14     1    1
     4     1     2   ar
     5     2     3   ar
     6     3     4   ar
     7     4     6    1
     8     6     7   ar
     9     7     8   ar
    10     8     9   ar
    11     9    10   ar
    12    10    11   ar
    13     4     5   ar
    14     5     1   ar
    15    11     6   ar
    16    12    15    1
