@<TRIPOS>MOLECULE
*****
 30 34 0 0 0
SMALL
GASTEIGER

@<TRIPOS>ATOM
      1 O           2.1368    1.0175   22.4346 O.2     1  UNL1       -0.2526
      2 C           1.6652    0.8140   23.8440 C.2     1  UNL1        0.3039
      3 N           2.3490   -0.1877   24.7265 N.am    1  UNL1       -0.2901
      4 N           0.5098    1.6125   24.3709 N.am    1  UNL1       -0.2642
      5 C          -0.1740    2.6143   23.4883 C.3     1  UNL1        0.0954
      6 C          -1.3294    3.4127   24.0152 C.3     1  UNL1        0.0309
      7 C          -1.8010    3.2093   25.4246 C.3     1  UNL1        0.0827
      8 C          -1.1172    2.2075   26.3070 C.3     1  UNL1        0.0309
      9 C           0.0382    1.4091   25.7802 C.3     1  UNL1        0.0954
     10 H           2.0395   -0.3212   25.6515 H       1  UNL1        0.1509
     11 C          -2.9564    4.0077   25.9514 C.ar    1  UNL1        0.2362
     12 N          -4.2419    4.2812   25.2283 N.ar    1  UNL1       -0.1894
     13 C          -5.1092    5.1153   26.1239 C.ar    1  UNL1        0.2226
     14 N          -4.3597    5.3575   27.4004 N.ar    1  UNL1       -0.0544
     15 O          -3.0293    4.6730   27.2939 O.2     1  UNL1       -0.3370
     16 C          -6.4844    5.6189   25.7997 C.ar    1  UNL1        0.1394
     17 C          -7.2233    6.4713   26.7884 C.ar    1  UNL1        0.1212
     18 N          -8.5986    6.9749   26.4643 N.ar    1  UNL1       -0.2390
     19 C          -9.2349    6.6262   25.1515 C.ar    1  UNL1        0.1195
     20 C          -8.4960    5.7738   24.1628 C.ar    1  UNL1        0.1196
     21 N          -7.1207    5.2702   24.4869 N.ar    1  UNL1       -0.2374
     22 C           3.5044   -0.9862   24.1997 C.3     1  UNL1        0.0774
     23 C           4.8900   -1.5345   24.3710 C.3     1  UNL1        0.0259
     24 C           4.1200   -1.8207   23.1159 C.3     1  UNL1        0.0420
     25 C           4.0308   -2.4677   21.7655 C.ar    1  UNL1       -0.0208
     26 C           4.3516   -3.9246   21.6092 C.ar    1  UNL1       -0.0042
     27 C           4.2624   -4.5715   20.2589 C.ar    1  UNL1       -0.0003
     28 C           3.8524   -3.7616   19.0648 C.ar    1  UNL1       -0.0000
     29 C           3.5315   -2.3047   19.2211 C.ar    1  UNL1       -0.0003
     30 C           3.6207   -1.6577   20.5714 C.ar    1  UNL1       -0.0042
@<TRIPOS>BOND
     1     1     2    2
     2     2     3   am
     3     3    22    1
     4    22    23    1
     5    23    24    1
     6    24    25    1
     7    25    26   ar
     8    26    27   ar
     9    27    28   ar
    10    28    29   ar
    11    29    30   ar
    12     2     4   am
    13     4     5    1
    14     5     6    1
    15     6     7    1
    16     7    11    1
    17    11    12   ar
    18    12    13   ar
    19    13    16    1
    20    16    17   ar
    21    17    18   ar
    22    18    19   ar
    23    19    20   ar
    24    20    21   ar
    25    13    14   ar
    26    14    15   ar
    27     7     8    1
    28     8     9    1
    29    24    22    1
    30    30    25   ar
    31     9     4    1
    32    15    11   ar
    33    21    16   ar
    34     3    10    1
@<TRIPOS>MOLECULE
*****
 30 34 0 0 0
SMALL
GASTEIGER

@<TRIPOS>ATOM
      1 O          -0.9446    4.4007   19.4049 O.2     1  UNL1       -0.2526
      2 C          -0.9440    2.9905   19.9164 C.2     1  UNL1        0.3039
      3 N          -2.0959    2.4897   20.7364 N.am    1  UNL1       -0.2901
      4 N           0.2084    2.0813   19.6080 N.am    1  UNL1       -0.2642
      5 C           1.3603    2.5822   18.7880 C.3     1  UNL1        0.0954
      6 C           2.5128    1.6730   18.4796 C.3     1  UNL1        0.0309
      7 C           2.5134    0.2629   18.9912 C.3     1  UNL1        0.0827
      8 C           1.3616   -0.2379   19.8111 C.3     1  UNL1        0.0309
      9 C           0.2091    0.6713   20.1196 C.3     1  UNL1        0.0954
     10 H          -2.0955    1.5642   21.0721 H       1  UNL1        0.1509
     11 C           3.6659   -0.6463   18.6828 C.ar    1  UNL1        0.2362
     12 N           4.6505   -1.1897   19.6755 N.ar    1  UNL1       -0.1894
     13 C           5.6292   -2.0510   18.9337 C.ar    1  UNL1        0.2226
     14 N           5.2496   -2.0399   17.4826 N.ar    1  UNL1       -0.0544
     15 O           4.0362   -1.1718   17.3275 O.2     1  UNL1       -0.3370
     16 C           6.7847   -2.7930   19.5372 C.ar    1  UNL1        0.1394
     17 C           6.5344   -3.9197   20.4952 C.ar    1  UNL1        0.1212
     18 N           7.6898   -4.6618   21.0988 N.ar    1  UNL1       -0.2390
     19 C           9.0957   -4.2772   20.7442 C.ar    1  UNL1        0.1195
     20 C           9.3460   -3.1505   19.7862 C.ar    1  UNL1        0.1196
     21 N           8.1905   -2.4084   19.1827 N.ar    1  UNL1       -0.2374
     22 C          -3.2484    3.3989   21.0448 C.3     1  UNL1        0.0774
     23 C          -4.3494    4.3045   20.5785 C.3     1  UNL1        0.0259
     24 C          -4.1434    4.0681   22.0453 C.3     1  UNL1        0.0420
     25 C          -4.5412    4.3179   23.4699 C.ar    1  UNL1       -0.0208
     26 C          -3.7468    3.7106   24.5880 C.ar    1  UNL1       -0.0042
     27 C          -4.1447    3.9605   26.0125 C.ar    1  UNL1       -0.0003
     28 C          -5.3368    4.8177   26.3189 C.ar    1  UNL1       -0.0000
     29 C          -6.1312    5.4250   25.2009 C.ar    1  UNL1       -0.0003
     30 C          -5.7334    5.1752   23.7764 C.ar    1  UNL1       -0.0042
@<TRIPOS>BOND
     1     1     2    2
     2     2     3   am
     3     3    22    1
     4    22    23    1
     5    23    24    1
     6    24    25    1
     7    25    26   ar
     8    26    27   ar
     9    27    28   ar
    10    28    29   ar
    11    29    30   ar
    12     2     4   am
    13     4     5    1
    14     5     6    1
    15     6     7    1
    16     7    11    1
    17    11    12   ar
    18    12    13   ar
    19    13    16    1
    20    16    17   ar
    21    17    18   ar
    22    18    19   ar
    23    19    20   ar
    24    20    21   ar
    25    13    14   ar
    26    14    15   ar
    27     7     8    1
    28     8     9    1
    29    24    22    1
    30    30    25   ar
    31     9     4    1
    32    15    11   ar
    33    21    16   ar
    34     3    10    1
@<TRIPOS>MOLECULE
*****
 30 34 0 0 0
SMALL
GASTEIGER

@<TRIPOS>ATOM
      1 O           5.0216   -0.8558   24.8725 O.2     1  UNL1       -0.2526
      2 C           3.7831   -0.5887   25.6755 C.2     1  UNL1        0.3039
      3 N           2.5023   -0.2304   24.9819 N.am    1  UNL1       -0.2901
      4 N           3.8255   -0.6799   27.1721 N.am    1  UNL1       -0.2642
      5 C           5.1064   -1.0382   27.8657 C.3     1  UNL1        0.0954
      6 C           5.1488   -1.1294   29.3624 C.3     1  UNL1        0.0309
      7 C           3.9102   -0.8622   30.1654 C.3     1  UNL1        0.0827
      8 C           2.6294   -0.5040   29.4718 C.3     1  UNL1        0.0309
      9 C           2.5870   -0.4128   27.9752 C.3     1  UNL1        0.0954
     10 H           1.6894   -0.0551   25.5090 H       1  UNL1        0.1509
     11 C           3.9526   -0.9534   31.6620 C.ar    1  UNL1        0.2362
     12 N           4.1508    0.1921   32.6099 N.ar    1  UNL1       -0.1894
     13 C           4.1249   -0.3526   34.0072 C.ar    1  UNL1        0.2226
     14 N           3.9107   -1.8348   33.9230 N.ar    1  UNL1       -0.0544
     15 O           3.8042   -2.2061   32.4736 O.2     1  UNL1       -0.3370
     16 C           4.2852    0.4449   35.2675 C.ar    1  UNL1        0.1394
     17 C           5.2673    0.0061   36.3129 C.ar    1  UNL1        0.1212
     18 N           5.4277    0.8036   37.5732 N.ar    1  UNL1       -0.2390
     19 C           4.6057    2.0398   37.7881 C.ar    1  UNL1        0.1195
     20 C           3.6235    2.4785   36.7428 C.ar    1  UNL1        0.1196
     21 N           3.4633    1.6810   35.4824 N.ar    1  UNL1       -0.2374
     22 C           2.4599   -0.1393   23.4853 C.3     1  UNL1        0.0774
     23 C           2.0547    0.5910   22.2393 C.3     1  UNL1        0.0259
     24 C           2.7917   -0.7116   22.1391 C.3     1  UNL1        0.0420
     25 C           3.4088   -1.7942   21.3040 C.ar    1  UNL1       -0.0208
     26 C           3.1445   -1.8458   19.8284 C.ar    1  UNL1       -0.0042
     27 C           3.7616   -2.9283   18.9933 C.ar    1  UNL1       -0.0003
     28 C           4.6429   -3.9592   19.6339 C.ar    1  UNL1       -0.0000
     29 C           4.9072   -3.9077   21.1095 C.ar    1  UNL1       -0.0003
     30 C           4.2902   -2.8251   21.9445 C.ar    1  UNL1       -0.0042
@<TRIPOS>BOND
     1     1     2    2
     2     2     3   am
     3     3    22    1
     4    22    23    1
     5    23    24    1
     6    24    25    1
     7    25    26   ar
     8    26    27   ar
     9    27    28   ar
    10    28    29   ar
    11    29    30   ar
    12     2     4   am
    13     4     5    1
    14     5     6    1
    15     6     7    1
    16     7    11    1
    17    11    12   ar
    18    12    13   ar
    19    13    16    1
    20    16    17   ar
    21    17    18   ar
    22    18    19   ar
    23    19    20   ar
    24    20    21   ar
    25    13    14   ar
    26    14    15   ar
    27     7     8    1
    28     8     9    1
    29    24    22    1
    30    30    25   ar
    31     9     4    1
    32    15    11   ar
    33    21    16   ar
    34     3    10    1
@<TRIPOS>MOLECULE
*****
 30 34 0 0 0
SMALL
GASTEIGER

@<TRIPOS>ATOM
      1 O           4.2184   -1.1514   23.4949 O.2     1  UNL1       -0.2526
      2 C           4.4626   -1.6778   24.8782 C.2     1  UNL1        0.3039
      3 N           5.4056   -2.8251   25.0884 N.am    1  UNL1       -0.2901
      4 N           3.7636   -1.0568   26.0511 N.am    1  UNL1       -0.2642
      5 C           2.8205    0.0906   25.8408 C.3     1  UNL1        0.0954
      6 C           2.1216    0.7116   27.0137 C.3     1  UNL1        0.0309
      7 C           2.3658    0.1853   28.3970 C.3     1  UNL1        0.0827
      8 C           3.3088   -0.9620   28.6073 C.3     1  UNL1        0.0309
      9 C           4.0078   -1.5830   27.4343 C.3     1  UNL1        0.0954
     10 H           5.5659   -3.1705   25.9963 H       1  UNL1        0.1509
     11 C           1.6668    0.8063   29.5700 C.ar    1  UNL1        0.2362
     12 N           2.3252    1.5332   30.7049 N.ar    1  UNL1       -0.1894
     13 C           1.2520    1.9856   31.6503 C.ar    1  UNL1        0.2226
     14 N          -0.0696    1.5383   31.0996 N.ar    1  UNL1       -0.0544
     15 O           0.1868    0.8095   29.8139 O.2     1  UNL1       -0.3370
     16 C           1.4634    2.7510   32.9229 C.ar    1  UNL1        0.1394
     17 C           0.8630    4.1159   33.0858 C.ar    1  UNL1        0.1212
     18 N           1.0743    4.8813   34.3584 N.ar    1  UNL1       -0.2390
     19 C           1.8862    4.2818   35.4681 C.ar    1  UNL1        0.1195
     20 C           2.4866    2.9169   35.3053 C.ar    1  UNL1        0.1196
     21 N           2.2752    2.1515   34.0326 N.ar    1  UNL1       -0.2374
     22 C           6.1046   -3.4461   23.9155 C.3     1  UNL1        0.0774
     23 C           7.2039   -4.3048   23.3640 C.3     1  UNL1        0.0259
     24 C           6.2159   -3.6630   22.4355 C.3     1  UNL1        0.0420
     25 C           5.7097   -3.4178   21.0449 C.ar    1  UNL1       -0.0208
     26 C           6.5892   -2.7425   20.0348 C.ar    1  UNL1       -0.0042
     27 C           6.0830   -2.4973   18.6443 C.ar    1  UNL1       -0.0003
     28 C           4.6973   -2.9274   18.2638 C.ar    1  UNL1       -0.0000
     29 C           3.8177   -3.6027   19.2739 C.ar    1  UNL1       -0.0003
     30 C           4.3239   -3.8479   20.6644 C.ar    1  UNL1       -0.0042
@<TRIPOS>BOND
     1     1     2    2
     2     2     3   am
     3     3    22    1
     4    22    23    1
     5    23    24    1
     6    24    25    1
     7    25    26   ar
     8    26    27   ar
     9    27    28   ar
    10    28    29   ar
    11    29    30   ar
    12     2     4   am
    13     4     5    1
    14     5     6    1
    15     6     7    1
    16     7    11    1
    17    11    12   ar
    18    12    13   ar
    19    13    16    1
    20    16    17   ar
    21    17    18   ar
    22    18    19   ar
    23    19    20   ar
    24    20    21   ar
    25    13    14   ar
    26    14    15   ar
    27     7     8    1
    28     8     9    1
    29    24    22    1
    30    30    25   ar
    31     9     4    1
    32    15    11   ar
    33    21    16   ar
    34     3    10    1
@<TRIPOS>MOLECULE
*****
 30 34 0 0 0
SMALL
GASTEIGER

@<TRIPOS>ATOM
      1 O           5.6342   -4.2883   21.4728 O.2     1  UNL1       -0.2526
      2 C           5.0837   -3.2982   22.4561 C.2     1  UNL1        0.3039
      3 N           5.5223   -3.3420   23.8899 N.am    1  UNL1       -0.2901
      4 N           4.0945   -2.2645   22.0056 N.am    1  UNL1       -0.2642
      5 C           3.6559   -2.2208   20.5717 C.3     1  UNL1        0.0954
      6 C           2.6668   -1.1871   20.1212 C.3     1  UNL1        0.0309
      7 C           2.1162   -0.1970   21.1045 C.3     1  UNL1        0.0827
      8 C           2.5548   -0.2408   22.5383 C.3     1  UNL1        0.0309
      9 C           3.5440   -1.2745   22.9888 C.3     1  UNL1        0.0954
     10 H           5.1609   -2.6922   24.5352 H       1  UNL1        0.1509
     11 C           1.1271    0.8367   20.6540 C.ar    1  UNL1        0.2362
     12 N           0.0402    1.4414   21.4924 N.ar    1  UNL1       -0.1894
     13 C          -0.7075    2.4257   20.6425 C.ar    1  UNL1        0.2226
     14 N          -0.0827    2.4293   19.2789 N.ar    1  UNL1       -0.0544
     15 O           1.0511    1.4472   19.2860 O.2     1  UNL1       -0.3370
     16 C          -1.8750    3.2599   21.0796 C.ar    1  UNL1        0.1394
     17 C          -1.6447    4.5332   21.8382 C.ar    1  UNL1        0.1212
     18 N          -2.8122    5.3675   22.2753 N.ar    1  UNL1       -0.2390
     19 C          -4.2100    4.9284   21.9538 C.ar    1  UNL1        0.1195
     20 C          -4.4402    3.6550   21.1952 C.ar    1  UNL1        0.1196
     21 N          -3.2727    2.8207   20.7581 N.ar    1  UNL1       -0.2374
     22 C           6.5114   -4.3757   24.3404 C.3     1  UNL1        0.0774
     23 C           7.5736   -5.3847   24.0183 C.3     1  UNL1        0.0259
     24 C           7.1625   -5.1572   25.4428 C.3     1  UNL1        0.0420
     25 C           7.3010   -5.4770   26.9018 C.ar    1  UNL1       -0.0208
     26 C           6.5062   -4.7100   27.9165 C.ar    1  UNL1       -0.0042
     27 C           6.6447   -5.0299   29.3754 C.ar    1  UNL1       -0.0003
     28 C           7.5781   -6.1168   29.8196 C.ar    1  UNL1       -0.0000
     29 C           8.3730   -6.8839   28.8049 C.ar    1  UNL1       -0.0003
     30 C           8.2345   -6.5640   27.3460 C.ar    1  UNL1       -0.0042
@<TRIPOS>BOND
     1     1     2    2
     2     2     3   am
     3     3    22    1
     4    22    23    1
     5    23    24    1
     6    24    25    1
     7    25    26   ar
     8    26    27   ar
     9    27    28   ar
    10    28    29   ar
    11    29    30   ar
    12     2     4   am
    13     4     5    1
    14     5     6    1
    15     6     7    1
    16     7    11    1
    17    11    12   ar
    18    12    13   ar
    19    13    16    1
    20    16    17   ar
    21    17    18   ar
    22    18    19   ar
    23    19    20   ar
    24    20    21   ar
    25    13    14   ar
    26    14    15   ar
    27     7     8    1
    28     8     9    1
    29    24    22    1
    30    30    25   ar
    31     9     4    1
    32    15    11   ar
    33    21    16   ar
    34     3    10    1
@<TRIPOS>MOLECULE
*****
 30 34 0 0 0
SMALL
GASTEIGER

@<TRIPOS>ATOM
      1 O           6.0331    2.0605   35.4669 O.2     1  UNL1       -0.2526
      2 C           4.9751    1.0521   35.1294 C.2     1  UNL1        0.3039
      3 N           3.5630    1.2642   35.5889 N.am    1  UNL1       -0.2901
      4 N           5.3292   -0.1683   34.3325 N.am    1  UNL1       -0.2642
      5 C           6.7413   -0.3804   33.8731 C.3     1  UNL1        0.0954
      6 C           7.0954   -1.6009   33.0761 C.3     1  UNL1        0.0309
      7 C           6.0374   -2.6093   32.7387 C.3     1  UNL1        0.0827
      8 C           4.6254   -2.3972   33.1981 C.3     1  UNL1        0.0309
      9 C           4.2713   -1.1767   33.9950 C.3     1  UNL1        0.0954
     10 H           2.8687    0.6024   35.3674 H       1  UNL1        0.1509
     11 C           6.3915   -3.8297   31.9417 C.ar    1  UNL1        0.2362
     12 N           6.6124   -3.8811   30.4590 N.ar    1  UNL1       -0.1894
     13 C           6.9443   -5.2962   30.0885 C.ar    1  UNL1        0.2226
     14 N           6.9285   -6.1195   31.3423 N.ar    1  UNL1       -0.0544
     15 O           6.5869   -5.2131   32.4876 O.2     1  UNL1       -0.3370
     16 C           7.2401   -5.7996   28.7068 C.ar    1  UNL1        0.1394
     17 C           6.5677   -5.1742   27.5208 C.ar    1  UNL1        0.1212
     18 N           6.8633   -5.6776   26.1390 N.ar    1  UNL1       -0.2390
     19 C           7.8315   -6.8064   25.9434 C.ar    1  UNL1        0.1195
     20 C           8.5040   -7.4319   27.1294 C.ar    1  UNL1        0.1196
     21 N           8.2082   -6.9284   28.5111 N.ar    1  UNL1       -0.2374
     22 C           3.2089    2.4847   36.3858 C.3     1  UNL1        0.0774
     23 C           3.3680    3.3209   37.6208 C.3     1  UNL1        0.0259
     24 C           2.4365    3.7622   36.5310 C.3     1  UNL1        0.0420
     25 C           1.4528    4.7547   35.9857 C.ar    1  UNL1       -0.0208
     26 C           1.2767    4.8990   34.5031 C.ar    1  UNL1       -0.0042
     27 C           0.2929    5.8914   33.9578 C.ar    1  UNL1       -0.0003
     28 C          -0.5147    6.7395   34.8951 C.ar    1  UNL1       -0.0000
     29 C          -0.3386    6.5952   36.3777 C.ar    1  UNL1       -0.0003
     30 C           0.6451    5.6028   36.9230 C.ar    1  UNL1       -0.0042
@<TRIPOS>BOND
     1     1     2    2
     2     2     3   am
     3     3    22    1
     4    22    23    1
     5    23    24    1
     6    24    25    1
     7    25    26   ar
     8    26    27   ar
     9    27    28   ar
    10    28    29   ar
    11    29    30   ar
    12     2     4   am
    13     4     5    1
    14     5     6    1
    15     6     7    1
    16     7    11    1
    17    11    12   ar
    18    12    13   ar
    19    13    16    1
    20    16    17   ar
    21    17    18   ar
    22    18    19   ar
    23    19    20   ar
    24    20    21   ar
    25    13    14   ar
    26    14    15   ar
    27     7     8    1
    28     8     9    1
    29    24    22    1
    30    30    25   ar
    31     9     4    1
    32    15    11   ar
    33    21    16   ar
    34     3    10    1
@<TRIPOS>MOLECULE
*****
 30 34 0 0 0
SMALL
GASTEIGER

@<TRIPOS>ATOM
      1 O          -0.2256    2.7630   22.9645 O.2     1  UNL1       -0.2526
      2 C           0.0351    1.8626   21.7933 C.2     1  UNL1        0.3039
      3 N          -0.7655    2.0187   20.5345 N.am    1  UNL1       -0.2901
      4 N           1.0964    0.8063   21.8810 N.am    1  UNL1       -0.2642
      5 C           1.8970    0.6502   23.1399 C.3     1  UNL1        0.0954
      6 C           2.9583   -0.4062   23.2277 C.3     1  UNL1        0.0309
      7 C           3.2190   -1.3065   22.0565 C.3     1  UNL1        0.0827
      8 C           2.4184   -1.1504   20.7977 C.3     1  UNL1        0.0309
      9 C           1.3571   -0.0941   20.7100 C.3     1  UNL1        0.0954
     10 H          -0.5944    1.4278   19.7659 H       1  UNL1        0.1509
     11 C           4.2803   -2.3629   22.1443 C.ar    1  UNL1        0.2362
     12 N           4.9467   -2.8411   23.4002 N.ar    1  UNL1       -0.1894
     13 C           5.9398   -3.9003   23.0236 C.ar    1  UNL1        0.2226
     14 N           5.8872   -4.0768   21.5350 N.ar    1  UNL1       -0.0544
     15 O           4.8616   -3.1266   20.9915 O.2     1  UNL1       -0.3370
     16 C           6.8293   -4.6512   23.9696 C.ar    1  UNL1        0.1394
     17 C           6.8849   -4.2603   25.4167 C.ar    1  UNL1        0.1212
     18 N           7.7744   -5.0111   26.3629 N.ar    1  UNL1       -0.2390
     19 C           8.6082   -6.1529   25.8618 C.ar    1  UNL1        0.1195
     20 C           8.5526   -6.5438   24.4147 C.ar    1  UNL1        0.1196
     21 N           7.6631   -5.7929   23.4686 N.ar    1  UNL1       -0.2374
     22 C          -1.8268    3.0751   20.4468 C.3     1  UNL1        0.0774
     23 C          -2.4388    4.2458   19.7362 C.3     1  UNL1        0.0259
     24 C          -3.0530    3.7340   21.0054 C.3     1  UNL1        0.0420
     25 C          -4.1157    3.8190   22.0607 C.ar    1  UNL1       -0.0208
     26 C          -5.5313    4.1322   21.6761 C.ar    1  UNL1       -0.0042
     27 C          -6.5938    4.2172   22.7314 C.ar    1  UNL1       -0.0003
     28 C          -6.2408    3.9890   24.1713 C.ar    1  UNL1       -0.0000
     29 C          -4.8252    3.6758   24.5559 C.ar    1  UNL1       -0.0003
     30 C          -3.7627    3.5908   23.5006 C.ar    1  UNL1       -0.0042
@<TRIPOS>BOND
     1     1     2    2
     2     2     3   am
     3     3    22    1
     4    22    23    1
     5    23    24    1
     6    24    25    1
     7    25    26   ar
     8    26    27   ar
     9    27    28   ar
    10    28    29   ar
    11    29    30   ar
    12     2     4   am
    13     4     5    1
    14     5     6    1
    15     6     7    1
    16     7    11    1
    17    11    12   ar
    18    12    13   ar
    19    13    16    1
    20    16    17   ar
    21    17    18   ar
    22    18    19   ar
    23    19    20   ar
    24    20    21   ar
    25    13    14   ar
    26    14    15   ar
    27     7     8    1
    28     8     9    1
    29    24    22    1
    30    30    25   ar
    31     9     4    1
    32    15    11   ar
    33    21    16   ar
    34     3    10    1
@<TRIPOS>MOLECULE
*****
 30 34 0 0 0
SMALL
GASTEIGER

@<TRIPOS>ATOM
      1 O           3.1281    0.5731   22.8041 O.2     1  UNL1       -0.2526
      2 C           1.7934    0.8969   23.4075 C.2     1  UNL1        0.3039
      3 N           0.5984    1.0942   22.5227 N.am    1  UNL1       -0.2901
      4 N           1.6539    1.0234   24.8956 N.am    1  UNL1       -0.2642
      5 C           2.8491    0.8261   25.7804 C.3     1  UNL1        0.0954
      6 C           2.7095    0.9525   27.2685 C.3     1  UNL1        0.0309
      7 C           1.3749    1.2763   27.8719 C.3     1  UNL1        0.0827
      8 C           0.1798    1.4736   26.9871 C.3     1  UNL1        0.0309
      9 C           0.3194    1.3472   25.4989 C.3     1  UNL1        0.0954
     10 H          -0.2775    1.3067   22.9187 H       1  UNL1        0.1509
     11 C           1.2354    1.4028   29.3600 C.ar    1  UNL1        0.2362
     12 N           2.3541    1.3518   30.3579 N.ar    1  UNL1       -0.1894
     13 C           1.7628    1.5200   31.7262 C.ar    1  UNL1        0.2226
     14 N           0.2786    1.6748   31.5739 N.ar    1  UNL1       -0.0544
     15 O          -0.0474    1.6024   30.1115 O.2     1  UNL1       -0.3370
     16 C           2.5223    1.5312   33.0196 C.ar    1  UNL1        0.1394
     17 C           3.7967    0.7506   33.1478 C.ar    1  UNL1        0.1212
     18 N           4.5564    0.7618   34.4412 N.ar    1  UNL1       -0.2390
     19 C           4.0415    1.5537   35.6064 C.ar    1  UNL1        0.1195
     20 C           2.7670    2.3343   35.4783 C.ar    1  UNL1        0.1196
     21 N           2.0074    2.3231   34.1848 N.ar    1  UNL1       -0.2374
     22 C           0.7379    0.9678   21.0345 C.3     1  UNL1        0.0774
     23 C           0.2832    1.3299   19.6518 C.3     1  UNL1        0.0259
     24 C           1.4343    0.3866   19.8399 C.3     1  UNL1        0.0420
     25 C           2.5009   -0.4936   19.2587 C.ar    1  UNL1       -0.0208
     26 C           3.1439   -0.1304   17.9531 C.ar    1  UNL1       -0.0042
     27 C           4.2105   -1.0106   17.3720 C.ar    1  UNL1       -0.0003
     28 C           4.6340   -2.2539   18.0965 C.ar    1  UNL1       -0.0000
     29 C           3.9910   -2.6170   19.4020 C.ar    1  UNL1       -0.0003
     30 C           2.9244   -1.7369   19.9832 C.ar    1  UNL1       -0.0042
@<TRIPOS>BOND
     1     1     2    2
     2     2     3   am
     3     3    22    1
     4    22    23    1
     5    23    24    1
     6    24    25    1
     7    25    26   ar
     8    26    27   ar
     9    27    28   ar
    10    28    29   ar
    11    29    30   ar
    12     2     4   am
    13     4     5    1
    14     5     6    1
    15     6     7    1
    16     7    11    1
    17    11    12   ar
    18    12    13   ar
    19    13    16    1
    20    16    17   ar
    21    17    18   ar
    22    18    19   ar
    23    19    20   ar
    24    20    21   ar
    25    13    14   ar
    26    14    15   ar
    27     7     8    1
    28     8     9    1
    29    24    22    1
    30    30    25   ar
    31     9     4    1
    32    15    11   ar
    33    21    16   ar
    34     3    10    1
@<TRIPOS>MOLECULE
*****
 30 34 0 0 0
SMALL
GASTEIGER

@<TRIPOS>ATOM
      1 O           2.7415   -0.2030   23.7035 O.2     1  UNL1       -0.2526
      2 C           3.4839   -1.0483   24.6956 C.2     1  UNL1        0.3039
      3 N           4.2864   -2.2253   24.2262 N.am    1  UNL1       -0.2901
      4 N           3.4236   -0.7165   26.1573 N.am    1  UNL1       -0.2642
      5 C           2.6210    0.4606   26.6267 C.3     1  UNL1        0.0954
      6 C           2.5607    0.7924   28.0883 C.3     1  UNL1        0.0309
      7 C           3.3031   -0.0529   29.0805 C.3     1  UNL1        0.0827
      8 C           4.1057   -1.2299   28.6110 C.3     1  UNL1        0.0309
      9 C           4.1660   -1.5617   27.1494 C.3     1  UNL1        0.0954
     10 H           4.7737   -2.7801   24.8774 H       1  UNL1        0.1509
     11 C           3.2429    0.2789   30.5421 C.ar    1  UNL1        0.2362
     12 N           2.6553    1.5225   31.1404 N.ar    1  UNL1       -0.1894
     13 C           2.8089    1.4376   32.6301 C.ar    1  UNL1        0.2226
     14 N           3.4915    0.1413   32.9525 N.ar    1  UNL1       -0.0544
     15 O           3.7597   -0.5747   31.6620 O.2     1  UNL1       -0.3370
     16 C           2.3590    2.4679   33.6230 C.ar    1  UNL1        0.1394
     17 C           2.5955    2.2509   35.0883 C.ar    1  UNL1        0.1212
     18 N           2.1456    3.2812   36.0813 N.ar    1  UNL1       -0.2390
     19 C           1.4592    4.5285   35.6090 C.ar    1  UNL1        0.1195
     20 C           1.2227    4.7455   34.1438 C.ar    1  UNL1        0.1196
     21 N           1.6726    3.7152   33.1508 N.ar    1  UNL1       -0.2374
     22 C           4.3467   -2.5571   22.7646 C.3     1  UNL1        0.0774
     23 C           4.7983   -3.4597   21.6550 C.3     1  UNL1        0.0259
     24 C           3.9994   -2.2292   21.3427 C.3     1  UNL1        0.0420
     25 C           3.3375   -1.3294   20.3415 C.ar    1  UNL1       -0.0208
     26 C           1.8907   -0.9669   20.5000 C.ar    1  UNL1       -0.0042
     27 C           1.2289   -0.0672   19.4988 C.ar    1  UNL1       -0.0003
     28 C           2.0140    0.4701   18.3391 C.ar    1  UNL1       -0.0000
     29 C           3.4609    0.1077   18.1806 C.ar    1  UNL1       -0.0003
     30 C           4.1226   -0.7921   19.1818 C.ar    1  UNL1       -0.0042
@<TRIPOS>BOND
     1     1     2    2
     2     2     3   am
     3     3    22    1
     4    22    23    1
     5    23    24    1
     6    24    25    1
     7    25    26   ar
     8    26    27   ar
     9    27    28   ar
    10    28    29   ar
    11    29    30   ar
    12     2     4   am
    13     4     5    1
    14     5     6    1
    15     6     7    1
    16     7    11    1
    17    11    12   ar
    18    12    13   ar
    19    13    16    1
    20    16    17   ar
    21    17    18   ar
    22    18    19   ar
    23    19    20   ar
    24    20    21   ar
    25    13    14   ar
    26    14    15   ar
    27     7     8    1
    28     8     9    1
    29    24    22    1
    30    30    25   ar
    31     9     4    1
    32    15    11   ar
    33    21    16   ar
    34     3    10    1
