@<TRIPOS>MOLECULE
*****
 12 13 0 0 0
SMALL
GASTEIGER

@<TRIPOS>ATOM
      1 C         -10.2481  -19.3314   24.9081 C.3     1  UNL1        0.0722
      2 C         -10.9449  -18.3260   24.0399 C.ar    1  UNL1        0.1247
      3 N         -12.3690  -18.3994   23.5746 N.ar    1  UNL1       -0.2290
      4 C         -12.6442  -17.1894   22.7318 C.ar    1  UNL1        0.1192
      5 C         -11.3901  -16.3683   22.6762 C.ar    1  UNL1        0.1019
      6 N         -10.3399  -17.0708   23.4847 N.ar    1  UNL1       -0.2907
      7 C          -8.9318  -16.6005   23.7001 C.ar    1  UNL1        0.0843
      8 C          -8.6172  -15.6690   24.8328 C.ar    1  UNL1        0.0207
      9 C          -7.2092  -15.1987   25.0481 C.ar    1  UNL1        0.0222
     10 C          -6.1158  -15.6601   24.1307 C.ar    1  UNL1        0.0990
     11 N          -6.4304  -16.5916   22.9980 N.ar    1  UNL1       -0.2408
     12 C          -7.8384  -17.0618   22.7826 C.ar    1  UNL1        0.1163
@<TRIPOS>BOND
     1     1     2    1
     2     2     3   ar
     3     3     4   ar
     4     4     5   ar
     5     5     6   ar
     6     6     7    1
     7     7     8   ar
     8     8     9   ar
     9     9    10   ar
    10    10    11   ar
    11    11    12   ar
    12     6     2   ar
    13    12     7   ar
@<TRIPOS>MOLECULE
*****
 12 13 0 0 0
SMALL
GASTEIGER

@<TRIPOS>ATOM
      1 C          -7.6924  -18.4687   21.8641 C.3     1  UNL1        0.0722
      2 C          -7.5744  -17.2902   22.7845 C.ar    1  UNL1        0.1247
      3 N          -6.3165  -16.5322   23.0895 N.ar    1  UNL1       -0.2290
      4 C          -6.6582  -15.4363   24.0551 C.ar    1  UNL1        0.1192
      5 C          -8.1273  -15.5170   24.3468 C.ar    1  UNL1        0.1019
      6 N          -8.6936  -16.6628   23.5615 N.ar    1  UNL1       -0.2907
      7 C         -10.1274  -17.1036   23.5546 C.ar    1  UNL1        0.0843
      8 C         -11.1232  -16.4030   22.6786 C.ar    1  UNL1        0.0207
      9 C         -12.5569  -16.8439   22.6717 C.ar    1  UNL1        0.0222
     10 C         -12.9947  -17.9854   23.5407 C.ar    1  UNL1        0.0990
     11 N         -11.9989  -18.6861   24.4167 N.ar    1  UNL1       -0.2408
     12 C         -10.5652  -18.2452   24.4236 C.ar    1  UNL1        0.1163
@<TRIPOS>BOND
     1     1     2    1
     2     2     3   ar
     3     3     4   ar
     4     4     5   ar
     5     5     6   ar
     6     6     7    1
     7     7     8   ar
     8     8     9   ar
     9     9    10   ar
    10    10    11   ar
    11    11    12   ar
    12     6     2   ar
    13    12     7   ar
@<TRIPOS>MOLECULE
*****
 12 13 0 0 0
SMALL
GASTEIGER

@<TRIPOS>ATOM
      1 C          -7.8324  -15.7889   23.4098 C.3     1  UNL1        0.0722
      2 C          -7.5299  -17.1632   22.8905 C.ar    1  UNL1        0.1247
      3 N          -6.1777  -17.6786   22.4956 N.ar    1  UNL1       -0.2290
      4 C          -6.3385  -19.0974   22.0360 C.ar    1  UNL1        0.1192
      5 C          -7.7901  -19.4588   22.1468 C.ar    1  UNL1        0.1019
      6 N          -8.5264  -18.2635   22.6750 N.ar    1  UNL1       -0.2907
      7 C         -10.0005  -18.1825   22.9409 C.ar    1  UNL1        0.0843
      8 C         -10.9178  -17.5971   21.9085 C.ar    1  UNL1        0.0207
      9 C         -12.3917  -17.5162   22.1745 C.ar    1  UNL1        0.0222
     10 C         -12.9484  -18.0207   23.4727 C.ar    1  UNL1        0.0990
     11 N         -12.0312  -18.6062   24.5051 N.ar    1  UNL1       -0.2408
     12 C         -10.5572  -18.6871   24.2391 C.ar    1  UNL1        0.1163
@<TRIPOS>BOND
     1     1     2    1
     2     2     3   ar
     3     3     4   ar
     4     4     5   ar
     5     5     6   ar
     6     6     7    1
     7     7     8   ar
     8     8     9   ar
     9     9    10   ar
    10    10    11   ar
    11    11    12   ar
    12     6     2   ar
    13    12     7   ar
@<TRIPOS>MOLECULE
*****
 12 13 0 0 0
SMALL
GASTEIGER

@<TRIPOS>ATOM
      1 C          -9.2949  -19.6747   19.3389 C.3     1  UNL1        0.0722
      2 C          -8.3138  -19.2521   20.3920 C.ar    1  UNL1        0.1247
      3 N          -6.8488  -19.5732   20.4118 N.ar    1  UNL1       -0.2290
      4 C          -6.2550  -18.9538   21.6422 C.ar    1  UNL1        0.1192
      5 C          -7.3532  -18.2498   22.3827 C.ar    1  UNL1        0.1019
      6 N          -8.6256  -18.4342   21.6101 N.ar    1  UNL1       -0.2907
      7 C          -9.9732  -17.8952   21.9890 C.ar    1  UNL1        0.0843
      8 C         -10.9377  -18.7550   22.7508 C.ar    1  UNL1        0.0207
      9 C         -12.2852  -18.2160   23.1297 C.ar    1  UNL1        0.0222
     10 C         -12.6682  -16.8172   22.7468 C.ar    1  UNL1        0.0990
     11 N         -11.7037  -15.9574   21.9850 N.ar    1  UNL1       -0.2408
     12 C         -10.3562  -16.4964   21.6061 C.ar    1  UNL1        0.1163
@<TRIPOS>BOND
     1     1     2    1
     2     2     3   ar
     3     3     4   ar
     4     4     5   ar
     5     5     6   ar
     6     6     7    1
     7     7     8   ar
     8     8     9   ar
     9     9    10   ar
    10    10    11   ar
    11    11    12   ar
    12     6     2   ar
    13    12     7   ar
@<TRIPOS>MOLECULE
*****
 12 13 0 0 0
SMALL
GASTEIGER

@<TRIPOS>ATOM
      1 C         -13.7378   -4.9024   20.2481 C.3     1  UNL1        0.0722
      2 C         -12.8197   -3.8925   19.6259 C.ar    1  UNL1        0.1247
      3 N         -12.9555   -2.4016   19.7201 N.ar    1  UNL1       -0.2290
      4 C         -11.8244   -1.7837   18.9527 C.ar    1  UNL1        0.1192
      5 C         -10.9896   -2.8927   18.3842 C.ar    1  UNL1        0.1019
      6 N         -11.6047   -4.1960   18.8003 N.ar    1  UNL1       -0.2907
      7 C         -11.0944   -5.5629   18.4518 C.ar    1  UNL1        0.0843
      8 C          -9.8761   -6.1060   19.1378 C.ar    1  UNL1        0.0207
      9 C          -9.3659   -7.4728   18.7894 C.ar    1  UNL1        0.0222
     10 C         -10.0740   -8.2965   17.7549 C.ar    1  UNL1        0.0990
     11 N         -11.2923   -7.7534   17.0690 N.ar    1  UNL1       -0.2408
     12 C         -11.8026   -6.3866   17.4174 C.ar    1  UNL1        0.1163
@<TRIPOS>BOND
     1     1     2    1
     2     2     3   ar
     3     3     4   ar
     4     4     5   ar
     5     5     6   ar
     6     6     7    1
     7     7     8   ar
     8     8     9   ar
     9     9    10   ar
    10    10    11   ar
    11    11    12   ar
    12     6     2   ar
    13    12     7   ar
@<TRIPOS>MOLECULE
*****
 12 13 0 0 0
SMALL
GASTEIGER

@<TRIPOS>ATOM
      1 C         -11.6044  -16.2642   20.0934 C.3     1  UNL1        0.0722
      2 C         -11.8000  -17.0873   21.3321 C.ar    1  UNL1        0.1247
      3 N         -12.9798  -17.0228   22.2562 N.ar    1  UNL1       -0.2290
      4 C         -12.7592  -18.0149   23.3594 C.ar    1  UNL1        0.1192
      5 C         -11.4431  -18.6925   23.1171 C.ar    1  UNL1        0.1019
      6 N         -10.8503  -18.1192   21.8641 N.ar    1  UNL1       -0.2907
      7 C          -9.5381  -18.5094   21.2509 C.ar    1  UNL1        0.0843
      8 C          -8.2659  -18.3308   22.0250 C.ar    1  UNL1        0.0207
      9 C          -6.9538  -18.7210   21.4118 C.ar    1  UNL1        0.0222
     10 C          -6.9139  -19.2897   20.0243 C.ar    1  UNL1        0.0990
     11 N          -8.1862  -19.4682   19.2502 N.ar    1  UNL1       -0.2408
     12 C          -9.4983  -19.0781   19.8634 C.ar    1  UNL1        0.1163
@<TRIPOS>BOND
     1     1     2    1
     2     2     3   ar
     3     3     4   ar
     4     4     5   ar
     5     5     6   ar
     6     6     7    1
     7     7     8   ar
     8     8     9   ar
     9     9    10   ar
    10    10    11   ar
    11    11    12   ar
    12     6     2   ar
    13    12     7   ar
@<TRIPOS>MOLECULE
*****
 12 13 0 0 0
SMALL
GASTEIGER

@<TRIPOS>ATOM
      1 C         -13.2190   -7.1620   16.9251 C.3     1  UNL1        0.0722
      2 C         -11.8813   -7.1527   17.6037 C.ar    1  UNL1        0.1247
      3 N         -10.7502   -8.1006   17.3358 N.ar    1  UNL1       -0.2290
      4 C          -9.6096   -7.7276   18.2359 C.ar    1  UNL1        0.1192
      5 C         -10.0360   -6.5491   19.0601 C.ar    1  UNL1        0.1019
      6 N         -11.4400   -6.1938   18.6694 N.ar    1  UNL1       -0.2907
      7 C         -12.2588   -5.0758   19.2436 C.ar    1  UNL1        0.0843
      8 C         -13.4642   -5.3829   20.0819 C.ar    1  UNL1        0.0207
      9 C         -14.2830   -4.2649   20.6561 C.ar    1  UNL1        0.0222
     10 C         -13.8964   -2.8399   20.3920 C.ar    1  UNL1        0.0990
     11 N         -12.6910   -2.5328   19.5537 N.ar    1  UNL1       -0.2408
     12 C         -11.8722   -3.6507   18.9796 C.ar    1  UNL1        0.1163
@<TRIPOS>BOND
     1     1     2    1
     2     2     3   ar
     3     3     4   ar
     4     4     5   ar
     5     5     6   ar
     6     6     7    1
     7     7     8   ar
     8     8     9   ar
     9     9    10   ar
    10    10    11   ar
    11    11    12   ar
    12     6     2   ar
    13    12     7   ar
@<TRIPOS>MOLECULE
*****
 12 13 0 0 0
SMALL
GASTEIGER

@<TRIPOS>ATOM
      1 C         -13.7426   -3.2424   20.8171 C.3     1  UNL1        0.0722
      2 C         -13.3470   -2.5889   19.5262 C.ar    1  UNL1        0.1247
      3 N         -13.9066   -1.3098   18.9778 N.ar    1  UNL1       -0.2290
      4 C         -13.2278   -1.0300   17.6697 C.ar    1  UNL1        0.1192
      5 C         -12.2486   -2.1362   17.4098 C.ar    1  UNL1        0.1019
      6 N         -12.3223   -3.0996   18.5572 N.ar    1  UNL1       -0.2907
      7 C         -11.5132   -4.3536   18.7088 C.ar    1  UNL1        0.0843
      8 C         -12.1631   -5.6926   18.5223 C.ar    1  UNL1        0.0207
      9 C         -11.3540   -6.9465   18.6739 C.ar    1  UNL1        0.0222
     10 C          -9.8951   -6.8615   19.0121 C.ar    1  UNL1        0.0990
     11 N          -9.2453   -5.5225   19.1986 N.ar    1  UNL1       -0.2408
     12 C         -10.0543   -4.2686   19.0469 C.ar    1  UNL1        0.1163
@<TRIPOS>BOND
     1     1     2    1
     2     2     3   ar
     3     3     4   ar
     4     4     5   ar
     5     5     6   ar
     6     6     7    1
     7     7     8   ar
     8     8     9   ar
     9     9    10   ar
    10    10    11   ar
    11    11    12   ar
    12     6     2   ar
    13    12     7   ar
@<TRIPOS>MOLECULE
*****
 12 13 0 0 0
SMALL
GASTEIGER

@<TRIPOS>ATOM
      1 C         -14.1610   -5.0178   20.0595 C.3     1  UNL1        0.0722
      2 C         -14.2287   -6.3136   19.3070 C.ar    1  UNL1        0.1247
      3 N         -15.3316   -7.3266   19.3931 N.ar    1  UNL1       -0.2290
      4 C         -14.9899   -8.4630   18.4755 C.ar    1  UNL1        0.1192
      5 C         -13.6758   -8.1523   17.8223 C.ar    1  UNL1        0.1019
      6 N         -13.2053   -6.8239   18.3362 N.ar    1  UNL1       -0.2907
      7 C         -11.9346   -6.1280   17.9475 C.ar    1  UNL1        0.0843
      8 C         -10.8644   -5.8933   18.9720 C.ar    1  UNL1        0.0207
      9 C          -9.5937   -5.1975   18.5833 C.ar    1  UNL1        0.0222
     10 C          -9.3932   -4.7363   17.1701 C.ar    1  UNL1        0.0990
     11 N         -10.4634   -4.9709   16.1456 N.ar    1  UNL1       -0.2408
     12 C         -11.7341   -5.6668   16.5343 C.ar    1  UNL1        0.1163
@<TRIPOS>BOND
     1     1     2    1
     2     2     3   ar
     3     3     4   ar
     4     4     5   ar
     5     5     6   ar
     6     6     7    1
     7     7     8   ar
     8     8     9   ar
     9     9    10   ar
    10    10    11   ar
    11    11    12   ar
    12     6     2   ar
    13    12     7   ar
