@<TRIPOS>MOLECULE
*****
 31 35 0 0 0
SMALL
GASTEIGER

@<TRIPOS>ATOM
      1 C          -0.0412    2.0132   19.4362 C.2     1  UNL1        0.3845
      2 N          -0.1069    2.8915   18.2220 N.2     1  UNL1        0.1565
      3 O          -1.1288    3.9867   18.1430 O.2     1  UNL1       -0.2793
      4 C          -2.0851    4.2036   19.2782 C.3     1  UNL1        0.2703
      5 C          -2.0194    3.3253   20.4924 C.3     1  UNL1        0.2250
      6 N          -0.9974    2.2301   20.5714 N.pl3   1  UNL1       -0.2108
      7 H          -0.9543    1.6536   21.3683 H       1  UNL1        0.2927
      8 C          -2.9755    3.5421   21.6276 C.ar    1  UNL1        0.0236
      9 C          -4.4095    3.1242   21.4905 C.ar    1  UNL1        0.0005
     10 C          -5.3658    3.3410   22.6257 C.ar    1  UNL1        0.0112
     11 C          -4.8880    3.9758   23.8980 C.ar    1  UNL1        0.0577
     12 CL         -5.8441    4.1927   25.0331 Cl      1  UNL1       -0.0822
     13 C          -3.4539    4.3938   24.0350 C.ar    1  UNL1        0.0112
     14 C          -2.4977    4.1770   22.8998 C.ar    1  UNL1        0.0005
     15 C           2.8826   -0.4684   18.4147 C.ar    1  UNL1        0.2418
     16 N           1.8606    0.6268   18.3358 N.ar    1  UNL1       -0.2028
     17 C           0.9807    0.9180   19.5152 C.ar    1  UNL1        0.1702
     18 C           1.1228    0.1140   20.7735 C.ar    1  UNL1        0.0285
     19 C           2.1447   -0.9811   20.8524 C.ar    1  UNL1        0.0241
     20 C           3.0246   -1.2723   19.6730 C.ar    1  UNL1        0.1189
     21 N           4.0465   -2.3675   19.7520 N.ar    1  UNL1       -0.2826
     22 C           3.8458   -3.7928   19.3299 C.ar    1  UNL1        0.1826
     23 N           5.1239   -4.5359   19.5839 N.ar    1  UNL1       -0.2280
     24 C           6.1145   -3.5697   20.1631 C.ar    1  UNL1        0.0786
     25 C           7.5235   -3.8879   20.5674 C.3     1  UNL1        0.0538
     26 C           5.4486   -2.2297   20.2669 C.ar    1  UNL1        0.0963
     27 C           5.1060   -0.1024   17.1215 C.3     1  UNL1        0.2543
     28 O           3.7624   -0.7595   17.2353 O.3     1  UNL1       -0.4551
     29 C          -3.1070    5.2988   19.1992 C.3     1  UNL1        0.0499
     30 C          -4.3920    5.8389   18.6452 C.3     1  UNL1        0.0040
     31 C          -3.5920    6.6555   19.6163 C.3     1  UNL1        0.0040
@<TRIPOS>BOND
     1    27    28    1
     2    28    15    1
     3    15    16   ar
     4    16    17   ar
     5    17     1    1
     6     1     2    2
     7     2     3    1
     8     3     4    1
     9     4    29    1
    10    29    30    1
    11    30    31    1
    12     4     5    1
    13     5     8    1
    14     8     9   ar
    15     9    10   ar
    16    10    11   ar
    17    11    12    1
    18    11    13   ar
    19    13    14   ar
    20     5     6    1
    21    17    18   ar
    22    18    19   ar
    23    19    20   ar
    24    20    21    1
    25    21    22   ar
    26    22    23   ar
    27    23    24   ar
    28    24    25    1
    29    24    26   ar
    30    20    15   ar
    31    26    21   ar
    32     6     1    1
    33    31    29    1
    34    14     8   ar
    35     6     7    1
@<TRIPOS>MOLECULE
*****
 31 35 0 0 0
SMALL
GASTEIGER

@<TRIPOS>ATOM
      1 C           5.9976   -3.9268   23.5305 C.2     1  UNL1        0.3845
      2 N           6.7752   -4.9796   22.7977 N.2     1  UNL1        0.1565
      3 O           7.6904   -5.8975   23.5525 O.2     1  UNL1       -0.2793
      4 C           7.8281   -5.7627   25.0401 C.3     1  UNL1        0.2703
      5 C           7.0505   -4.7099   25.7729 C.3     1  UNL1        0.2250
      6 N           6.1352   -3.7919   25.0180 N.pl3   1  UNL1       -0.2108
      7 H           5.6249   -3.1009   25.4989 H       1  UNL1        0.2927
      8 C           7.1881   -4.5750   27.2604 C.ar    1  UNL1        0.0236
      9 C           8.0977   -3.5313   27.8378 C.ar    1  UNL1        0.0005
     10 C           8.2353   -3.3964   29.3255 C.ar    1  UNL1        0.0112
     11 C           7.4634   -4.3051   30.2356 C.ar    1  UNL1        0.0577
     12 CL          7.6010   -4.1702   31.7231 Cl      1  UNL1       -0.0822
     13 C           6.5538   -5.3488   29.6581 C.ar    1  UNL1        0.0112
     14 C           6.4162   -5.4837   28.1705 C.ar    1  UNL1        0.0005
     15 C           4.0041   -2.2474   20.5379 C.ar    1  UNL1        0.2418
     16 N           4.9193   -3.1653   21.2927 N.ar    1  UNL1       -0.2028
     17 C           5.0823   -3.0089   22.7756 C.ar    1  UNL1        0.1702
     18 C           4.3302   -1.9345   23.5036 C.ar    1  UNL1        0.0285
     19 C           3.4150   -1.0167   22.7488 C.ar    1  UNL1        0.0241
     20 C           3.2520   -1.1731   21.2659 C.ar    1  UNL1        0.1189
     21 N           2.3367   -0.2552   20.5110 N.ar    1  UNL1       -0.2826
     22 C           0.9056   -0.5323   20.1571 C.ar    1  UNL1        0.1826
     23 N           0.3764    0.6527   19.4049 N.ar    1  UNL1       -0.2280
     24 C           1.4803    1.6622   19.2939 C.ar    1  UNL1        0.0786
     25 C           1.3888    2.9981   18.6180 C.3     1  UNL1        0.0538
     26 C           2.6919    1.1011   19.9775 C.ar    1  UNL1        0.0963
     27 C           4.8009   -1.7301   18.1197 C.3     1  UNL1        0.2543
     28 O           3.8411   -2.4039   19.0550 O.3     1  UNL1       -0.4551
     29 C           8.7433   -6.6806   25.7949 C.3     1  UNL1        0.0499
     30 C           9.5360   -7.9519   25.8693 C.3     1  UNL1        0.0040
     31 C           9.5359   -6.9992   27.0279 C.3     1  UNL1        0.0040
@<TRIPOS>BOND
     1    27    28    1
     2    28    15    1
     3    15    16   ar
     4    16    17   ar
     5    17     1    1
     6     1     2    2
     7     2     3    1
     8     3     4    1
     9     4    29    1
    10    29    30    1
    11    30    31    1
    12     4     5    1
    13     5     8    1
    14     8     9   ar
    15     9    10   ar
    16    10    11   ar
    17    11    12    1
    18    11    13   ar
    19    13    14   ar
    20     5     6    1
    21    17    18   ar
    22    18    19   ar
    23    19    20   ar
    24    20    21    1
    25    21    22   ar
    26    22    23   ar
    27    23    24   ar
    28    24    25    1
    29    24    26   ar
    30    20    15   ar
    31    26    21   ar
    32     6     1    1
    33    31    29    1
    34    14     8   ar
    35     6     7    1
@<TRIPOS>MOLECULE
*****
 31 35 0 0 0
SMALL
GASTEIGER

@<TRIPOS>ATOM
      1 C           5.9097   -2.7865   22.0980 C.2     1  UNL1        0.3845
      2 N           6.7170   -3.1002   20.8734 N.2     1  UNL1        0.1565
      3 O           6.3306   -2.5112   19.5491 O.2     1  UNL1       -0.2793
      4 C           5.1367   -1.6085   19.4495 C.3     1  UNL1        0.2703
      5 C           4.3294   -1.2947   20.6742 C.3     1  UNL1        0.2250
      6 N           4.7159   -1.8838   21.9985 N.pl3   1  UNL1       -0.2108
      7 H           4.1861   -1.6779   22.8023 H       1  UNL1        0.2927
      8 C           3.1357   -0.3920   20.5746 C.ar    1  UNL1        0.0236
      9 C           1.7756   -0.9722   20.3229 C.ar    1  UNL1        0.0005
     10 C           0.5817   -0.0695   20.2233 C.ar    1  UNL1        0.0112
     11 C           0.7481    1.4135   20.3754 C.ar    1  UNL1        0.0577
     12 CL         -0.4457    2.3162   20.2758 Cl      1  UNL1       -0.0822
     13 C           2.1083    1.9937   20.6271 C.ar    1  UNL1        0.0112
     14 C           3.3020    1.0910   20.7267 C.ar    1  UNL1        0.0005
     15 C           7.1981   -5.3714   24.8199 C.ar    1  UNL1        0.2418
     16 N           6.8116   -4.7823   23.4957 N.ar    1  UNL1       -0.2028
     17 C           6.2962   -3.3755   23.4224 C.ar    1  UNL1        0.1702
     18 C           6.1674   -2.5578   24.6732 C.ar    1  UNL1        0.0285
     19 C           6.5539   -3.1469   25.9974 C.ar    1  UNL1        0.0241
     20 C           7.0692   -4.5537   26.0708 C.ar    1  UNL1        0.1189
     21 N           7.4557   -5.1427   27.3951 N.ar    1  UNL1       -0.2826
     22 C           8.6648   -5.9885   27.6647 C.ar    1  UNL1        0.1826
     23 N           8.6573   -6.3579   29.1185 N.ar    1  UNL1       -0.2280
     24 C           7.4435   -5.7403   29.7474 C.ar    1  UNL1        0.0786
     25 C           7.0428   -5.8539   31.1884 C.3     1  UNL1        0.0538
     26 C           6.7009   -4.9893   28.6823 C.ar    1  UNL1        0.0963
     27 C           8.5962   -7.3113   23.8041 C.3     1  UNL1        0.2543
     28 O           7.7134   -6.7782   24.8933 O.3     1  UNL1       -0.4551
     29 C           4.7503   -1.0195   18.1252 C.3     1  UNL1        0.0499
     30 C           5.0449   -0.1013   16.9763 C.3     1  UNL1        0.0040
     31 C           3.7864   -0.9174   16.9805 C.3     1  UNL1        0.0040
@<TRIPOS>BOND
     1    27    28    1
     2    28    15    1
     3    15    16   ar
     4    16    17   ar
     5    17     1    1
     6     1     2    2
     7     2     3    1
     8     3     4    1
     9     4    29    1
    10    29    30    1
    11    30    31    1
    12     4     5    1
    13     5     8    1
    14     8     9   ar
    15     9    10   ar
    16    10    11   ar
    17    11    12    1
    18    11    13   ar
    19    13    14   ar
    20     5     6    1
    21    17    18   ar
    22    18    19   ar
    23    19    20   ar
    24    20    21    1
    25    21    22   ar
    26    22    23   ar
    27    23    24   ar
    28    24    25    1
    29    24    26   ar
    30    20    15   ar
    31    26    21   ar
    32     6     1    1
    33    31    29    1
    34    14     8   ar
    35     6     7    1
@<TRIPOS>MOLECULE
*****
 31 35 0 0 0
SMALL
GASTEIGER

@<TRIPOS>ATOM
      1 C           7.5183   -5.0130   23.6180 C.2     1  UNL1        0.3845
      2 N           7.8564   -6.4151   23.2062 N.2     1  UNL1        0.1565
      3 O           8.1948   -7.4414   24.2464 O.2     1  UNL1       -0.2793
      4 C           8.1952   -7.0656   25.6986 C.3     1  UNL1        0.2703
      5 C           7.8571   -5.6634   26.1105 C.3     1  UNL1        0.2250
      6 N           7.5186   -4.6371   25.0701 N.pl3   1  UNL1       -0.2108
      7 H           7.2967   -3.7168   25.3405 H       1  UNL1        0.2927
      8 C           7.8574   -5.2875   27.5626 C.ar    1  UNL1        0.0236
      9 C           6.5865   -5.3592   28.3561 C.ar    1  UNL1        0.0005
     10 C           6.5868   -4.9833   29.8083 C.ar    1  UNL1        0.0112
     11 C           7.8580   -4.5358   30.4669 C.ar    1  UNL1        0.0577
     12 CL          7.8583   -4.1599   31.9190 Cl      1  UNL1       -0.0822
     13 C           9.1289   -4.4642   29.6733 C.ar    1  UNL1        0.0112
     14 C           9.1286   -4.8400   28.2212 C.ar    1  UNL1        0.0005
     15 C           6.0167   -3.3450   20.3449 C.ar    1  UNL1        0.2418
     16 N           6.3552   -4.3712   21.3852 N.ar    1  UNL1       -0.2028
     17 C           7.1798   -3.9867   22.5777 C.ar    1  UNL1        0.1702
     18 C           7.6660   -2.5758   22.7299 C.ar    1  UNL1        0.0285
     19 C           7.3276   -1.5496   21.6896 C.ar    1  UNL1        0.0241
     20 C           6.5029   -1.9342   20.4971 C.ar    1  UNL1        0.1189
     21 N           6.1645   -0.9079   19.4568 N.ar    1  UNL1       -0.2826
     22 C           4.9840    0.0172   19.4822 C.ar    1  UNL1        0.1826
     23 N           5.0371    0.8703   18.2495 N.ar    1  UNL1       -0.2280
     24 C           6.2504    0.4724   17.4622 C.ar    1  UNL1        0.0786
     25 C           6.6897    1.0687   16.1579 C.3     1  UNL1        0.0538
     26 C           6.9471   -0.6266   18.2084 C.ar    1  UNL1        0.0963
     27 C           3.6964   -3.7725   19.2571 C.3     1  UNL1        0.2543
     28 O           5.1921   -3.7296   19.1524 O.3     1  UNL1       -0.4551
     29 C           8.5336   -8.0918   26.7388 C.3     1  UNL1        0.0499
     30 C           8.1176   -9.2246   27.6297 C.3     1  UNL1        0.0040
     31 C           9.5358   -8.7367   27.6497 C.3     1  UNL1        0.0040
@<TRIPOS>BOND
     1    27    28    1
     2    28    15    1
     3    15    16   ar
     4    16    17   ar
     5    17     1    1
     6     1     2    2
     7     2     3    1
     8     3     4    1
     9     4    29    1
    10    29    30    1
    11    30    31    1
    12     4     5    1
    13     5     8    1
    14     8     9   ar
    15     9    10   ar
    16    10    11   ar
    17    11    12    1
    18    11    13   ar
    19    13    14   ar
    20     5     6    1
    21    17    18   ar
    22    18    19   ar
    23    19    20   ar
    24    20    21    1
    25    21    22   ar
    26    22    23   ar
    27    23    24   ar
    28    24    25    1
    29    24    26   ar
    30    20    15   ar
    31    26    21   ar
    32     6     1    1
    33    31    29    1
    34    14     8   ar
    35     6     7    1
@<TRIPOS>MOLECULE
*****
 31 35 0 0 0
SMALL
GASTEIGER

@<TRIPOS>ATOM
      1 C           5.5932   -3.5131   23.4112 C.2     1  UNL1        0.3845
      2 N           6.3128   -4.4829   22.5215 N.2     1  UNL1        0.1565
      3 O           7.3014   -5.4469   23.1074 O.2     1  UNL1       -0.2793
      4 C           7.5704   -5.4412   24.5831 C.3     1  UNL1        0.2703
      5 C           6.8508   -4.4714   25.4729 C.3     1  UNL1        0.2250
      6 N           5.8622   -3.5074   24.8869 N.pl3   1  UNL1       -0.2108
      7 H           5.3899   -2.8708   25.4709 H       1  UNL1        0.2927
      8 C           7.1198   -4.4656   26.9485 C.ar    1  UNL1        0.0236
      9 C           6.3667   -5.3967   27.8517 C.ar    1  UNL1        0.0005
     10 C           6.6356   -5.3910   29.3275 C.ar    1  UNL1        0.0112
     11 C           7.6577   -4.4541   29.8999 C.ar    1  UNL1        0.0577
     12 CL          7.9267   -4.4484   31.3755 Cl      1  UNL1       -0.0822
     13 C           8.4109   -3.5230   28.9966 C.ar    1  UNL1        0.0112
     14 C           8.1419   -3.5288   27.5209 C.ar    1  UNL1        0.0005
     15 C           2.9761   -0.5449   23.1104 C.ar    1  UNL1        0.2418
     16 N           3.9647   -1.5089   23.6963 N.ar    1  UNL1       -0.2028
     17 C           4.6046   -2.5491   22.8253 C.ar    1  UNL1        0.1702
     18 C           4.2560   -2.6252   21.3684 C.ar    1  UNL1        0.0285
     19 C           3.2674   -1.6611   20.7825 C.ar    1  UNL1        0.0241
     20 C           2.6275   -0.6210   21.6535 C.ar    1  UNL1        0.1189
     21 N           1.6388    0.3431   21.0675 N.ar    1  UNL1       -0.2826
     22 C           0.4087    0.8668   21.7476 C.ar    1  UNL1        0.1826
     23 N          -0.2836    1.8000   20.7990 N.ar    1  UNL1       -0.2280
     24 C           0.5187    1.8530   19.5326 C.ar    1  UNL1        0.0786
     25 C           0.1905    2.6641   18.3142 C.3     1  UNL1        0.0538
     26 C           1.7068    0.9526   19.6986 C.ar    1  UNL1        0.0963
     27 C           3.1520    1.2128   25.0155 C.3     1  UNL1        0.2543
     28 O           2.3362    0.4952   23.9814 O.3     1  UNL1       -0.4551
     29 C           8.5590   -6.4052   25.1690 C.3     1  UNL1        0.0499
     30 C           9.5325   -6.7712   26.2499 C.3     1  UNL1        0.0040
     31 C           9.2978   -7.7090   25.1030 C.3     1  UNL1        0.0040
@<TRIPOS>BOND
     1    27    28    1
     2    28    15    1
     3    15    16   ar
     4    16    17   ar
     5    17     1    1
     6     1     2    2
     7     2     3    1
     8     3     4    1
     9     4    29    1
    10    29    30    1
    11    30    31    1
    12     4     5    1
    13     5     8    1
    14     8     9   ar
    15     9    10   ar
    16    10    11   ar
    17    11    12    1
    18    11    13   ar
    19    13    14   ar
    20     5     6    1
    21    17    18   ar
    22    18    19   ar
    23    19    20   ar
    24    20    21    1
    25    21    22   ar
    26    22    23   ar
    27    23    24   ar
    28    24    25    1
    29    24    26   ar
    30    20    15   ar
    31    26    21   ar
    32     6     1    1
    33    31    29    1
    34    14     8   ar
    35     6     7    1
@<TRIPOS>MOLECULE
*****
 31 35 0 0 0
SMALL
GASTEIGER

@<TRIPOS>ATOM
      1 C           0.1458    1.9987   20.4332 C.2     1  UNL1        0.3845
      2 N           0.3233    2.4395   19.0105 N.2     1  UNL1        0.1565
      3 O           1.3968    1.8239   18.1629 O.2     1  UNL1       -0.2793
      4 C           2.2929    0.7672   18.7380 C.3     1  UNL1        0.2703
      5 C           2.1154    0.3264   20.1607 C.3     1  UNL1        0.2250
      6 N           1.0418    0.9421   21.0083 N.pl3   1  UNL1       -0.2108
      7 H           0.9252    0.6527   21.9421 H       1  UNL1        0.2927
      8 C           3.0114   -0.7302   20.7358 C.ar    1  UNL1        0.0236
      9 C           3.0515   -2.0968   20.1188 C.ar    1  UNL1        0.0005
     10 C           3.9475   -3.1534   20.6939 C.ar    1  UNL1        0.0112
     11 C           4.8034   -2.8434   21.8861 C.ar    1  UNL1        0.0577
     12 CL          5.6994   -3.9000   22.4612 Cl      1  UNL1       -0.0822
     13 C           4.7632   -1.4768   22.5032 C.ar    1  UNL1        0.0112
     14 C           3.8672   -0.4202   21.9281 C.ar    1  UNL1        0.0005
     15 C          -3.3747    3.4410   21.5629 C.ar    1  UNL1        0.2418
     16 N          -2.3011    2.8253   20.7154 N.ar    1  UNL1       -0.2028
     17 C          -0.9278    2.6144   21.2808 C.ar    1  UNL1        0.1702
     18 C          -0.6281    3.0192   22.6936 C.ar    1  UNL1        0.0285
     19 C          -1.7017    3.6349   23.5411 C.ar    1  UNL1        0.0241
     20 C          -3.0750    3.8458   22.9758 C.ar    1  UNL1        0.1189
     21 N          -4.1486    4.4616   23.8233 N.ar    1  UNL1       -0.2826
     22 C          -4.9732    3.7510   24.8554 C.ar    1  UNL1        0.1826
     23 N          -5.9202    4.7463   25.4575 N.ar    1  UNL1       -0.2280
     24 C          -5.6809    6.0720   24.7976 C.ar    1  UNL1        0.0786
     25 C          -6.4087    7.3493   25.0954 C.3     1  UNL1        0.0538
     26 C          -4.5859    5.8959   23.7877 C.ar    1  UNL1        0.0963
     27 C          -4.9799    3.5191   19.5216 C.3     1  UNL1        0.2543
     28 O          -4.7479    3.6519   20.9975 O.3     1  UNL1       -0.4551
     29 C           3.3664    0.1515   17.8904 C.3     1  UNL1        0.0499
     30 C           3.7767   -0.7728   16.7826 C.3     1  UNL1        0.0040
     31 C           4.8155    0.0094   17.5302 C.3     1  UNL1        0.0040
@<TRIPOS>BOND
     1    27    28    1
     2    28    15    1
     3    15    16   ar
     4    16    17   ar
     5    17     1    1
     6     1     2    2
     7     2     3    1
     8     3     4    1
     9     4    29    1
    10    29    30    1
    11    30    31    1
    12     4     5    1
    13     5     8    1
    14     8     9   ar
    15     9    10   ar
    16    10    11   ar
    17    11    12    1
    18    11    13   ar
    19    13    14   ar
    20     5     6    1
    21    17    18   ar
    22    18    19   ar
    23    19    20   ar
    24    20    21    1
    25    21    22   ar
    26    22    23   ar
    27    23    24   ar
    28    24    25    1
    29    24    26   ar
    30    20    15   ar
    31    26    21   ar
    32     6     1    1
    33    31    29    1
    34    14     8   ar
    35     6     7    1
@<TRIPOS>MOLECULE
*****
 31 35 0 0 0
SMALL
GASTEIGER

@<TRIPOS>ATOM
      1 C           5.9214   -2.5596   22.2655 C.2     1  UNL1        0.3845
      2 N           6.7298   -2.9075   21.0508 N.2     1  UNL1        0.1565
      3 O           6.3260   -2.3817   19.7053 O.2     1  UNL1       -0.2793
      4 C           5.1137   -1.5081   19.5744 C.3     1  UNL1        0.2703
      5 C           4.3052   -1.1602   20.7890 C.3     1  UNL1        0.2250
      6 N           4.7091   -1.6861   22.1346 N.pl3   1  UNL1       -0.2108
      7 H           4.1785   -1.4578   22.9318 H       1  UNL1        0.2927
      8 C           3.0929   -0.2867   20.6582 C.ar    1  UNL1        0.0236
      9 C           1.7484   -0.9024   20.4072 C.ar    1  UNL1        0.0005
     10 C           0.5360   -0.0288   20.2763 C.ar    1  UNL1        0.0112
     11 C           0.6683    1.4605   20.3965 C.ar    1  UNL1        0.0577
     12 CL         -0.5440    2.3341   20.2656 Cl      1  UNL1       -0.0822
     13 C           2.0129    2.0763   20.6475 C.ar    1  UNL1        0.0112
     14 C           3.2252    1.2027   20.7784 C.ar    1  UNL1        0.0005
     15 C           6.5648   -2.7544   26.1768 C.ar    1  UNL1        0.2418
     16 N           6.1609   -2.2287   24.8312 N.ar    1  UNL1       -0.2028
     17 C           6.3253   -3.0855   23.6110 C.ar    1  UNL1        0.1702
     18 C           6.8935   -4.4680   23.7363 C.ar    1  UNL1        0.0285
     19 C           7.2973   -4.9937   25.0818 C.ar    1  UNL1        0.0241
     20 C           7.1330   -4.1369   26.3020 C.ar    1  UNL1        0.1189
     21 N           7.5369   -4.6628   27.6476 N.ar    1  UNL1       -0.2826
     22 C           8.9283   -5.0328   28.0683 C.ar    1  UNL1        0.1826
     23 N           8.8716   -5.5096   29.4893 N.ar    1  UNL1       -0.2280
     24 C           7.4450   -5.4341   29.9470 C.ar    1  UNL1        0.0786
     25 C           6.9333   -5.8152   31.3045 C.3     1  UNL1        0.0538
     26 C           6.6202   -4.9108   28.8087 C.ar    1  UNL1        0.0963
     27 C           5.0325   -1.6483   27.9596 C.3     1  UNL1        0.2543
     28 O           6.4004   -1.8977   27.3970 O.3     1  UNL1       -0.4551
     29 C           4.7098   -0.9823   18.2289 C.3     1  UNL1        0.0499
     30 C           4.9825   -0.1091   17.0401 C.3     1  UNL1        0.0040
     31 C           3.7378   -0.9448   17.0871 C.3     1  UNL1        0.0040
@<TRIPOS>BOND
     1    27    28    1
     2    28    15    1
     3    15    16   ar
     4    16    17   ar
     5    17     1    1
     6     1     2    2
     7     2     3    1
     8     3     4    1
     9     4    29    1
    10    29    30    1
    11    30    31    1
    12     4     5    1
    13     5     8    1
    14     8     9   ar
    15     9    10   ar
    16    10    11   ar
    17    11    12    1
    18    11    13   ar
    19    13    14   ar
    20     5     6    1
    21    17    18   ar
    22    18    19   ar
    23    19    20   ar
    24    20    21    1
    25    21    22   ar
    26    22    23   ar
    27    23    24   ar
    28    24    25    1
    29    24    26   ar
    30    20    15   ar
    31    26    21   ar
    32     6     1    1
    33    31    29    1
    34    14     8   ar
    35     6     7    1
@<TRIPOS>MOLECULE
*****
 31 35 0 0 0
SMALL
GASTEIGER

@<TRIPOS>ATOM
      1 C           4.6977   -2.0311   24.3733 C.2     1  UNL1        0.3845
      2 N           5.3480   -3.2891   23.8789 N.2     1  UNL1        0.1565
      3 O           5.2389   -3.6714   22.4326 O.2     1  UNL1       -0.2793
      4 C           4.4794   -2.7956   21.4806 C.3     1  UNL1        0.2703
      5 C           3.8292   -1.5375   21.9750 C.3     1  UNL1        0.2250
      6 N           3.9383   -1.1553   23.4214 N.pl3   1  UNL1       -0.2108
      7 H           3.5115   -0.3296   23.7459 H       1  UNL1        0.2927
      8 C           3.0698   -0.6617   21.0230 C.ar    1  UNL1        0.0236
      9 C           3.7746    0.4467   20.2988 C.ar    1  UNL1        0.0005
     10 C           3.0152    1.3225   19.3468 C.ar    1  UNL1        0.0112
     11 C           1.5510    1.0899   19.1190 C.ar    1  UNL1        0.0577
     12 CL          0.7916    1.9657   18.1671 Cl      1  UNL1       -0.0822
     13 C           0.8461   -0.0186   19.8433 C.ar    1  UNL1        0.0112
     14 C           1.6055   -0.8944   20.7953 C.ar    1  UNL1        0.0005
     15 C           3.6760   -0.9992   28.0668 C.ar    1  UNL1        0.2418
     16 N           3.5669   -1.3814   26.6204 N.ar    1  UNL1       -0.2028
     17 C           4.8068   -1.6488   25.8197 C.ar    1  UNL1        0.1702
     18 C           6.1559   -1.5340   26.4654 C.ar    1  UNL1        0.0285
     19 C           6.2649   -1.1517   27.9117 C.ar    1  UNL1        0.0241
     20 C           5.0250   -0.8844   28.7124 C.ar    1  UNL1        0.1189
     21 N           5.1342   -0.5021   30.1588 N.ar    1  UNL1       -0.2826
     22 C           5.4604    0.8631   30.6878 C.ar    1  UNL1        0.1826
     23 N           5.4641    0.7909   32.1861 N.ar    1  UNL1       -0.2280
     24 C           5.1401   -0.6189   32.5831 C.ar    1  UNL1        0.0786
     25 C           5.0379   -1.1383   33.9866 C.3     1  UNL1        0.0538
     26 C           4.9362   -1.4180   31.3302 C.ar    1  UNL1        0.0963
     27 C           1.8760    0.6577   28.9411 C.3     1  UNL1        0.2543
     28 O           2.4361   -0.7318   28.8674 O.3     1  UNL1       -0.4551
     29 C           4.3703   -3.1779   20.0342 C.3     1  UNL1        0.0499
     30 C           4.9425   -3.1924   18.6477 C.3     1  UNL1        0.0040
     31 C           3.6093   -3.8254   18.9156 C.3     1  UNL1        0.0040
@<TRIPOS>BOND
     1    27    28    1
     2    28    15    1
     3    15    16   ar
     4    16    17   ar
     5    17     1    1
     6     1     2    2
     7     2     3    1
     8     3     4    1
     9     4    29    1
    10    29    30    1
    11    30    31    1
    12     4     5    1
    13     5     8    1
    14     8     9   ar
    15     9    10   ar
    16    10    11   ar
    17    11    12    1
    18    11    13   ar
    19    13    14   ar
    20     5     6    1
    21    17    18   ar
    22    18    19   ar
    23    19    20   ar
    24    20    21    1
    25    21    22   ar
    26    22    23   ar
    27    23    24   ar
    28    24    25    1
    29    24    26   ar
    30    20    15   ar
    31    26    21   ar
    32     6     1    1
    33    31    29    1
    34    14     8   ar
    35     6     7    1
@<TRIPOS>MOLECULE
*****
 31 35 0 0 0
SMALL
GASTEIGER

@<TRIPOS>ATOM
      1 C           4.5445   -1.9799   24.3656 C.2     1  UNL1        0.3845
      2 N           5.1796   -3.2457   23.8714 N.2     1  UNL1        0.1565
      3 O           5.0714   -3.6236   22.4238 O.2     1  UNL1       -0.2793
      4 C           4.3280   -2.7355   21.4704 C.3     1  UNL1        0.2703
      5 C           3.6929   -1.4697   21.9647 C.3     1  UNL1        0.2250
      6 N           3.8012   -1.0919   23.4123 N.pl3   1  UNL1       -0.2108
      7 H           3.3844   -0.2611   23.7367 H       1  UNL1        0.2927
      8 C           2.9496   -0.5817   21.0114 C.ar    1  UNL1        0.0236
      9 C           1.4797   -0.7827   20.7902 C.ar    1  UNL1        0.0005
     10 C           0.7363    0.1053   19.8369 C.ar    1  UNL1        0.0112
     11 C           1.4629    1.1943   19.1047 C.ar    1  UNL1        0.0577
     12 CL          0.7195    2.0823   18.1513 Cl      1  UNL1       -0.0822
     13 C           2.9329    1.3953   19.3258 C.ar    1  UNL1        0.0112
     14 C           3.6762    0.5073   20.2791 C.ar    1  UNL1        0.0005
     15 C           5.8475   -1.8139   28.1106 C.ar    1  UNL1        0.2418
     16 N           5.7392   -2.1916   26.6630 N.ar    1  UNL1       -0.2028
     17 C           4.6528   -1.6020   25.8133 C.ar    1  UNL1        0.1702
     18 C           3.6746   -0.6347   26.4111 C.ar    1  UNL1        0.0285
     19 C           3.7829   -0.2569   27.8587 C.ar    1  UNL1        0.0241
     20 C           4.8694   -0.8465   28.7084 C.ar    1  UNL1        0.1189
     21 N           4.9776   -0.4687   30.1561 N.ar    1  UNL1       -0.2826
     22 C           5.6528    0.7555   30.6997 C.ar    1  UNL1        0.1826
     23 N           5.5221    0.7320   32.1938 N.ar    1  UNL1       -0.2280
     24 C           4.7662   -0.5067   32.5736 C.ar    1  UNL1        0.0786
     25 C           4.4094   -0.9291   33.9680 C.3     1  UNL1        0.0538
     26 C           4.4297   -1.2487   31.3142 C.ar    1  UNL1        0.0963
     27 C           6.7808   -3.7865   29.5205 C.3     1  UNL1        0.2543
     28 O           6.9339   -2.4034   28.9604 O.3     1  UNL1       -0.4551
     29 C           4.2198   -3.1134   20.0229 C.3     1  UNL1        0.0499
     30 C           3.6079   -3.9545   18.9421 C.3     1  UNL1        0.0040
     31 C           4.6443   -2.9268   18.5964 C.3     1  UNL1        0.0040
@<TRIPOS>BOND
     1    27    28    1
     2    28    15    1
     3    15    16   ar
     4    16    17   ar
     5    17     1    1
     6     1     2    2
     7     2     3    1
     8     3     4    1
     9     4    29    1
    10    29    30    1
    11    30    31    1
    12     4     5    1
    13     5     8    1
    14     8     9   ar
    15     9    10   ar
    16    10    11   ar
    17    11    12    1
    18    11    13   ar
    19    13    14   ar
    20     5     6    1
    21    17    18   ar
    22    18    19   ar
    23    19    20   ar
    24    20    21    1
    25    21    22   ar
    26    22    23   ar
    27    23    24   ar
    28    24    25    1
    29    24    26   ar
    30    20    15   ar
    31    26    21   ar
    32     6     1    1
    33    31    29    1
    34    14     8   ar
    35     6     7    1
