@<TRIPOS>MOLECULE
*****
 27 29 0 0 0
SMALL
GASTEIGER

@<TRIPOS>ATOM
      1 C          -7.4059  -19.2457   20.4192 C.ar    1  UNL1        0.0192
      2 C          -7.7823  -19.9270   19.1370 C.ar    1  UNL1        0.0015
      3 C          -9.2258  -20.0480   18.7476 C.ar    1  UNL1        0.0000
      4 C         -10.2929  -19.4876   19.6405 C.ar    1  UNL1       -0.0000
      5 C          -9.9166  -18.8063   20.9227 C.ar    1  UNL1        0.0000
      6 C          -8.4731  -18.6854   21.3121 C.ar    1  UNL1        0.0015
      7 C          -3.5537  -18.8523   20.6867 C.ar    1  UNL1        0.1947
      8 N          -4.8108  -18.9139   19.8708 N.ar    1  UNL1       -0.2228
      9 C          -5.9624  -19.1248   20.8087 C.ar    1  UNL1        0.1000
     10 C          -5.4169  -19.1935   22.2043 C.ar    1  UNL1        0.0930
     11 N          -3.9283  -19.0251   22.1290 N.ar    1  UNL1       -0.3325
     12 H          -3.3063  -19.0275   22.8921 H       1  UNL1        0.1676
     13 N          -1.9576  -18.3381   18.7023 N.am    1  UNL1       -0.3228
     14 C          -2.1657  -18.6528   20.1541 C.2     1  UNL1        0.2769
     15 O          -0.9860  -18.7681   21.0732 O.2     1  UNL1       -0.2671
     16 H          -1.0466  -18.2072   18.3527 H       1  UNL1        0.1453
     17 H          -2.7319  -18.2625   18.0991 H       1  UNL1        0.1453
     18 C         -10.9837  -18.2459   21.8156 C.ar    1  UNL1        0.0039
     19 C         -11.4556  -19.0303   23.0038 C.ar    1  UNL1       -0.0001
     20 C         -12.5227  -18.4699   23.8967 C.ar    1  UNL1       -0.0000
     21 C         -13.1180  -17.1251   23.6013 C.ar    1  UNL1       -0.0001
     22 C         -12.6461  -16.3408   22.4130 C.ar    1  UNL1        0.0039
     23 C         -11.5789  -16.9012   21.5201 C.ar    1  UNL1        0.0714
     24 C         -11.1070  -16.1167   20.3318 C.3     1  UNL1        0.4186
     25 F         -10.6351  -15.3323   19.1436 F       1  UNL1       -0.1659
     26 F         -12.1578  -16.7696   19.4835 F       1  UNL1       -0.1659
     27 F         -10.0563  -15.4638   21.1801 F       1  UNL1       -0.1659
@<TRIPOS>BOND
     1    13    14   am
     2    14    15    2
     3    14     7    1
     4     7     8   ar
     5     8     9   ar
     6     9     1    1
     7     1     2   ar
     8     2     3   ar
     9     3     4   ar
    10     4     5   ar
    11     5    18    1
    12    18    19   ar
    13    19    20   ar
    14    20    21   ar
    15    21    22   ar
    16    22    23   ar
    17    23    24    1
    18    24    25    1
    19    24    26    1
    20    24    27    1
    21     5     6   ar
    22     9    10   ar
    23    10    11   ar
    24    11     7   ar
    25     6     1   ar
    26    23    18   ar
    27    13    16    1
    28    13    17    1
    29    11    12    1
@<TRIPOS>MOLECULE
*****
 27 29 0 0 0
SMALL
GASTEIGER

@<TRIPOS>ATOM
      1 C          -7.1435  -19.4046   20.2199 C.ar    1  UNL1        0.0192
      2 C          -7.5142  -20.2299   19.0234 C.ar    1  UNL1        0.0015
      3 C          -8.9547  -20.3811   18.6338 C.ar    1  UNL1        0.0000
      4 C         -10.0246  -19.7069   19.4406 C.ar    1  UNL1       -0.0000
      5 C          -9.6540  -18.8816   20.6370 C.ar    1  UNL1        0.0000
      6 C          -8.2134  -18.7305   21.0266 C.ar    1  UNL1        0.0015
      7 C          -3.3131  -18.8434   20.5012 C.ar    1  UNL1        0.1947
      8 N          -4.5764  -18.8777   19.6931 N.ar    1  UNL1       -0.2228
      9 C          -5.7029  -19.2534   20.6096 C.ar    1  UNL1        0.1000
     10 C          -5.1358  -19.4513   21.9841 C.ar    1  UNL1        0.0930
     11 N          -3.6589  -19.1979   21.9171 N.ar    1  UNL1       -0.3325
     12 H          -3.0274  -19.2544   22.6703 H       1  UNL1        0.1676
     13 N          -1.7552  -18.1501   18.5410 N.am    1  UNL1       -0.3228
     14 C          -1.9444  -18.5127   19.9842 C.2     1  UNL1        0.2769
     15 O          -0.7650  -18.5445   20.9104 O.2     1  UNL1       -0.2671
     16 H          -0.8569  -17.9331   18.2017 H       1  UNL1        0.1453
     17 H          -2.5293  -18.1292   17.9331 H       1  UNL1        0.1453
     18 C         -10.7239  -18.2075   21.4437 C.ar    1  UNL1        0.0039
     19 C         -11.4906  -17.0578   20.8606 C.ar    1  UNL1       -0.0001
     20 C         -12.5605  -16.3836   21.6674 C.ar    1  UNL1       -0.0000
     21 C         -12.8637  -16.8593   23.0573 C.ar    1  UNL1       -0.0001
     22 C         -12.0969  -18.0090   23.6404 C.ar    1  UNL1        0.0039
     23 C         -11.0270  -18.6831   22.8336 C.ar    1  UNL1        0.0714
     24 C         -10.2602  -19.8329   23.4168 C.3     1  UNL1        0.4186
     25 F          -9.4935  -20.9827   24.0000 F       1  UNL1       -0.1659
     26 F          -9.4072  -18.8718   24.1904 F       1  UNL1       -0.1659
     27 F         -11.1132  -20.7941   22.6433 F       1  UNL1       -0.1659
@<TRIPOS>BOND
     1    13    14   am
     2    14    15    2
     3    14     7    1
     4     7     8   ar
     5     8     9   ar
     6     9     1    1
     7     1     2   ar
     8     2     3   ar
     9     3     4   ar
    10     4     5   ar
    11     5    18    1
    12    18    19   ar
    13    19    20   ar
    14    20    21   ar
    15    21    22   ar
    16    22    23   ar
    17    23    24    1
    18    24    25    1
    19    24    26    1
    20    24    27    1
    21     5     6   ar
    22     9    10   ar
    23    10    11   ar
    24    11     7   ar
    25     6     1   ar
    26    23    18   ar
    27    13    16    1
    28    13    17    1
    29    11    12    1
@<TRIPOS>MOLECULE
*****
 27 29 0 0 0
SMALL
GASTEIGER

@<TRIPOS>ATOM
      1 C          -6.5362  -16.7491   23.5850 C.ar    1  UNL1        0.0192
      2 C          -6.5230  -15.8000   24.7465 C.ar    1  UNL1        0.0015
      3 C          -7.8100  -15.2266   25.2610 C.ar    1  UNL1        0.0000
      4 C          -9.1102  -15.6023   24.6141 C.ar    1  UNL1       -0.0000
      5 C          -9.1233  -16.5514   23.4526 C.ar    1  UNL1        0.0000
      6 C          -7.8363  -17.1248   22.9381 C.ar    1  UNL1        0.0015
      7 C          -3.6527  -18.7220   21.8941 C.ar    1  UNL1        0.1947
      8 N          -5.1140  -18.4961   22.1459 N.ar    1  UNL1       -0.2228
      9 C          -5.2491  -17.3226   23.0704 C.ar    1  UNL1        0.1000
     10 C          -3.8713  -16.8232   23.3899 C.ar    1  UNL1        0.0930
     11 N          -2.8846  -17.6881   22.6630 N.ar    1  UNL1       -0.3325
     12 H          -1.9049  -17.5937   22.6863 H       1  UNL1        0.1676
     13 N          -3.8266  -20.3021   19.8391 N.am    1  UNL1       -0.3228
     14 C          -3.0630  -19.7936   21.0259 C.2     1  UNL1        0.2769
     15 O          -1.7097  -20.3567   21.3444 O.2     1  UNL1       -0.2671
     16 H          -3.4395  -21.0055   19.2692 H       1  UNL1        0.1453
     17 H          -4.7148  -19.9325   19.6300 H       1  UNL1        0.1453
     18 C         -10.4234  -16.9271   22.8057 C.ar    1  UNL1        0.0039
     19 C         -11.0799  -15.9862   21.8395 C.ar    1  UNL1       -0.0001
     20 C         -12.3800  -16.3619   21.1926 C.ar    1  UNL1       -0.0000
     21 C         -13.0237  -17.6785   21.5119 C.ar    1  UNL1       -0.0001
     22 C         -12.3673  -18.6195   22.4782 C.ar    1  UNL1        0.0039
     23 C         -11.0672  -18.2438   23.1251 C.ar    1  UNL1        0.0714
     24 C         -10.4108  -19.1848   24.0915 C.3     1  UNL1        0.4186
     25 F          -9.7544  -20.1257   25.0578 F       1  UNL1       -0.1659
     26 F          -9.7979  -19.9340   22.9456 F       1  UNL1       -0.1659
     27 F         -11.0237  -18.4355   25.2373 F       1  UNL1       -0.1659
@<TRIPOS>BOND
     1    13    14   am
     2    14    15    2
     3    14     7    1
     4     7     8   ar
     5     8     9   ar
     6     9     1    1
     7     1     2   ar
     8     2     3   ar
     9     3     4   ar
    10     4     5   ar
    11     5    18    1
    12    18    19   ar
    13    19    20   ar
    14    20    21   ar
    15    21    22   ar
    16    22    23   ar
    17    23    24    1
    18    24    25    1
    19    24    26    1
    20    24    27    1
    21     5     6   ar
    22     9    10   ar
    23    10    11   ar
    24    11     7   ar
    25     6     1   ar
    26    23    18   ar
    27    13    16    1
    28    13    17    1
    29    11    12    1
@<TRIPOS>MOLECULE
*****
 27 29 0 0 0
SMALL
GASTEIGER

@<TRIPOS>ATOM
      1 C          -7.0661  -17.6514   22.7444 C.ar    1  UNL1        0.0192
      2 C          -6.5849  -16.4434   23.4921 C.ar    1  UNL1        0.0015
      3 C          -7.5517  -15.6232   24.2936 C.ar    1  UNL1        0.0000
      4 C          -8.9997  -16.0111   24.3475 C.ar    1  UNL1       -0.0000
      5 C          -9.4809  -17.2191   23.5998 C.ar    1  UNL1        0.0000
      6 C          -8.5140  -18.0392   22.7982 C.ar    1  UNL1        0.0015
      7 C          -4.0425  -19.3253   20.9775 C.ar    1  UNL1        0.1947
      8 N          -4.6104  -18.2929   21.9057 N.ar    1  UNL1       -0.2228
      9 C          -6.0992  -18.4716   21.9427 C.ar    1  UNL1        0.1000
     10 C          -6.4515  -19.6146   21.0375 C.ar    1  UNL1        0.0930
     11 N          -5.1804  -20.1422   20.4409 N.ar    1  UNL1       -0.3325
     12 H          -5.1060  -20.8929   19.8083 H       1  UNL1        0.1676
     13 N          -1.9923  -18.7820   19.4770 N.am    1  UNL1       -0.3228
     14 C          -2.5915  -19.5088   20.6444 C.2     1  UNL1        0.2769
     15 O          -1.7397  -20.4189   21.4788 O.2     1  UNL1       -0.2671
     16 H          -1.0399  -18.9024   19.2584 H       1  UNL1        0.1453
     17 H          -2.5513  -18.1847   18.9294 H       1  UNL1        0.1453
     18 C         -10.9288  -17.6069   23.6537 C.ar    1  UNL1        0.0039
     19 C         -11.4389  -18.4459   24.7877 C.ar    1  UNL1       -0.0001
     20 C         -12.8869  -18.8337   24.8415 C.ar    1  UNL1       -0.0000
     21 C         -13.8248  -18.3826   23.7614 C.ar    1  UNL1       -0.0001
     22 C         -13.3148  -17.5437   22.6274 C.ar    1  UNL1        0.0039
     23 C         -11.8668  -17.1559   22.5735 C.ar    1  UNL1        0.0714
     24 C         -11.3568  -16.3169   21.4394 C.3     1  UNL1        0.4186
     25 F         -10.8468  -15.4779   20.3055 F       1  UNL1       -0.1659
     26 F         -11.0428  -17.5600   20.6609 F       1  UNL1       -0.1659
     27 F         -11.6707  -15.0738   22.2180 F       1  UNL1       -0.1659
@<TRIPOS>BOND
     1    13    14   am
     2    14    15    2
     3    14     7    1
     4     7     8   ar
     5     8     9   ar
     6     9     1    1
     7     1     2   ar
     8     2     3   ar
     9     3     4   ar
    10     4     5   ar
    11     5    18    1
    12    18    19   ar
    13    19    20   ar
    14    20    21   ar
    15    21    22   ar
    16    22    23   ar
    17    23    24    1
    18    24    25    1
    19    24    26    1
    20    24    27    1
    21     5     6   ar
    22     9    10   ar
    23    10    11   ar
    24    11     7   ar
    25     6     1   ar
    26    23    18   ar
    27    13    16    1
    28    13    17    1
    29    11    12    1
@<TRIPOS>MOLECULE
*****
 27 29 0 0 0
SMALL
GASTEIGER

@<TRIPOS>ATOM
      1 C          -5.8811  -17.1781   23.3626 C.ar    1  UNL1        0.0192
      2 C          -5.6189  -16.2045   24.4732 C.ar    1  UNL1        0.0015
      3 C          -6.7659  -15.5284   25.1641 C.ar    1  UNL1        0.0000
      4 C          -8.1749  -15.8258   24.7444 C.ar    1  UNL1       -0.0000
      5 C          -8.4370  -16.7994   23.6338 C.ar    1  UNL1        0.0000
      6 C          -7.2901  -17.4755   22.9429 C.ar    1  UNL1        0.0015
      7 C          -2.6526  -18.2270   21.4804 C.ar    1  UNL1        0.1947
      8 N          -3.5477  -17.1712   22.0585 N.ar    1  UNL1       -0.2228
      9 C          -4.7341  -17.8543   22.6716 C.ar    1  UNL1        0.1000
     10 C          -4.5722  -19.3322   22.4726 C.ar    1  UNL1        0.0930
     11 N          -3.2858  -19.5625   21.7364 N.ar    1  UNL1       -0.3325
     12 H          -2.9211  -20.4368   21.4682 H       1  UNL1        0.1676
     13 N          -0.7111  -16.6337   20.8153 N.am    1  UNL1       -0.3228
     14 C          -1.3526  -17.9890   20.7710 C.2     1  UNL1        0.2769
     15 O          -0.6940  -19.1062   20.0173 O.2     1  UNL1       -0.2671
     16 H           0.1421  -16.4775   20.3497 H       1  UNL1        0.1453
     17 H          -1.1434  -15.9005   21.3100 H       1  UNL1        0.1453
     18 C          -9.8461  -17.0968   23.2141 C.ar    1  UNL1        0.0039
     19 C         -10.7777  -15.9741   22.8657 C.ar    1  UNL1       -0.0001
     20 C         -12.1868  -16.2715   22.4461 C.ar    1  UNL1       -0.0000
     21 C         -12.6642  -17.6917   22.3748 C.ar    1  UNL1       -0.0001
     22 C         -11.7325  -18.8144   22.7232 C.ar    1  UNL1        0.0039
     23 C         -10.3235  -18.5170   23.1429 C.ar    1  UNL1        0.0714
     24 C          -9.3918  -19.6398   23.4913 C.3     1  UNL1        0.4186
     25 F          -8.4602  -20.7626   23.8396 F       1  UNL1       -0.1659
     26 F          -9.6616  -19.4114   24.9490 F       1  UNL1       -0.1659
     27 F          -9.1221  -19.8683   22.0336 F       1  UNL1       -0.1659
@<TRIPOS>BOND
     1    13    14   am
     2    14    15    2
     3    14     7    1
     4     7     8   ar
     5     8     9   ar
     6     9     1    1
     7     1     2   ar
     8     2     3   ar
     9     3     4   ar
    10     4     5   ar
    11     5    18    1
    12    18    19   ar
    13    19    20   ar
    14    20    21   ar
    15    21    22   ar
    16    22    23   ar
    17    23    24    1
    18    24    25    1
    19    24    26    1
    20    24    27    1
    21     5     6   ar
    22     9    10   ar
    23    10    11   ar
    24    11     7   ar
    25     6     1   ar
    26    23    18   ar
    27    13    16    1
    28    13    17    1
    29    11    12    1
@<TRIPOS>MOLECULE
*****
 27 29 0 0 0
SMALL
GASTEIGER

@<TRIPOS>ATOM
      1 C          -7.0161  -19.2053   20.8153 C.ar    1  UNL1        0.0192
      2 C          -7.0816  -20.6803   20.5509 C.ar    1  UNL1        0.0015
      3 C          -5.8365  -21.4327   20.1854 C.ar    1  UNL1        0.0000
      4 C          -4.5260  -20.7101   20.0841 C.ar    1  UNL1       -0.0000
      5 C          -4.4605  -19.2350   20.3485 C.ar    1  UNL1        0.0000
      6 C          -5.7055  -18.4826   20.7140 C.ar    1  UNL1        0.0015
      7 C         -10.4791  -17.4722   21.0801 C.ar    1  UNL1        0.1947
      8 N          -9.4815  -18.2975   20.3225 N.ar    1  UNL1       -0.2228
      9 C          -8.2612  -18.4528   21.1808 C.ar    1  UNL1        0.1000
     10 C          -8.5045  -17.7235   22.4688 C.ar    1  UNL1        0.0930
     11 N          -9.8752  -17.1175   22.4066 N.ar    1  UNL1       -0.3325
     12 H         -10.3034  -16.5812   23.1124 H       1  UNL1        0.1676
     13 N         -11.9801  -16.0446   19.5120 N.am    1  UNL1       -0.3228
     14 C         -11.8413  -17.0720   20.5961 C.2     1  UNL1        0.2769
     15 O         -13.0646  -17.6991   21.1963 O.2     1  UNL1       -0.2671
     16 H         -12.8742  -15.7819   19.1944 H       1  UNL1        0.1453
     17 H         -11.1772  -15.6330   19.1181 H       1  UNL1        0.1453
     18 C          -3.1499  -18.5124   20.2472 C.ar    1  UNL1        0.0039
     19 C          -2.4342  -18.4379   18.9311 C.ar    1  UNL1       -0.0001
     20 C          -1.1237  -17.7152   18.8299 C.ar    1  UNL1       -0.0000
     21 C          -0.5288  -17.0671   20.0448 C.ar    1  UNL1       -0.0001
     22 C          -1.2445  -17.1416   21.3609 C.ar    1  UNL1        0.0039
     23 C          -2.5550  -17.8642   21.4621 C.ar    1  UNL1        0.0714
     24 C          -3.2707  -17.9387   22.7783 C.3     1  UNL1        0.4186
     25 F          -3.9864  -18.0132   24.0945 F       1  UNL1       -0.1659
     26 F          -3.1054  -19.4296   22.7839 F       1  UNL1       -0.1659
     27 F          -3.4360  -16.4479   22.7728 F       1  UNL1       -0.1659
@<TRIPOS>BOND
     1    13    14   am
     2    14    15    2
     3    14     7    1
     4     7     8   ar
     5     8     9   ar
     6     9     1    1
     7     1     2   ar
     8     2     3   ar
     9     3     4   ar
    10     4     5   ar
    11     5    18    1
    12    18    19   ar
    13    19    20   ar
    14    20    21   ar
    15    21    22   ar
    16    22    23   ar
    17    23    24    1
    18    24    25    1
    19    24    26    1
    20    24    27    1
    21     5     6   ar
    22     9    10   ar
    23    10    11   ar
    24    11     7   ar
    25     6     1   ar
    26    23    18   ar
    27    13    16    1
    28    13    17    1
    29    11    12    1
@<TRIPOS>MOLECULE
*****
 27 29 0 0 0
SMALL
GASTEIGER

@<TRIPOS>ATOM
      1 C         -10.2839  -18.3420   21.5198 C.ar    1  UNL1        0.0192
      2 C         -10.3858  -18.9161   20.1378 C.ar    1  UNL1        0.0015
      3 C          -9.1437  -19.3179   19.3991 C.ar    1  UNL1        0.0000
      4 C          -7.7997  -19.1457   20.0424 C.ar    1  UNL1       -0.0000
      5 C          -7.6977  -18.5716   21.4244 C.ar    1  UNL1        0.0000
      6 C          -8.9398  -18.1698   22.1631 C.ar    1  UNL1        0.0015
      7 C         -13.4287  -17.9744   23.7649 C.ar    1  UNL1        0.1947
      8 N         -12.2421  -18.7599   23.2907 N.ar    1  UNL1       -0.2228
      9 C         -11.5260  -17.9401   22.2585 C.ar    1  UNL1        0.1000
     10 C         -12.2701  -16.6480   22.0949 C.ar    1  UNL1        0.0930
     11 N         -13.4460  -16.6692   23.0258 N.ar    1  UNL1       -0.3325
     12 H         -14.1122  -15.9523   23.1330 H       1  UNL1        0.1676
     13 N         -14.0545  -18.3975   26.2508 N.am    1  UNL1       -0.3228
     14 C         -14.4234  -18.4165   24.7969 C.2     1  UNL1        0.2769
     15 O         -15.7870  -18.8776   24.3752 O.2     1  UNL1       -0.2671
     16 H         -14.7073  -18.6877   26.9281 H       1  UNL1        0.1453
     17 H         -13.1595  -18.0949   26.5276 H       1  UNL1        0.1453
     18 C          -6.3537  -18.3994   22.0678 C.ar    1  UNL1        0.0039
     19 C          -6.0625  -17.1721   22.8796 C.ar    1  UNL1       -0.0001
     20 C          -4.7185  -16.9999   23.5229 C.ar    1  UNL1       -0.0000
     21 C          -3.6656  -18.0549   23.3544 C.ar    1  UNL1       -0.0001
     22 C          -3.9568  -19.2821   22.5426 C.ar    1  UNL1        0.0039
     23 C          -5.3008  -19.4543   21.8993 C.ar    1  UNL1        0.0714
     24 C          -5.5919  -20.6816   21.0874 C.3     1  UNL1        0.4186
     25 F          -5.8831  -21.9089   20.2756 F       1  UNL1       -0.1659
     26 F          -4.7024  -20.1693   19.9937 F       1  UNL1       -0.1659
     27 F          -6.4815  -21.1940   22.1811 F       1  UNL1       -0.1659
@<TRIPOS>BOND
     1    13    14   am
     2    14    15    2
     3    14     7    1
     4     7     8   ar
     5     8     9   ar
     6     9     1    1
     7     1     2   ar
     8     2     3   ar
     9     3     4   ar
    10     4     5   ar
    11     5    18    1
    12    18    19   ar
    13    19    20   ar
    14    20    21   ar
    15    21    22   ar
    16    22    23   ar
    17    23    24    1
    18    24    25    1
    19    24    26    1
    20    24    27    1
    21     5     6   ar
    22     9    10   ar
    23    10    11   ar
    24    11     7   ar
    25     6     1   ar
    26    23    18   ar
    27    13    16    1
    28    13    17    1
    29    11    12    1
@<TRIPOS>MOLECULE
*****
 27 29 0 0 0
SMALL
GASTEIGER

@<TRIPOS>ATOM
      1 C          -6.1412  -19.3801   20.2872 C.ar    1  UNL1        0.0192
      2 C          -6.7821  -19.5970   18.9485 C.ar    1  UNL1        0.0015
      3 C          -8.2770  -19.6209   18.8278 C.ar    1  UNL1        0.0000
      4 C          -9.1310  -19.4279   20.0458 C.ar    1  UNL1       -0.0000
      5 C          -8.4900  -19.2111   21.3845 C.ar    1  UNL1        0.0000
      6 C          -6.9951  -19.1872   21.5052 C.ar    1  UNL1        0.0015
      7 C          -2.3332  -18.6283   20.3025 C.ar    1  UNL1        0.1947
      8 N          -3.7473  -18.2240   20.0077 N.ar    1  UNL1       -0.2228
      9 C          -4.6462  -19.3562   20.4079 C.ar    1  UNL1        0.1000
     10 C          -3.7876  -20.4603   20.9500 C.ar    1  UNL1        0.0930
     11 N          -2.3582  -20.0104   20.8849 N.ar    1  UNL1       -0.3325
     12 H          -1.5740  -20.5309   21.1737 H       1  UNL1        0.1676
     13 N          -0.8747  -16.5524   20.8623 N.am    1  UNL1       -0.3228
     14 C          -1.1092  -17.7965   20.0578 C.2     1  UNL1        0.2769
     15 O          -0.1196  -18.2090   19.0087 O.2     1  UNL1       -0.2671
     16 H          -0.0713  -16.0065   20.7017 H       1  UNL1        0.1453
     17 H          -1.5242  -16.2817   21.5508 H       1  UNL1        0.1453
     18 C          -9.3440  -19.0181   22.6025 C.ar    1  UNL1        0.0039
     19 C          -9.8611  -20.2098   23.3524 C.ar    1  UNL1       -0.0001
     20 C         -10.7151  -20.0168   24.5704 C.ar    1  UNL1       -0.0000
     21 C         -11.0520  -18.6322   25.0384 C.ar    1  UNL1       -0.0001
     22 C         -10.5349  -17.4405   24.2885 C.ar    1  UNL1        0.0039
     23 C          -9.6809  -17.6334   23.0705 C.ar    1  UNL1        0.0714
     24 C          -9.1638  -16.4416   22.3206 C.3     1  UNL1        0.4186
     25 F          -8.6468  -15.2499   21.5707 F       1  UNL1       -0.1659
     26 F          -7.9518  -16.4117   23.2038 F       1  UNL1       -0.1659
     27 F         -10.3759  -16.4716   21.4374 F       1  UNL1       -0.1659
@<TRIPOS>BOND
     1    13    14   am
     2    14    15    2
     3    14     7    1
     4     7     8   ar
     5     8     9   ar
     6     9     1    1
     7     1     2   ar
     8     2     3   ar
     9     3     4   ar
    10     4     5   ar
    11     5    18    1
    12    18    19   ar
    13    19    20   ar
    14    20    21   ar
    15    21    22   ar
    16    22    23   ar
    17    23    24    1
    18    24    25    1
    19    24    26    1
    20    24    27    1
    21     5     6   ar
    22     9    10   ar
    23    10    11   ar
    24    11     7   ar
    25     6     1   ar
    26    23    18   ar
    27    13    16    1
    28    13    17    1
    29    11    12    1
@<TRIPOS>MOLECULE
*****
 27 29 0 0 0
SMALL
GASTEIGER

@<TRIPOS>ATOM
      1 C          -7.1555  -16.2343   23.5750 C.ar    1  UNL1        0.0192
      2 C          -6.8689  -15.8207   24.9880 C.ar    1  UNL1        0.0015
      3 C          -5.4640  -15.8636   25.5117 C.ar    1  UNL1        0.0000
      4 C          -4.3456  -16.3201   24.6223 C.ar    1  UNL1       -0.0000
      5 C          -4.6323  -16.7337   23.2093 C.ar    1  UNL1        0.0000
      6 C          -6.0372  -16.6908   22.6856 C.ar    1  UNL1        0.0015
      7 C         -10.4598  -16.0454   21.5473 C.ar    1  UNL1        0.1947
      8 N          -8.9614  -16.0367   21.6141 N.ar    1  UNL1       -0.2228
      9 C          -8.5605  -16.1915   23.0512 C.ar    1  UNL1        0.1000
     10 C          -9.8112  -16.2958   23.8727 C.ar    1  UNL1        0.0930
     11 N         -10.9851  -16.2056   22.9432 N.ar    1  UNL1       -0.3325
     12 H         -11.9337  -16.2446   23.2036 H       1  UNL1        0.1676
     13 N         -12.6394  -16.5630   20.2314 N.am    1  UNL1       -0.3228
     14 C         -11.2877  -15.9166   20.3031 C.2     1  UNL1        0.2769
     15 O         -10.7639  -15.1415   19.1306 O.2     1  UNL1       -0.2671
     16 H         -13.1828  -16.4785   19.4148 H       1  UNL1        0.1453
     17 H         -12.9832  -17.0717   21.0010 H       1  UNL1        0.1453
     18 C          -3.5139  -17.1901   22.3199 C.ar    1  UNL1        0.0039
     19 C          -2.3520  -16.2809   22.0493 C.ar    1  UNL1       -0.0001
     20 C          -1.2337  -16.7374   21.1599 C.ar    1  UNL1       -0.0000
     21 C          -1.2773  -18.1031   20.5411 C.ar    1  UNL1       -0.0001
     22 C          -2.4392  -19.0123   20.8117 C.ar    1  UNL1        0.0039
     23 C          -3.5575  -18.5558   21.7011 C.ar    1  UNL1        0.0714
     24 C          -4.7195  -19.4651   21.9717 C.3     1  UNL1        0.4186
     25 F          -5.8813  -20.3744   22.2423 F       1  UNL1       -0.1659
     26 F          -5.3187  -19.0935   20.6478 F       1  UNL1       -0.1659
     27 F          -4.1203  -19.8368   23.2956 F       1  UNL1       -0.1659
@<TRIPOS>BOND
     1    13    14   am
     2    14    15    2
     3    14     7    1
     4     7     8   ar
     5     8     9   ar
     6     9     1    1
     7     1     2   ar
     8     2     3   ar
     9     3     4   ar
    10     4     5   ar
    11     5    18    1
    12    18    19   ar
    13    19    20   ar
    14    20    21   ar
    15    21    22   ar
    16    22    23   ar
    17    23    24    1
    18    24    25    1
    19    24    26    1
    20    24    27    1
    21     5     6   ar
    22     9    10   ar
    23    10    11   ar
    24    11     7   ar
    25     6     1   ar
    26    23    18   ar
    27    13    16    1
    28    13    17    1
    29    11    12    1
