@<TRIPOS>MOLECULE
*****
 31 34 0 0 0
SMALL
GASTEIGER

@<TRIPOS>ATOM
      1 C           5.4044   -0.3507   35.8174 C.ar    1  UNL1        0.2437
      2 C           6.6944   -0.0635   35.1078 C.ar    1  UNL1        0.0608
      3 C           6.9518   -0.6518   33.7522 C.ar    1  UNL1        0.0258
      4 C           5.9191   -1.5273   33.1062 C.ar    1  UNL1        0.1060
      5 N           4.6292   -1.8145   33.8158 N.ar    1  UNL1       -0.1450
      6 N           4.3719   -1.2262   35.1715 N.ar    1  UNL1       -0.1103
      7 C           6.1765   -2.1156   31.7506 C.ar    1  UNL1        0.0532
      8 C           6.3120   -1.2176   30.5567 C.ar    1  UNL1        0.0061
      9 C           6.5694   -1.8058   29.2011 C.ar    1  UNL1        0.0194
     10 C           6.6912   -3.2922   29.0394 C.ar    1  UNL1        0.0859
     11 C           6.5558   -4.1901   30.2332 C.ar    1  UNL1        0.0558
     12 C           6.2984   -3.6018   31.5888 C.ar    1  UNL1        0.1366
     13 O           6.1629   -4.4998   32.7827 O.3     1  UNL1       -0.5054
     14 H           6.2390   -5.4283   32.6816 H       1  UNL1        0.2922
     15 N           6.9486   -3.8805   27.6838 N.ar    1  UNL1       -0.2280
     16 C           6.7827   -5.3215   27.3020 C.ar    1  UNL1        0.1020
     17 C           7.1486   -5.4627   25.8542 C.ar    1  UNL1        0.0431
     18 C           7.5407   -4.1088   25.3411 C.ar    1  UNL1        0.1221
     19 N           7.4171   -3.1310   26.4719 N.ar    1  UNL1       -0.1635
     20 O           5.1470    0.2376   37.1730 O.3     1  UNL1       -0.4629
     21 C           0.4013    2.0131   39.2298 C.3     1  UNL1        0.0159
     22 C           1.7035    1.5396   38.6553 C.3     1  UNL1        0.0454
     23 C           1.4441    0.4461   39.6489 C.3     1  UNL1        0.0159
     24 C           2.9156    0.6863   38.4259 C.3     1  UNL1        0.0580
     25 C           3.9349    1.0909   37.4025 C.3     1  UNL1        0.1702
     26 C           3.7420    2.3488   36.6085 C.3     1  UNL1        0.0580
     27 C           2.5299    3.2021   36.8379 C.3     1  UNL1        0.0454
     28 C           3.2102    3.9993   35.7648 C.3     1  UNL1        0.0159
     29 C           1.5541    4.3322   36.6947 C.3     1  UNL1        0.0159
     30 N           1.5107    2.7975   37.8614 N.3     1  UNL1       -0.3014
     31 H           0.6219    2.7022   37.3701 H       1  UNL1        0.1231
@<TRIPOS>BOND
     1    21    22    1
     2    22    23    1
     3    22    24    1
     4    24    25    1
     5    25    20    1
     6    20     1    1
     7     1     2   ar
     8     2     3   ar
     9     3     4   ar
    10     4     7    1
    11     7     8   ar
    12     8     9   ar
    13     9    10   ar
    14    10    15    1
    15    15    16   ar
    16    16    17   ar
    17    17    18   ar
    18    18    19   ar
    19    10    11   ar
    20    11    12   ar
    21    12    13    1
    22     4     5   ar
    23     5     6   ar
    24    25    26    1
    25    26    27    1
    26    27    28    1
    27    27    29    1
    28    27    30    1
    29    30    22    1
    30     6     1   ar
    31    12     7   ar
    32    19    15   ar
    33    13    14    1
    34    30    31    1
@<TRIPOS>MOLECULE
*****
 31 34 0 0 0
SMALL
GASTEIGER

@<TRIPOS>ATOM
      1 C           5.3698   -0.8536   34.5914 C.ar    1  UNL1        0.2437
      2 C           6.6699   -0.6490   33.8717 C.ar    1  UNL1        0.0608
      3 C           7.0195   -1.5110   32.6950 C.ar    1  UNL1        0.0258
      4 C           6.0689   -2.5776   32.2378 C.ar    1  UNL1        0.1060
      5 N           4.7688   -2.7821   32.9575 N.ar    1  UNL1       -0.1450
      6 N           4.4193   -1.9202   34.1343 N.ar    1  UNL1       -0.1103
      7 C           6.4184   -3.4395   31.0611 C.ar    1  UNL1        0.0532
      8 C           6.5077   -2.8370   29.6902 C.ar    1  UNL1        0.0061
      9 C           6.8572   -3.6990   28.5134 C.ar    1  UNL1        0.0194
     10 C           7.1175   -5.1634   28.7075 C.ar    1  UNL1        0.0859
     11 C           7.0283   -5.7659   30.0782 C.ar    1  UNL1        0.0558
     12 C           6.6787   -4.9039   31.2550 C.ar    1  UNL1        0.1366
     13 O           6.5895   -5.5065   32.6258 O.3     1  UNL1       -0.5054
     14 H           6.7521   -6.4213   32.7470 H       1  UNL1        0.2922
     15 N           7.4671   -6.0254   27.5307 N.ar    1  UNL1       -0.2280
     16 C           8.0842   -7.3913   27.5906 C.ar    1  UNL1        0.1020
     17 C           8.2594   -7.8829   26.1843 C.ar    1  UNL1        0.0431
     18 C           7.7506   -6.8208   25.2552 C.ar    1  UNL1        0.1221
     19 N           7.2609   -5.6729   26.0874 N.ar    1  UNL1       -0.1635
     20 O           5.0202    0.0083   35.7682 O.3     1  UNL1       -0.4629
     21 C           1.6269    4.1036   37.0407 C.3     1  UNL1        0.0159
     22 C           2.5530    2.9815   36.6754 C.3     1  UNL1        0.0454
     23 C           2.8086    3.0602   38.1514 C.3     1  UNL1        0.0159
     24 C           3.5678    1.8868   36.8227 C.3     1  UNL1        0.0580
     25 C           4.0053    1.1031   35.6209 C.3     1  UNL1        0.1702
     26 C           3.4281    1.4140   34.2718 C.3     1  UNL1        0.0580
     27 C           2.4132    2.5087   34.1245 C.3     1  UNL1        0.0454
     28 C           2.5100    2.0499   32.6997 C.3     1  UNL1        0.0159
     29 C           1.4320    3.4441   33.4824 C.3     1  UNL1        0.0159
     30 N           1.9757    3.2925   35.3263 N.3     1  UNL1       -0.3014
     31 H           0.9656    3.1734   35.4037 H       1  UNL1        0.1231
@<TRIPOS>BOND
     1    21    22    1
     2    22    23    1
     3    22    24    1
     4    24    25    1
     5    25    20    1
     6    20     1    1
     7     1     2   ar
     8     2     3   ar
     9     3     4   ar
    10     4     7    1
    11     7     8   ar
    12     8     9   ar
    13     9    10   ar
    14    10    15    1
    15    15    16   ar
    16    16    17   ar
    17    17    18   ar
    18    18    19   ar
    19    10    11   ar
    20    11    12   ar
    21    12    13    1
    22     4     5   ar
    23     5     6   ar
    24    25    26    1
    25    26    27    1
    26    27    28    1
    27    27    29    1
    28    27    30    1
    29    30    22    1
    30     6     1   ar
    31    12     7   ar
    32    19    15   ar
    33    13    14    1
    34    30    31    1
@<TRIPOS>MOLECULE
*****
 31 34 0 0 0
SMALL
GASTEIGER

@<TRIPOS>ATOM
      1 C           5.0986   -0.8860   34.6434 C.ar    1  UNL1        0.2437
      2 C           6.4280   -0.6118   34.0049 C.ar    1  UNL1        0.0608
      3 C           6.8708   -1.4168   32.8191 C.ar    1  UNL1        0.0258
      4 C           5.9841   -2.4959   32.2719 C.ar    1  UNL1        0.1060
      5 N           4.6548   -2.7700   32.9104 N.ar    1  UNL1       -0.1450
      6 N           4.2120   -1.9650   34.0961 N.ar    1  UNL1       -0.1103
      7 C           6.4269   -3.3009   31.0861 C.ar    1  UNL1        0.0532
      8 C           6.6348   -2.6310   29.7602 C.ar    1  UNL1        0.0061
      9 C           7.0775   -3.4360   28.5745 C.ar    1  UNL1        0.0194
     10 C           7.3124   -4.9109   28.7147 C.ar    1  UNL1        0.0859
     11 C           7.1045   -5.5807   30.0406 C.ar    1  UNL1        0.0558
     12 C           6.6617   -4.7757   31.2263 C.ar    1  UNL1        0.1366
     13 O           6.4538   -5.4457   32.5522 O.3     1  UNL1       -0.5054
     14 H           6.6005   -6.3669   32.6398 H       1  UNL1        0.2922
     15 N           7.7551   -5.7158   27.5289 N.ar    1  UNL1       -0.2280
     16 C           6.8866   -6.6142   26.6991 C.ar    1  UNL1        0.1020
     17 C           7.7388   -7.2174   25.6221 C.ar    1  UNL1        0.0431
     18 C           9.1341   -6.6918   25.7863 C.ar    1  UNL1        0.1221
     19 N           9.1441   -5.7639   26.9648 N.ar    1  UNL1       -0.1635
     20 O           4.6559   -0.0810   35.8291 O.3     1  UNL1       -0.4629
     21 C           1.4299    3.6063   33.3998 C.3     1  UNL1        0.0159
     22 C           2.3117    2.6023   34.0812 C.3     1  UNL1        0.0454
     23 C           2.4251    2.1283   32.6625 C.3     1  UNL1        0.0159
     24 C           3.2330    1.4337   34.2698 C.3     1  UNL1        0.0580
     25 C           3.7346    1.0877   35.6405 C.3     1  UNL1        0.1702
     26 C           3.3151    1.9104   36.8225 C.3     1  UNL1        0.0580
     27 C           2.3938    3.0790   36.6338 C.3     1  UNL1        0.0454
     28 C           2.6004    3.1472   38.1179 C.3     1  UNL1        0.0159
     29 C           1.5444    4.2713   36.9605 C.3     1  UNL1        0.0159
     30 N           1.8922    3.4250   35.2632 N.3     1  UNL1       -0.3014
     31 H           2.1872    4.3830   35.0747 H       1  UNL1        0.1231
@<TRIPOS>BOND
     1    21    22    1
     2    22    23    1
     3    22    24    1
     4    24    25    1
     5    25    20    1
     6    20     1    1
     7     1     2   ar
     8     2     3   ar
     9     3     4   ar
    10     4     7    1
    11     7     8   ar
    12     8     9   ar
    13     9    10   ar
    14    10    15    1
    15    15    16   ar
    16    16    17   ar
    17    17    18   ar
    18    18    19   ar
    19    10    11   ar
    20    11    12   ar
    21    12    13    1
    22     4     5   ar
    23     5     6   ar
    24    25    26    1
    25    26    27    1
    26    27    28    1
    27    27    29    1
    28    27    30    1
    29    30    22    1
    30     6     1   ar
    31    12     7   ar
    32    19    15   ar
    33    13    14    1
    34    30    31    1
@<TRIPOS>MOLECULE
*****
 31 34 0 0 0
SMALL
GASTEIGER

@<TRIPOS>ATOM
      1 C           5.3890   -0.3339   35.8222 C.ar    1  UNL1        0.2437
      2 C           6.6382    0.0190   35.0705 C.ar    1  UNL1        0.0608
      3 C           6.8907   -0.5732   33.7156 C.ar    1  UNL1        0.0258
      4 C           5.8940   -1.5183   33.1126 C.ar    1  UNL1        0.1060
      5 N           4.6449   -1.8711   33.8644 N.ar    1  UNL1       -0.1450
      6 N           4.3924   -1.2789   35.2192 N.ar    1  UNL1       -0.1103
      7 C           6.1465   -2.1105   31.7578 C.ar    1  UNL1        0.0532
      8 C           6.2423   -1.2186   30.5554 C.ar    1  UNL1        0.0061
      9 C           6.4949   -1.8108   29.2006 C.ar    1  UNL1        0.0194
     10 C           6.6516   -3.2949   29.0481 C.ar    1  UNL1        0.0859
     11 C           6.5557   -4.1866   30.2504 C.ar    1  UNL1        0.0558
     12 C           6.3032   -3.5944   31.6052 C.ar    1  UNL1        0.1366
     13 O           6.2074   -4.4863   32.8075 O.3     1  UNL1       -0.5054
     14 H           6.3053   -5.4133   32.7123 H       1  UNL1        0.2922
     15 N           6.9041   -3.8870   27.6933 N.ar    1  UNL1       -0.2280
     16 C           7.5705   -5.2020   27.4161 C.ar    1  UNL1        0.1020
     17 C           7.6128   -5.3959   25.9292 C.ar    1  UNL1        0.0431
     18 C           6.9725   -4.2008   25.2875 C.ar    1  UNL1        0.1221
     19 N           6.5345   -3.2683   26.3778 N.ar    1  UNL1       -0.1635
     20 O           5.1365    0.2583   37.1771 O.3     1  UNL1       -0.4629
     21 C           1.5360    4.3445   36.6831 C.3     1  UNL1        0.0159
     22 C           2.5140    3.2168   36.8309 C.3     1  UNL1        0.0454
     23 C           3.1830    4.0007   35.7409 C.3     1  UNL1        0.0159
     24 C           3.7243    2.3614   36.6001 C.3     1  UNL1        0.0580
     25 C           3.9261    1.1137   37.4079 C.3     1  UNL1        0.1702
     26 C           2.9175    0.7215   38.4466 C.3     1  UNL1        0.0580
     27 C           1.7072    1.5769   38.6774 C.3     1  UNL1        0.0454
     28 C           1.4585    0.4960   39.6872 C.3     1  UNL1        0.0159
     29 C           0.4105    2.0570   39.2589 C.3     1  UNL1        0.0159
     30 N           1.5055    2.8246   37.8695 N.3     1  UNL1       -0.3014
     31 H           1.4487    3.5982   38.5318 H       1  UNL1        0.1231
@<TRIPOS>BOND
     1    21    22    1
     2    22    23    1
     3    22    24    1
     4    24    25    1
     5    25    20    1
     6    20     1    1
     7     1     2   ar
     8     2     3   ar
     9     3     4   ar
    10     4     7    1
    11     7     8   ar
    12     8     9   ar
    13     9    10   ar
    14    10    15    1
    15    15    16   ar
    16    16    17   ar
    17    17    18   ar
    18    18    19   ar
    19    10    11   ar
    20    11    12   ar
    21    12    13    1
    22     4     5   ar
    23     5     6   ar
    24    25    26    1
    25    26    27    1
    26    27    28    1
    27    27    29    1
    28    27    30    1
    29    30    22    1
    30     6     1   ar
    31    12     7   ar
    32    19    15   ar
    33    13    14    1
    34    30    31    1
@<TRIPOS>MOLECULE
*****
 31 34 0 0 0
SMALL
GASTEIGER

@<TRIPOS>ATOM
      1 C           5.5157   -3.6682   20.6250 C.ar    1  UNL1        0.2437
      2 C           4.7118   -3.3030   21.8376 C.ar    1  UNL1        0.0608
      3 C           5.2243   -3.6396   23.2065 C.ar    1  UNL1        0.0258
      4 C           6.5408   -4.3414   23.3629 C.ar    1  UNL1        0.1060
      5 N           7.3447   -4.7066   22.1503 N.ar    1  UNL1       -0.1450
      6 N           6.8321   -4.3700   20.7813 N.ar    1  UNL1       -0.1103
      7 C           7.0534   -4.6780   24.7318 C.ar    1  UNL1        0.0532
      8 C           6.8869   -3.6995   25.8565 C.ar    1  UNL1        0.0061
      9 C           7.3995   -4.0361   27.2255 C.ar    1  UNL1        0.0194
     10 C           8.0786   -5.3512   27.4697 C.ar    1  UNL1        0.0859
     11 C           8.2450   -6.3296   26.3449 C.ar    1  UNL1        0.0558
     12 C           7.7325   -5.9930   24.9760 C.ar    1  UNL1        0.1366
     13 O           7.8990   -6.9714   23.8513 O.3     1  UNL1       -0.5054
     14 H           8.3232   -7.7929   24.0038 H       1  UNL1        0.2922
     15 N           8.5911   -5.6878   28.8386 N.ar    1  UNL1       -0.2280
     16 C           9.1418   -7.0139   29.2725 C.ar    1  UNL1        0.1020
     17 C           9.5340   -6.9030   30.7160 C.ar    1  UNL1        0.0431
     18 C           9.2258   -5.5084   31.1743 C.ar    1  UNL1        0.1221
     19 N           8.6431   -4.7574   30.0140 N.ar    1  UNL1       -0.1635
     20 O           5.0031   -3.3317   19.2560 O.3     1  UNL1       -0.4629
     21 C           2.3694    1.4221   18.6480 C.3     1  UNL1        0.0159
     22 C           3.1056    0.1250   18.8076 C.3     1  UNL1        0.0454
     23 C           1.7822   -0.2514   19.4052 C.3     1  UNL1        0.0159
     24 C           3.3822   -1.3028   19.1747 C.3     1  UNL1        0.0580
     25 C           4.7265   -1.9038   18.8889 C.3     1  UNL1        0.1702
     26 C           5.7942   -1.0769   18.2359 C.3     1  UNL1        0.0580
     27 C           5.5176    0.3509   17.8688 C.3     1  UNL1        0.0454
     28 C           6.9370    0.2314   17.3988 C.3     1  UNL1        0.0159
     29 C           5.7339    1.7372   17.3385 C.3     1  UNL1        0.0159
     30 N           4.1733    0.9518   18.1547 N.3     1  UNL1       -0.3014
     31 H           3.7959    1.2676   17.2612 H       1  UNL1        0.1231
@<TRIPOS>BOND
     1    21    22    1
     2    22    23    1
     3    22    24    1
     4    24    25    1
     5    25    20    1
     6    20     1    1
     7     1     2   ar
     8     2     3   ar
     9     3     4   ar
    10     4     7    1
    11     7     8   ar
    12     8     9   ar
    13     9    10   ar
    14    10    15    1
    15    15    16   ar
    16    16    17   ar
    17    17    18   ar
    18    18    19   ar
    19    10    11   ar
    20    11    12   ar
    21    12    13    1
    22     4     5   ar
    23     5     6   ar
    24    25    26    1
    25    26    27    1
    26    27    28    1
    27    27    29    1
    28    27    30    1
    29    30    22    1
    30     6     1   ar
    31    12     7   ar
    32    19    15   ar
    33    13    14    1
    34    30    31    1
@<TRIPOS>MOLECULE
*****
 31 34 0 0 0
SMALL
GASTEIGER

@<TRIPOS>ATOM
      1 C          -1.1884    3.0530   25.2868 C.ar    1  UNL1        0.2437
      2 C          -0.8262    3.5229   23.9091 C.ar    1  UNL1        0.0608
      3 C           0.0335    2.6673   23.0267 C.ar    1  UNL1        0.0258
      4 C           0.5312    1.3417   23.5220 C.ar    1  UNL1        0.1060
      5 N           0.1690    0.8718   24.8996 N.ar    1  UNL1       -0.1450
      6 N          -0.6907    1.7274   25.7821 N.ar    1  UNL1       -0.1103
      7 C           1.3909    0.4861   22.6395 C.ar    1  UNL1        0.0532
      8 C           1.1655    0.4742   21.1566 C.ar    1  UNL1        0.0061
      9 C           2.0253   -0.3814   20.2741 C.ar    1  UNL1        0.0194
     10 C           3.1105   -1.2252   20.8747 C.ar    1  UNL1        0.0859
     11 C           3.3358   -1.2132   22.3575 C.ar    1  UNL1        0.0558
     12 C           2.4761   -0.3576   23.2400 C.ar    1  UNL1        0.1366
     13 O           2.7015   -0.3457   24.7230 O.3     1  UNL1       -0.5054
     14 H           3.3794   -0.8728   25.0980 H       1  UNL1        0.2922
     15 N           3.9703   -2.0808   19.9922 N.ar    1  UNL1       -0.2280
     16 C           3.6880   -3.4990   19.5936 C.ar    1  UNL1        0.1020
     17 C           4.8066   -3.9632   18.7085 C.ar    1  UNL1        0.0431
     18 C           5.7801   -2.8318   18.5600 C.ar    1  UNL1        0.1221
     19 N           5.2632   -1.6684   19.3534 N.ar    1  UNL1       -0.1635
     20 O          -2.0481    3.9086   26.1693 O.3     1  UNL1       -0.4629
     21 C          -6.6732    4.0431   23.2545 C.3     1  UNL1        0.0159
     22 C          -5.4115    4.0167   24.0655 C.3     1  UNL1        0.0454
     23 C          -5.0162    3.1086   22.9389 C.3     1  UNL1        0.0159
     24 C          -4.0126    3.6749   24.4851 C.3     1  UNL1        0.0580
     25 C          -3.4472    4.2504   25.7497 C.3     1  UNL1        0.1702
     26 C          -4.2806    5.1677   26.5945 C.3     1  UNL1        0.0580
     27 C          -5.6795    5.5095   26.1749 C.3     1  UNL1        0.0454
     28 C          -5.5891    6.2989   27.4471 C.3     1  UNL1        0.0159
     29 C          -7.0471    6.1254   26.1971 C.3     1  UNL1        0.0159
     30 N          -6.2450    4.9340   24.9103 N.3     1  UNL1       -0.3014
     31 H          -6.5063    5.7228   24.3189 H       1  UNL1        0.1231
@<TRIPOS>BOND
     1    21    22    1
     2    22    23    1
     3    22    24    1
     4    24    25    1
     5    25    20    1
     6    20     1    1
     7     1     2   ar
     8     2     3   ar
     9     3     4   ar
    10     4     7    1
    11     7     8   ar
    12     8     9   ar
    13     9    10   ar
    14    10    15    1
    15    15    16   ar
    16    16    17   ar
    17    17    18   ar
    18    18    19   ar
    19    10    11   ar
    20    11    12   ar
    21    12    13    1
    22     4     5   ar
    23     5     6   ar
    24    25    26    1
    25    26    27    1
    26    27    28    1
    27    27    29    1
    28    27    30    1
    29    30    22    1
    30     6     1   ar
    31    12     7   ar
    32    19    15   ar
    33    13    14    1
    34    30    31    1
@<TRIPOS>MOLECULE
*****
 31 34 0 0 0
SMALL
GASTEIGER

@<TRIPOS>ATOM
      1 C           2.6779   -0.2025   23.0839 C.ar    1  UNL1        0.2437
      2 C           3.6661   -1.2118   23.5888 C.ar    1  UNL1        0.0608
      3 C           3.9395   -1.3230   25.0595 C.ar    1  UNL1        0.0258
      4 C           3.2246   -0.4249   26.0253 C.ar    1  UNL1        0.1060
      5 N           2.2365    0.5842   25.5203 N.ar    1  UNL1       -0.1450
      6 N           1.9631    0.6955   24.0496 N.ar    1  UNL1       -0.1103
      7 C           3.4980   -0.5362   27.4959 C.ar    1  UNL1        0.0532
      8 C           4.9058   -0.7025   27.9866 C.ar    1  UNL1        0.0061
      9 C           5.1791   -0.8137   29.4573 C.ar    1  UNL1        0.0194
     10 C           4.0448   -0.7586   30.4373 C.ar    1  UNL1        0.0859
     11 C           2.6371   -0.5923   29.9466 C.ar    1  UNL1        0.0558
     12 C           2.3638   -0.4811   28.4759 C.ar    1  UNL1        0.1366
     13 O           0.9560   -0.3147   27.9852 O.3     1  UNL1       -0.5054
     14 H           0.2475   -0.2803   28.5974 H       1  UNL1        0.2922
     15 N           4.3182   -0.8698   31.9080 N.ar    1  UNL1       -0.2280
     16 C           5.1134    0.0984   32.7327 C.ar    1  UNL1        0.1020
     17 C           5.1310   -0.4021   34.1466 C.ar    1  UNL1        0.0431
     18 C           4.3467   -1.6798   34.1957 C.ar    1  UNL1        0.1221
     19 N           3.8443   -1.9688   32.8122 N.ar    1  UNL1       -0.1635
     20 O           2.4045   -0.0913   21.6132 O.3     1  UNL1       -0.4629
     21 C           5.1232   -3.4239   18.2357 C.3     1  UNL1        0.0159
     22 C           4.3881   -2.4971   19.1581 C.3     1  UNL1        0.0454
     23 C           3.5864   -3.7497   19.3541 C.3     1  UNL1        0.0159
     24 C           3.3746   -2.0054   20.1486 C.3     1  UNL1        0.0580
     25 C           3.4180   -0.5830   20.6227 C.3     1  UNL1        0.1702
     26 C           4.4749    0.3478   20.1063 C.3     1  UNL1        0.0580
     27 C           5.4884   -0.1439   19.1159 C.3     1  UNL1        0.0454
     28 C           5.9381    1.2794   19.2638 C.3     1  UNL1        0.0159
     29 C           6.6580   -0.1413   18.1767 C.3     1  UNL1        0.0159
     30 N           5.4449   -1.5664   18.6417 N.3     1  UNL1       -0.3014
     31 H           6.3454   -1.9832   18.8782 H       1  UNL1        0.1231
@<TRIPOS>BOND
     1    21    22    1
     2    22    23    1
     3    22    24    1
     4    24    25    1
     5    25    20    1
     6    20     1    1
     7     1     2   ar
     8     2     3   ar
     9     3     4   ar
    10     4     7    1
    11     7     8   ar
    12     8     9   ar
    13     9    10   ar
    14    10    15    1
    15    15    16   ar
    16    16    17   ar
    17    17    18   ar
    18    18    19   ar
    19    10    11   ar
    20    11    12   ar
    21    12    13    1
    22     4     5   ar
    23     5     6   ar
    24    25    26    1
    25    26    27    1
    26    27    28    1
    27    27    29    1
    28    27    30    1
    29    30    22    1
    30     6     1   ar
    31    12     7   ar
    32    19    15   ar
    33    13    14    1
    34    30    31    1
@<TRIPOS>MOLECULE
*****
 31 34 0 0 0
SMALL
GASTEIGER

@<TRIPOS>ATOM
      1 C          -1.6091    4.2910   21.7354 C.ar    1  UNL1        0.2437
      2 C          -0.1923    4.3210   22.2271 C.ar    1  UNL1        0.0608
      3 C           0.7278    3.1732   21.9341 C.ar    1  UNL1        0.0258
      4 C           0.2311    1.9953   21.1492 C.ar    1  UNL1        0.1060
      5 N          -1.1857    1.9653   20.6575 N.ar    1  UNL1       -0.1450
      6 N          -2.1058    3.1132   20.9506 N.ar    1  UNL1       -0.1103
      7 C           1.1511    0.8474   20.8562 C.ar    1  UNL1        0.0532
      8 C           1.8876    0.1721   21.9750 C.ar    1  UNL1        0.0061
      9 C           2.8077   -0.9758   21.6819 C.ar    1  UNL1        0.0194
     10 C           2.9913   -1.4483   20.2701 C.ar    1  UNL1        0.0859
     11 C           2.2548   -0.7729   19.1514 C.ar    1  UNL1        0.0558
     12 C           1.3348    0.3749   19.4445 C.ar    1  UNL1        0.1366
     13 O           0.5983    1.0503   18.3257 O.3     1  UNL1       -0.5054
     14 H           0.7130    0.7552   17.4439 H       1  UNL1        0.2922
     15 N           3.9114   -2.5961   19.9770 N.ar    1  UNL1       -0.2280
     16 C           3.5809   -3.8014   19.1475 C.ar    1  UNL1        0.1020
     17 C           4.7888   -4.6905   19.1199 C.ar    1  UNL1        0.0431
     18 C           5.8657   -4.0346   19.9323 C.ar    1  UNL1        0.1221
     19 N           5.3235   -2.7403   20.4620 N.ar    1  UNL1       -0.1635
     20 O          -2.5292    5.4389   22.0284 O.3     1  UNL1       -0.4629
     21 C          -7.6017    4.5597   23.8726 C.3     1  UNL1        0.0159
     22 C          -6.2048    4.8023   23.3828 C.3     1  UNL1        0.0454
     23 C          -6.9145    4.6314   22.0723 C.3     1  UNL1        0.0159
     24 C          -5.0545    4.9856   22.4378 C.3     1  UNL1        0.0580
     25 C          -3.6796    5.2556   22.9734 C.3     1  UNL1        0.1702
     26 C          -3.4551    5.3422   24.4540 C.3     1  UNL1        0.0580
     27 C          -4.6055    5.1589   25.3989 C.3     1  UNL1        0.0454
     28 C          -3.4964    5.3934   26.3812 C.3     1  UNL1        0.0159
     29 C          -5.3707    5.0570   26.6850 C.3     1  UNL1        0.0159
     30 N          -5.9803    4.8889   24.8633 N.3     1  UNL1       -0.3014
     31 H          -6.5830    5.6356   25.2093 H       1  UNL1        0.1231
@<TRIPOS>BOND
     1    21    22    1
     2    22    23    1
     3    22    24    1
     4    24    25    1
     5    25    20    1
     6    20     1    1
     7     1     2   ar
     8     2     3   ar
     9     3     4   ar
    10     4     7    1
    11     7     8   ar
    12     8     9   ar
    13     9    10   ar
    14    10    15    1
    15    15    16   ar
    16    16    17   ar
    17    17    18   ar
    18    18    19   ar
    19    10    11   ar
    20    11    12   ar
    21    12    13    1
    22     4     5   ar
    23     5     6   ar
    24    25    26    1
    25    26    27    1
    26    27    28    1
    27    27    29    1
    28    27    30    1
    29    30    22    1
    30     6     1   ar
    31    12     7   ar
    32    19    15   ar
    33    13    14    1
    34    30    31    1
@<TRIPOS>MOLECULE
*****
 31 34 0 0 0
SMALL
GASTEIGER

@<TRIPOS>ATOM
      1 C           2.6840   -0.2411   23.0681 C.ar    1  UNL1        0.2437
      2 C           3.7568   -1.1848   23.5251 C.ar    1  UNL1        0.0608
      3 C           4.0793   -1.3032   24.9852 C.ar    1  UNL1        0.0258
      4 C           3.3292   -0.4779   25.9884 C.ar    1  UNL1        0.1060
      5 N           2.2565    0.4657   25.5314 N.ar    1  UNL1       -0.1450
      6 N           1.9339    0.5841   24.0712 N.ar    1  UNL1       -0.1103
      7 C           3.6517   -0.5963   27.4485 C.ar    1  UNL1        0.0532
      8 C           5.0715   -0.7967   27.8890 C.ar    1  UNL1        0.0061
      9 C           5.3941   -0.9151   29.3491 C.ar    1  UNL1        0.0194
     10 C           4.2969   -0.8331   30.3687 C.ar    1  UNL1        0.0859
     11 C           2.8772   -0.6326   29.9281 C.ar    1  UNL1        0.0558
     12 C           2.5546   -0.5142   28.4680 C.ar    1  UNL1        0.1366
     13 O           1.1348   -0.3138   28.0274 O.3     1  UNL1       -0.5054
     14 H           0.4494   -0.2625   28.6643 H       1  UNL1        0.2922
     15 N           4.6194   -0.9514   31.8288 N.ar    1  UNL1       -0.2280
     16 C           5.8906   -0.5073   32.4898 C.ar    1  UNL1        0.1020
     17 C           5.7843   -0.8161   33.9538 C.ar    1  UNL1        0.0431
     18 C           4.4474   -1.4511   34.1977 C.ar    1  UNL1        0.1221
     19 N           3.7275   -1.5348   32.8843 N.ar    1  UNL1       -0.1635
     20 O           2.3614   -0.1227   21.6080 O.3     1  UNL1       -0.4629
     21 C           6.4494   -0.0625   17.9762 C.3     1  UNL1        0.0159
     22 C           5.3258   -0.0956   18.9694 C.3     1  UNL1        0.0454
     23 C           5.7164    1.3495   19.0661 C.3     1  UNL1        0.0159
     24 C           4.3378    0.3732   19.9961 C.3     1  UNL1        0.0580
     25 C           3.3494   -0.5916   20.5812 C.3     1  UNL1        0.1702
     26 C           3.3490   -2.0251   20.1397 C.3     1  UNL1        0.0580
     27 C           4.3369   -2.4938   19.1129 C.3     1  UNL1        0.0454
     28 C           3.6032   -3.7760   19.3728 C.3     1  UNL1        0.0159
     29 C           5.0701   -3.4079   18.1765 C.3     1  UNL1        0.0159
     30 N           5.3253   -1.5291   18.5278 N.3     1  UNL1       -0.3014
     31 H           5.1726   -1.5265   17.5193 H       1  UNL1        0.1231
@<TRIPOS>BOND
     1    21    22    1
     2    22    23    1
     3    22    24    1
     4    24    25    1
     5    25    20    1
     6    20     1    1
     7     1     2   ar
     8     2     3   ar
     9     3     4   ar
    10     4     7    1
    11     7     8   ar
    12     8     9   ar
    13     9    10   ar
    14    10    15    1
    15    15    16   ar
    16    16    17   ar
    17    17    18   ar
    18    18    19   ar
    19    10    11   ar
    20    11    12   ar
    21    12    13    1
    22     4     5   ar
    23     5     6   ar
    24    25    26    1
    25    26    27    1
    26    27    28    1
    27    27    29    1
    28    27    30    1
    29    30    22    1
    30     6     1   ar
    31    12     7   ar
    32    19    15   ar
    33    13    14    1
    34    30    31    1
