@<TRIPOS>MOLECULE
*****
 19 20 0 0 0
SMALL
GASTEIGER

@<TRIPOS>ATOM
      1 C          -9.9861  -17.7964   23.0069 C.3     1  UNL1        0.0359
      2 C         -10.4711  -16.3817   22.8929 C.3     1  UNL1        0.0069
      3 C         -11.7438  -16.0821   22.1577 C.3     1  UNL1        0.0175
      4 C         -12.5314  -17.1973   21.5365 C.3     1  UNL1        0.0686
      5 N         -12.0463  -18.6121   21.6504 N.3     1  UNL1       -0.2972
      6 C         -10.7737  -18.9117   22.3856 C.3     1  UNL1        0.0726
      7 H         -11.9256  -18.9595   20.6991 H       1  UNL1        0.1233
      8 C          -8.8988  -17.0870   23.7584 C.ar    1  UNL1       -0.0205
      9 C          -7.5785  -16.8240   23.0969 C.ar    1  UNL1       -0.0033
     10 C          -6.4914  -16.1145   23.8484 C.ar    1  UNL1        0.0119
     11 C          -6.7245  -15.6681   25.2614 C.ar    1  UNL1        0.0682
     12 CL         -5.6373  -14.9587   26.0128 Cl      1  UNL1       -0.0814
     13 C          -8.0449  -15.9311   25.9228 C.ar    1  UNL1        0.0679
     14 CL         -8.2780  -15.4847   27.3357 Cl      1  UNL1       -0.0814
     15 C          -9.1320  -16.6405   25.1713 C.ar    1  UNL1        0.0080
     16 C          -9.1234  -18.9649   23.3818 C.3     1  UNL1        0.0371
     17 O         -10.0760  -20.1701   25.4770 O.3     1  UNL1       -0.3820
     18 C          -9.7375  -20.1777   24.0157 C.3     1  UNL1        0.1375
     19 H         -10.4622  -21.0250   25.7239 H       1  UNL1        0.2104
@<TRIPOS>BOND
     1    17    18    1
     2    18    16    1
     3     1    16    1
     4     1     8    1
     5     8     9   ar
     6     9    10   ar
     7    10    11   ar
     8    11    12    1
     9    11    13   ar
    10    13    14    1
    11    13    15   ar
    12     1     2    1
    13     2     3    1
    14     3     4    1
    15     4     5    1
    16     5     6    1
    17     6     1    1
    18    15     8   ar
    19    17    19    1
    20     5     7    1
@<TRIPOS>MOLECULE
*****
 19 20 0 0 0
SMALL
GASTEIGER

@<TRIPOS>ATOM
      1 C          -7.8393  -17.8154   22.9362 C.3     1  UNL1        0.0359
      2 C          -8.1332  -19.0868   22.1965 C.3     1  UNL1        0.0069
      3 C          -7.0158  -19.8616   21.5633 C.3     1  UNL1        0.0175
      4 C          -5.6043  -19.3650   21.6699 C.3     1  UNL1        0.0686
      5 N          -5.3104  -18.0937   22.4096 N.3     1  UNL1       -0.2972
      6 C          -6.4278  -17.3189   23.0428 C.3     1  UNL1        0.0726
      7 H          -4.8553  -17.4659   21.7468 H       1  UNL1        0.1233
      8 C          -9.3282  -17.8779   23.1072 C.ar    1  UNL1       -0.0205
      9 C          -9.9169  -18.5342   24.3207 C.ar    1  UNL1       -0.0033
     10 C         -11.4058  -18.5967   24.4917 C.ar    1  UNL1        0.0119
     11 C         -12.3060  -18.0029   23.4491 C.ar    1  UNL1        0.0682
     12 CL        -13.7950  -18.0655   23.6201 Cl      1  UNL1       -0.0814
     13 C         -11.7173  -17.3467   22.2355 C.ar    1  UNL1        0.0679
     14 CL        -12.6175  -16.7529   21.1929 Cl      1  UNL1       -0.0814
     15 C         -10.2284  -17.2842   22.0646 C.ar    1  UNL1        0.0080
     16 C          -8.0624  -16.5657   23.7353 C.3     1  UNL1        0.0371
     17 O          -7.5927  -14.0437   24.1458 O.3     1  UNL1       -0.3820
     18 C          -7.3575  -15.2972   23.3562 C.3     1  UNL1        0.1375
     19 H          -7.0644  -13.3216   23.7711 H       1  UNL1        0.2104
@<TRIPOS>BOND
     1    17    18    1
     2    18    16    1
     3     1    16    1
     4     1     8    1
     5     8     9   ar
     6     9    10   ar
     7    10    11   ar
     8    11    12    1
     9    11    13   ar
    10    13    14    1
    11    13    15   ar
    12     1     2    1
    13     2     3    1
    14     3     4    1
    15     4     5    1
    16     5     6    1
    17     6     1    1
    18    15     8   ar
    19    17    19    1
    20     5     7    1
@<TRIPOS>MOLECULE
*****
 19 20 0 0 0
SMALL
GASTEIGER

@<TRIPOS>ATOM
      1 C         -11.2560  -18.1666   21.8807 C.3     1  UNL1        0.0359
      2 C         -10.6971  -18.8553   23.0903 C.3     1  UNL1        0.0069
      3 C         -11.5342  -18.9959   24.3270 C.3     1  UNL1        0.0175
      4 C         -12.9302  -18.4479   24.3541 C.3     1  UNL1        0.0686
      5 N         -13.4891  -17.7592   23.1444 N.3     1  UNL1       -0.2972
      6 C         -12.6520  -17.6185   21.9077 C.3     1  UNL1        0.0726
      7 H         -13.7459  -16.8158   23.4351 H       1  UNL1        0.1233
      8 C          -9.8891  -18.5178   21.3722 C.ar    1  UNL1       -0.0205
      9 C          -9.7368  -19.2287   20.0602 C.ar    1  UNL1       -0.0033
     10 C          -8.3701  -19.5799   19.5517 C.ar    1  UNL1        0.0119
     11 C          -7.1556  -19.2202   20.3553 C.ar    1  UNL1        0.0682
     12 CL         -5.7888  -19.5715   19.8468 Cl      1  UNL1       -0.0814
     13 C          -7.3079  -18.5094   21.6673 C.ar    1  UNL1        0.0679
     14 CL         -6.0935  -18.1498   22.4709 Cl      1  UNL1       -0.0814
     15 C          -8.6747  -18.1582   22.1758 C.ar    1  UNL1        0.0080
     16 C         -11.3402  -17.5999   20.4944 C.3     1  UNL1        0.0371
     17 O         -12.4068  -15.7389   19.0284 O.3     1  UNL1       -0.3820
     18 C         -11.7212  -16.1631   20.2934 C.3     1  UNL1        0.1375
     19 H         -12.5815  -14.7852   19.0595 H       1  UNL1        0.2104
@<TRIPOS>BOND
     1    17    18    1
     2    18    16    1
     3     1    16    1
     4     1     8    1
     5     8     9   ar
     6     9    10   ar
     7    10    11   ar
     8    11    12    1
     9    11    13   ar
    10    13    14    1
    11    13    15   ar
    12     1     2    1
    13     2     3    1
    14     3     4    1
    15     4     5    1
    16     5     6    1
    17     6     1    1
    18    15     8   ar
    19    17    19    1
    20     5     7    1
@<TRIPOS>MOLECULE
*****
 19 20 0 0 0
SMALL
GASTEIGER

@<TRIPOS>ATOM
      1 C          -7.8493  -16.2443   24.3020 C.3     1  UNL1        0.0359
      2 C          -8.4174  -16.1341   25.6858 C.3     1  UNL1        0.0069
      3 C          -7.5721  -15.5980   26.8030 C.3     1  UNL1        0.0175
      4 C          -6.1587  -15.1721   26.5363 C.3     1  UNL1        0.0686
      5 N          -5.5907  -15.2824   25.1525 N.3     1  UNL1       -0.2972
      6 C          -6.4359  -15.8185   24.0353 C.3     1  UNL1        0.0726
      7 H          -4.7714  -15.8865   25.2178 H       1  UNL1        0.1233
      8 C          -9.2322  -16.7721   24.0587 C.ar    1  UNL1       -0.0205
      9 C          -9.7253  -17.9643   24.8239 C.ar    1  UNL1       -0.0033
     10 C         -11.1082  -18.4921   24.5805 C.ar    1  UNL1        0.0119
     11 C         -11.9978  -17.8276   23.5721 C.ar    1  UNL1        0.0682
     12 CL        -13.3807  -18.3554   23.3288 Cl      1  UNL1       -0.0814
     13 C         -11.5047  -16.6354   22.8069 C.ar    1  UNL1        0.0679
     14 CL        -12.3944  -15.9710   21.7985 Cl      1  UNL1       -0.0814
     15 C         -10.1219  -16.1077   23.0502 C.ar    1  UNL1        0.0080
     16 C          -7.7615  -16.5379   22.8336 C.3     1  UNL1        0.0371
     17 O          -7.0122  -18.0965   20.8947 O.3     1  UNL1       -0.3820
     18 C          -7.0196  -17.7502   22.3542 C.3     1  UNL1        0.1375
     19 H          -6.4909  -18.9028   20.7563 H       1  UNL1        0.2104
@<TRIPOS>BOND
     1    17    18    1
     2    18    16    1
     3     1    16    1
     4     1     8    1
     5     8     9   ar
     6     9    10   ar
     7    10    11   ar
     8    11    12    1
     9    11    13   ar
    10    13    14    1
    11    13    15   ar
    12     1     2    1
    13     2     3    1
    14     3     4    1
    15     4     5    1
    16     5     6    1
    17     6     1    1
    18    15     8   ar
    19    17    19    1
    20     5     7    1
@<TRIPOS>MOLECULE
*****
 19 20 0 0 0
SMALL
GASTEIGER

@<TRIPOS>ATOM
      1 C          -7.5156  -15.9400   24.7785 C.3     1  UNL1        0.0359
      2 C          -8.5771  -16.5172   25.6674 C.3     1  UNL1        0.0069
      3 C          -8.4651  -16.3786   27.1567 C.3     1  UNL1        0.0175
      4 C          -7.2917  -15.6627   27.7572 C.3     1  UNL1        0.0686
      5 N          -6.2302  -15.0855   26.8684 N.3     1  UNL1       -0.2972
      6 C          -6.3422  -15.2241   25.3790 C.3     1  UNL1        0.0726
      7 H          -5.3494  -15.5227   27.1394 H       1  UNL1        0.1233
      8 C          -8.4308  -16.5261   23.7445 C.ar    1  UNL1       -0.0205
      9 C          -7.9124  -17.5486   22.7773 C.ar    1  UNL1       -0.0033
     10 C          -8.8276  -18.1347   21.7434 C.ar    1  UNL1        0.0119
     11 C         -10.2611  -17.6982   21.6768 C.ar    1  UNL1        0.0682
     12 CL        -11.1763  -18.2843   20.6428 Cl      1  UNL1       -0.0814
     13 C         -10.7795  -16.6757   22.6440 C.ar    1  UNL1        0.0679
     14 CL        -12.2131  -16.2392   22.5774 Cl      1  UNL1       -0.0814
     15 C          -9.8643  -16.0896   23.6779 C.ar    1  UNL1        0.0080
     16 C          -6.7720  -15.5663   23.5305 C.3     1  UNL1        0.0371
     17 O          -4.6926  -14.3040   22.6179 O.3     1  UNL1       -0.3820
     18 C          -5.3039  -15.2650   23.5941 C.3     1  UNL1        0.1375
     19 H          -3.7425  -14.2231   22.7958 H       1  UNL1        0.2104
@<TRIPOS>BOND
     1    17    18    1
     2    18    16    1
     3     1    16    1
     4     1     8    1
     5     8     9   ar
     6     9    10   ar
     7    10    11   ar
     8    11    12    1
     9    11    13   ar
    10    13    14    1
    11    13    15   ar
    12     1     2    1
    13     2     3    1
    14     3     4    1
    15     4     5    1
    16     5     6    1
    17     6     1    1
    18    15     8   ar
    19    17    19    1
    20     5     7    1
@<TRIPOS>MOLECULE
*****
 19 20 0 0 0
SMALL
GASTEIGER

@<TRIPOS>ATOM
      1 C          -9.4958  -17.6705   22.7188 C.3     1  UNL1        0.0359
      2 C          -9.3130  -18.7121   23.7825 C.3     1  UNL1        0.0069
      3 C         -10.0582  -20.0110   23.6962 C.3     1  UNL1        0.0175
      4 C         -10.9863  -20.2682   22.5462 C.3     1  UNL1        0.0686
      5 N         -11.1691  -19.2266   21.4825 N.3     1  UNL1       -0.2972
      6 C         -10.4239  -17.9277   21.5687 C.3     1  UNL1        0.0726
      7 H         -12.1624  -18.9955   21.4643 H       1  UNL1        0.1233
      8 C          -8.5126  -16.9665   23.6064 C.ar    1  UNL1       -0.0205
      9 C          -7.1262  -16.6798   23.1109 C.ar    1  UNL1       -0.0033
     10 C          -6.1431  -15.9759   23.9985 C.ar    1  UNL1        0.0119
     11 C          -6.5464  -15.5587   25.3817 C.ar    1  UNL1        0.0682
     12 CL         -5.5632  -14.8547   26.2694 Cl      1  UNL1       -0.0814
     13 C          -7.9328  -15.8454   25.8773 C.ar    1  UNL1        0.0679
     14 CL         -8.3361  -15.4281   27.2605 Cl      1  UNL1       -0.0814
     15 C          -8.9159  -16.5493   24.9897 C.ar    1  UNL1        0.0080
     16 C          -9.3372  -16.3843   21.9633 C.3     1  UNL1        0.0371
     17 O         -10.2202  -15.0405   19.9226 O.3     1  UNL1       -0.3820
     18 C         -10.4838  -15.8361   21.1667 C.3     1  UNL1        0.1375
     19 H         -11.0634  -14.7631   19.5315 H       1  UNL1        0.2104
@<TRIPOS>BOND
     1    17    18    1
     2    18    16    1
     3     1    16    1
     4     1     8    1
     5     8     9   ar
     6     9    10   ar
     7    10    11   ar
     8    11    12    1
     9    11    13   ar
    10    13    14    1
    11    13    15   ar
    12     1     2    1
    13     2     3    1
    14     3     4    1
    15     4     5    1
    16     5     6    1
    17     6     1    1
    18    15     8   ar
    19    17    19    1
    20     5     7    1
@<TRIPOS>MOLECULE
*****
 19 20 0 0 0
SMALL
GASTEIGER

@<TRIPOS>ATOM
      1 C          -8.4344  -18.2196   22.8184 C.3     1  UNL1        0.0359
      2 C          -8.9198  -19.6328   22.6879 C.3     1  UNL1        0.0069
      3 C         -10.2482  -20.0257   23.2632 C.3     1  UNL1        0.0175
      4 C         -11.0912  -19.0052   23.9690 C.3     1  UNL1        0.0686
      5 N         -10.6058  -17.5920   24.0996 N.3     1  UNL1       -0.2972
      6 C          -9.2774  -17.1991   23.5243 C.3     1  UNL1        0.0726
      7 H         -10.5673  -17.3849   25.0976 H       1  UNL1        0.1233
      8 C          -7.2840  -18.8218   22.0673 C.ar    1  UNL1       -0.0205
      9 C          -7.5391  -19.6511   20.8437 C.ar    1  UNL1       -0.0033
     10 C          -6.3888  -20.2532   20.0927 C.ar    1  UNL1        0.0119
     11 C          -4.9834  -20.0261   20.5652 C.ar    1  UNL1        0.0682
     12 CL         -3.8330  -20.6283   19.8141 Cl      1  UNL1       -0.0814
     13 C          -4.7283  -19.1968   21.7888 C.ar    1  UNL1        0.0679
     14 CL         -3.3229  -18.9697   22.2614 Cl      1  UNL1       -0.0814
     15 C          -5.8786  -18.5947   22.5399 C.ar    1  UNL1        0.0080
     16 C          -7.5494  -17.0154   22.6881 C.3     1  UNL1        0.0371
     17 O          -7.8990  -14.7442   21.4760 O.3     1  UNL1       -0.3820
     18 C          -8.1520  -15.6424   22.6504 C.3     1  UNL1        0.1375
     19 H          -8.3578  -13.9001   21.6097 H       1  UNL1        0.2104
@<TRIPOS>BOND
     1    17    18    1
     2    18    16    1
     3     1    16    1
     4     1     8    1
     5     8     9   ar
     6     9    10   ar
     7    10    11   ar
     8    11    12    1
     9    11    13   ar
    10    13    14    1
    11    13    15   ar
    12     1     2    1
    13     2     3    1
    14     3     4    1
    15     4     5    1
    16     5     6    1
    17     6     1    1
    18    15     8   ar
    19    17    19    1
    20     5     7    1
@<TRIPOS>MOLECULE
*****
 19 20 0 0 0
SMALL
GASTEIGER

@<TRIPOS>ATOM
      1 C          -8.9545  -17.3479   23.4306 C.3     1  UNL1        0.0359
      2 C          -7.9165  -16.5918   22.6555 C.3     1  UNL1        0.0069
      3 C          -7.2397  -15.4028   23.2703 C.3     1  UNL1        0.0175
      4 C          -7.6009  -14.9698   24.6604 C.3     1  UNL1        0.0686
      5 N          -8.6389  -15.7259   25.4354 N.3     1  UNL1       -0.2972
      6 C          -9.3157  -16.9150   24.8206 C.3     1  UNL1        0.0726
      7 H          -9.3733  -15.0589   25.6723 H       1  UNL1        0.1233
      8 C          -8.9537  -18.1389   22.1560 C.ar    1  UNL1       -0.0205
      9 C         -10.1799  -18.1714   21.2927 C.ar    1  UNL1       -0.0033
     10 C         -10.1790  -18.9623   20.0182 C.ar    1  UNL1        0.0119
     11 C          -8.9520  -19.7208   19.6070 C.ar    1  UNL1        0.0682
     12 CL         -8.9512  -20.5118   18.3325 Cl      1  UNL1       -0.0814
     13 C          -7.7258  -19.6884   20.4704 C.ar    1  UNL1        0.0679
     14 CL         -6.4988  -20.4468   20.0592 Cl      1  UNL1       -0.0814
     15 C          -7.7266  -18.8974   21.7448 C.ar    1  UNL1        0.0080
     16 C          -9.9923  -18.3787   23.7630 C.3     1  UNL1        0.0371
     17 O          -9.9871  -20.5092   25.2500 O.3     1  UNL1       -0.3820
     18 C         -10.0093  -19.0149   25.1213 C.3     1  UNL1        0.1375
     19 H         -10.0021  -20.7531   26.1887 H       1  UNL1        0.2104
@<TRIPOS>BOND
     1    17    18    1
     2    18    16    1
     3     1    16    1
     4     1     8    1
     5     8     9   ar
     6     9    10   ar
     7    10    11   ar
     8    11    12    1
     9    11    13   ar
    10    13    14    1
    11    13    15   ar
    12     1     2    1
    13     2     3    1
    14     3     4    1
    15     4     5    1
    16     5     6    1
    17     6     1    1
    18    15     8   ar
    19    17    19    1
    20     5     7    1
@<TRIPOS>MOLECULE
*****
 19 20 0 0 0
SMALL
GASTEIGER

@<TRIPOS>ATOM
      1 C          -8.4615  -16.8547   24.0034 C.3     1  UNL1        0.0359
      2 C          -7.1999  -16.5212   23.2638 C.3     1  UNL1        0.0069
      3 C          -6.1830  -15.6119   23.8875 C.3     1  UNL1        0.0175
      4 C          -6.4276  -15.0363   25.2509 C.3     1  UNL1        0.0686
      5 N          -7.6892  -15.3699   25.9905 N.3     1  UNL1       -0.2972
      6 C          -8.7062  -16.2791   25.3668 C.3     1  UNL1        0.0726
      7 H          -8.1616  -14.4861   26.1805 H       1  UNL1        0.1233
      8 C          -8.6816  -17.6411   22.7450 C.ar    1  UNL1       -0.0205
      9 C          -7.6904  -18.6885   22.3322 C.ar    1  UNL1       -0.0033
     10 C          -7.9105  -19.4748   21.0739 C.ar    1  UNL1        0.0119
     11 C          -9.1218  -19.2137   20.2285 C.ar    1  UNL1        0.0682
     12 CL         -9.3418  -20.0000   18.9702 Cl      1  UNL1       -0.0814
     13 C         -10.1129  -18.1662   20.6414 C.ar    1  UNL1        0.0679
     14 CL        -11.3242  -17.9051   19.7960 Cl      1  UNL1       -0.0814
     15 C          -9.8928  -17.3800   21.8996 C.ar    1  UNL1        0.0080
     16 C          -9.7996  -17.4614   24.3060 C.3     1  UNL1        0.0371
     17 O         -11.0491  -19.5637   25.1830 O.3     1  UNL1       -0.3820
     18 C          -9.9049  -18.5985   25.2785 C.3     1  UNL1        0.1375
     19 H         -10.9671  -20.2325   25.8807 H       1  UNL1        0.2104
@<TRIPOS>BOND
     1    17    18    1
     2    18    16    1
     3     1    16    1
     4     1     8    1
     5     8     9   ar
     6     9    10   ar
     7    10    11   ar
     8    11    12    1
     9    11    13   ar
    10    13    14    1
    11    13    15   ar
    12     1     2    1
    13     2     3    1
    14     3     4    1
    15     4     5    1
    16     5     6    1
    17     6     1    1
    18    15     8   ar
    19    17    19    1
    20     5     7    1
