@<TRIPOS>MOLECULE
*****
 21 22 0 0 0
SMALL
GASTEIGER

@<TRIPOS>ATOM
      1 C          -7.3474  -16.8634   23.2247 C.2     1  UNL1        0.0620
      2 N          -7.7096  -17.9534   22.2601 N.2     1  UNL1       -0.2534
      3 C          -6.6393  -18.8360   21.6892 C.2     1  UNL1        0.0660
      4 C          -7.0015  -19.9260   20.7246 C.3     1  UNL1        0.0718
      5 C          -5.9312  -20.8085   20.1539 C.2     1  UNL1       -0.0198
      6 C          -4.4988  -20.6009   20.5477 C.2     1  UNL1       -0.0040
      7 C          -4.1367  -19.5108   21.5124 C.2     1  UNL1        0.0040
      8 C          -5.2069  -18.6284   22.0831 C.2     1  UNL1        0.0525
      9 C          -4.8448  -17.5382   23.0478 C.2     1  UNL1        0.1939
     10 O          -3.4124  -17.3306   23.4417 O.2     1  UNL1       -0.2868
     11 C          -5.9150  -16.6558   23.6186 C.2     1  UNL1        0.0309
     12 C          -5.5529  -15.5657   24.5833 C.3     1  UNL1        0.0356
     13 C          -8.4177  -15.9808   23.7955 C.3     1  UNL1        0.0712
     14 C         -10.7322  -16.1080   22.6222 C.2     1  UNL1       -0.0303
     15 C          -9.8473  -16.4351   23.7883 C.2     1  UNL1       -0.0244
     16 C         -12.1618  -16.5622   22.6150 C.3     1  UNL1        0.0257
     17 C         -12.5054  -17.9502   22.1619 C.3     1  UNL1        0.0047
     18 C         -11.5490  -18.7147   21.2955 C.3     1  UNL1        0.0003
     19 C         -10.8074  -19.8925   21.8549 C.3     1  UNL1        0.0000
     20 C          -9.3593  -20.4665   23.9342 C.3     1  UNL1        0.0000
     21 C         -10.6748  -20.0590   23.3397 C.3     1  UNL1        0.0000
@<TRIPOS>BOND
     1    20    21    1
     2    21    19    1
     3    19    18    1
     4    18    17    1
     5    17    16    1
     6    16    14    1
     7    14    15    2
     8    15    13    1
     9    13     1    1
    10     1     2    1
    11     2     3    2
    12     3     4    1
    13     4     5    1
    14     5     6    2
    15     6     7    1
    16     7     8    2
    17     8     9    1
    18     9    10    2
    19     9    11    1
    20    11    12    1
    21    11     1    2
    22     8     3    1
@<TRIPOS>MOLECULE
*****
 21 22 0 0 0
SMALL
GASTEIGER

@<TRIPOS>ATOM
      1 C          -7.2215  -16.8535   23.2365 C.2     1  UNL1        0.0620
      2 N          -6.9438  -17.7617   22.0755 N.2     1  UNL1       -0.2534
      3 C          -8.0800  -18.3138   21.2666 C.2     1  UNL1        0.0660
      4 C          -7.8023  -19.2220   20.1056 C.3     1  UNL1        0.0718
      5 C          -8.9385  -19.7740   19.2967 C.2     1  UNL1       -0.0198
      6 C         -10.3524  -19.4178   19.6488 C.2     1  UNL1       -0.0040
      7 C         -10.6301  -18.5096   20.8098 C.2     1  UNL1        0.0040
      8 C          -9.4939  -17.9576   21.6187 C.2     1  UNL1        0.0525
      9 C          -9.7716  -17.0493   22.7798 C.2     1  UNL1        0.1939
     10 O         -11.1855  -16.6931   23.1319 O.2     1  UNL1       -0.2868
     11 C          -8.6354  -16.4973   23.5886 C.2     1  UNL1        0.0309
     12 C          -8.9131  -15.5890   24.7497 C.3     1  UNL1        0.0356
     13 C          -6.0853  -16.3014   24.0455 C.3     1  UNL1        0.0712
     14 C          -3.9188  -17.5970   23.4309 C.2     1  UNL1       -0.0303
     15 C          -4.6927  -16.3134   23.4883 C.2     1  UNL1       -0.0244
     16 C          -2.5262  -17.6090   22.8738 C.3     1  UNL1        0.0257
     17 C          -2.1032  -16.5593   21.8893 C.3     1  UNL1        0.0047
     18 C          -1.4761  -16.9613   20.5873 C.3     1  UNL1        0.0003
     19 C          -2.3396  -17.4112   19.4462 C.3     1  UNL1        0.0000
     20 C          -4.1255  -19.2543   19.8504 C.3     1  UNL1        0.0000
     21 C          -2.7713  -18.8446   19.3522 C.3     1  UNL1        0.0000
@<TRIPOS>BOND
     1    20    21    1
     2    21    19    1
     3    19    18    1
     4    18    17    1
     5    17    16    1
     6    16    14    1
     7    14    15    2
     8    15    13    1
     9    13     1    1
    10     1     2    1
    11     2     3    2
    12     3     4    1
    13     4     5    1
    14     5     6    2
    15     6     7    1
    16     7     8    2
    17     8     9    1
    18     9    10    2
    19     9    11    1
    20    11    12    1
    21    11     1    2
    22     8     3    1
@<TRIPOS>MOLECULE
*****
 21 22 0 0 0
SMALL
GASTEIGER

@<TRIPOS>ATOM
      1 C          -8.6373  -18.2804   21.9797 C.2     1  UNL1        0.0620
      2 N          -7.2511  -18.1928   22.5459 N.2     1  UNL1       -0.2534
      3 C          -6.1133  -18.8836   21.8543 C.2     1  UNL1        0.0660
      4 C          -4.7271  -18.7960   22.4206 C.3     1  UNL1        0.0718
      5 C          -3.5894  -19.4869   21.7289 C.2     1  UNL1       -0.0198
      6 C          -3.8380  -20.2653   20.4711 C.2     1  UNL1       -0.0040
      7 C          -5.2242  -20.3529   19.9048 C.2     1  UNL1        0.0040
      8 C          -6.3618  -19.6620   20.5964 C.2     1  UNL1        0.0525
      9 C          -7.7481  -19.7496   20.0302 C.2     1  UNL1        0.1939
     10 O          -7.9967  -20.5280   18.7723 O.2     1  UNL1       -0.2868
     11 C          -8.8858  -19.0588   20.7218 C.2     1  UNL1        0.0309
     12 C         -10.2721  -19.1463   20.1555 C.3     1  UNL1        0.0356
     13 C          -9.7751  -17.5895   22.6713 C.3     1  UNL1        0.0712
     14 C          -8.9592  -16.5623   24.9139 C.2     1  UNL1       -0.0303
     15 C          -9.5122  -16.3883   23.5305 C.2     1  UNL1       -0.0244
     16 C          -8.6964  -15.3611   25.7730 C.3     1  UNL1        0.0257
     17 C          -8.1381  -15.5347   27.1544 C.3     1  UNL1        0.0047
     18 C          -6.6547  -15.6241   27.3580 C.3     1  UNL1        0.0003
     19 C          -5.7209  -15.0652   26.3256 C.3     1  UNL1        0.0000
     20 C          -5.2099  -15.3914   23.7993 C.3     1  UNL1        0.0000
     21 C          -5.2440  -15.9319   25.1981 C.3     1  UNL1        0.0000
@<TRIPOS>BOND
     1    20    21    1
     2    21    19    1
     3    19    18    1
     4    18    17    1
     5    17    16    1
     6    16    14    1
     7    14    15    2
     8    15    13    1
     9    13     1    1
    10     1     2    1
    11     2     3    2
    12     3     4    1
    13     4     5    1
    14     5     6    2
    15     6     7    1
    16     7     8    2
    17     8     9    1
    18     9    10    2
    19     9    11    1
    20    11    12    1
    21    11     1    2
    22     8     3    1
@<TRIPOS>MOLECULE
*****
 21 22 0 0 0
SMALL
GASTEIGER

@<TRIPOS>ATOM
      1 C          -8.3723  -18.5617   21.5724 C.2     1  UNL1        0.0620
      2 N          -7.3457  -17.5586   22.0080 N.2     1  UNL1       -0.2534
      3 C          -7.5101  -16.8349   23.3116 C.2     1  UNL1        0.0660
      4 C          -6.4835  -15.8318   23.7472 C.3     1  UNL1        0.0718
      5 C          -6.6479  -15.1082   25.0508 C.2     1  UNL1       -0.0198
      6 C          -7.8389  -15.3877   25.9188 C.2     1  UNL1       -0.0040
      7 C          -8.8654  -16.3909   25.4832 C.2     1  UNL1        0.0040
      8 C          -8.7011  -17.1145   24.1796 C.2     1  UNL1        0.0525
      9 C          -9.7277  -18.1177   23.7440 C.2     1  UNL1        0.1939
     10 O         -10.9186  -18.3972   24.6120 O.2     1  UNL1       -0.2868
     11 C          -9.5633  -18.8413   22.4404 C.2     1  UNL1        0.0309
     12 C         -10.5899  -19.8445   22.0048 C.3     1  UNL1        0.0356
     13 C          -8.2080  -19.2854   20.2688 C.3     1  UNL1        0.0712
     14 C          -5.9036  -20.4586   20.5207 C.2     1  UNL1       -0.0303
     15 C          -6.8346  -19.5778   19.7413 C.2     1  UNL1       -0.0244
     16 C          -4.5302  -20.7511   19.9932 C.3     1  UNL1        0.0257
     17 C          -3.3625  -19.9233   20.4419 C.3     1  UNL1        0.0047
     18 C          -3.1854  -19.6024   21.8964 C.3     1  UNL1        0.0003
     19 C          -3.7618  -18.3379   22.4610 C.3     1  UNL1        0.0000
     20 C          -2.1828  -16.4241   21.6903 C.3     1  UNL1        0.0000
     21 C          -2.8609  -17.1849   22.7909 C.3     1  UNL1        0.0000
@<TRIPOS>BOND
     1    20    21    1
     2    21    19    1
     3    19    18    1
     4    18    17    1
     5    17    16    1
     6    16    14    1
     7    14    15    2
     8    15    13    1
     9    13     1    1
    10     1     2    1
    11     2     3    2
    12     3     4    1
    13     4     5    1
    14     5     6    2
    15     6     7    1
    16     7     8    2
    17     8     9    1
    18     9    10    2
    19     9    11    1
    20    11    12    1
    21    11     1    2
    22     8     3    1
@<TRIPOS>MOLECULE
*****
 21 22 0 0 0
SMALL
GASTEIGER

@<TRIPOS>ATOM
      1 C          -7.7188  -19.0567   21.9500 C.2     1  UNL1        0.0620
      2 N          -9.1114  -19.3747   21.4925 N.2     1  UNL1       -0.2534
      3 C         -10.2230  -18.3979   21.7383 C.2     1  UNL1        0.0660
      4 C         -11.6157  -18.7158   21.2808 C.3     1  UNL1        0.0718
      5 C         -12.7272  -17.7390   21.5265 C.2     1  UNL1       -0.0198
      6 C         -12.4460  -16.4443   22.2298 C.2     1  UNL1       -0.0040
      7 C         -11.0533  -16.1263   22.6873 C.2     1  UNL1        0.0040
      8 C          -9.9418  -17.1031   22.4415 C.2     1  UNL1        0.0525
      9 C          -8.5491  -16.7852   22.8990 C.2     1  UNL1        0.1939
     10 O          -8.2679  -15.4905   23.6022 O.2     1  UNL1       -0.2868
     11 C          -7.4376  -17.7620   22.6532 C.2     1  UNL1        0.0309
     12 C          -6.0448  -17.4441   23.1107 C.3     1  UNL1        0.0356
     13 C          -6.6072  -20.0336   21.7042 C.3     1  UNL1        0.0712
     14 C          -4.3082  -19.5306   20.6035 C.2     1  UNL1       -0.0303
     15 C          -5.7548  -19.9064   20.4765 C.2     1  UNL1       -0.0244
     16 C          -3.4558  -19.4034   19.3758 C.3     1  UNL1        0.0257
     17 C          -2.8033  -18.0931   19.0483 C.3     1  UNL1        0.0047
     18 C          -1.3621  -17.8653   19.3962 C.3     1  UNL1        0.0003
     19 C          -0.9969  -16.9008   20.4856 C.3     1  UNL1        0.0000
     20 C          -2.3720  -17.3016   22.6531 C.3     1  UNL1        0.0000
     21 C          -2.0377  -16.4478   21.4661 C.3     1  UNL1        0.0000
@<TRIPOS>BOND
     1    20    21    1
     2    21    19    1
     3    19    18    1
     4    18    17    1
     5    17    16    1
     6    16    14    1
     7    14    15    2
     8    15    13    1
     9    13     1    1
    10     1     2    1
    11     2     3    2
    12     3     4    1
    13     4     5    1
    14     5     6    2
    15     6     7    1
    16     7     8    2
    17     8     9    1
    18     9    10    2
    19     9    11    1
    20    11    12    1
    21    11     1    2
    22     8     3    1
@<TRIPOS>MOLECULE
*****
 21 22 0 0 0
SMALL
GASTEIGER

@<TRIPOS>ATOM
      1 C          -5.7944  -16.4758   23.7518 C.2     1  UNL1        0.0620
      2 N          -6.5643  -17.1421   22.6502 N.2     1  UNL1       -0.2534
      3 C          -8.0640  -17.1457   22.6793 C.2     1  UNL1        0.0660
      4 C          -8.8339  -17.8119   21.5777 C.3     1  UNL1        0.0718
      5 C         -10.3336  -17.8155   21.6068 C.2     1  UNL1       -0.0198
      6 C         -11.0634  -17.1529   22.7374 C.2     1  UNL1       -0.0040
      7 C         -10.2935  -16.4866   23.8389 C.2     1  UNL1        0.0040
      8 C          -8.7939  -16.4830   23.8099 C.2     1  UNL1        0.0525
      9 C          -8.0239  -15.8168   24.9114 C.2     1  UNL1        0.1939
     10 O          -8.7538  -15.1542   26.0421 O.2     1  UNL1       -0.2868
     11 C          -6.5242  -15.8132   24.8824 C.2     1  UNL1        0.0309
     12 C          -5.7543  -15.1469   25.9839 C.3     1  UNL1        0.0356
     13 C          -4.2946  -16.4722   23.7227 C.3     1  UNL1        0.0712
     14 C          -2.5434  -17.3308   22.0064 C.2     1  UNL1       -0.0303
     15 C          -3.5542  -17.6072   23.0796 C.2     1  UNL1       -0.0244
     16 C          -1.8030  -18.4658   21.3633 C.3     1  UNL1        0.0257
     17 C          -2.0080  -18.7661   19.9080 C.3     1  UNL1        0.0047
     18 C          -3.3496  -19.2248   19.4186 C.3     1  UNL1        0.0003
     19 C          -4.0864  -20.3057   20.1528 C.3     1  UNL1        0.0000
     20 C          -6.0984  -20.4007   21.7938 C.3     1  UNL1        0.0000
     21 C          -5.5568  -20.1662   20.4148 C.3     1  UNL1        0.0000
@<TRIPOS>BOND
     1    20    21    1
     2    21    19    1
     3    19    18    1
     4    18    17    1
     5    17    16    1
     6    16    14    1
     7    14    15    2
     8    15    13    1
     9    13     1    1
    10     1     2    1
    11     2     3    2
    12     3     4    1
    13     4     5    1
    14     5     6    2
    15     6     7    1
    16     7     8    2
    17     8     9    1
    18     9    10    2
    19     9    11    1
    20    11    12    1
    21    11     1    2
    22     8     3    1
@<TRIPOS>MOLECULE
*****
 21 22 0 0 0
SMALL
GASTEIGER

@<TRIPOS>ATOM
      1 C          -7.6849  -18.8232   21.0230 C.2     1  UNL1        0.0620
      2 N          -7.9586  -17.5671   21.7959 N.2     1  UNL1       -0.2534
      3 C          -6.9084  -17.0028   22.7062 C.2     1  UNL1        0.0660
      4 C          -7.1821  -15.7467   23.4791 C.3     1  UNL1        0.0718
      5 C          -6.1319  -15.1824   24.3894 C.2     1  UNL1       -0.0198
      6 C          -4.8081  -15.8742   24.5269 C.2     1  UNL1       -0.0040
      7 C          -4.5344  -17.1303   23.7540 C.2     1  UNL1        0.0040
      8 C          -5.5846  -17.6946   22.8437 C.2     1  UNL1        0.0525
      9 C          -5.3110  -18.9507   22.0708 C.2     1  UNL1        0.1939
     10 O          -3.9871  -19.6425   22.2083 O.2     1  UNL1       -0.2868
     11 C          -6.3611  -19.5150   21.1605 C.2     1  UNL1        0.0309
     12 C          -6.0875  -20.7712   20.3876 C.3     1  UNL1        0.0356
     13 C          -8.7351  -19.3875   20.1127 C.3     1  UNL1        0.0712
     14 C         -10.9208  -18.0898   20.6500 C.2     1  UNL1       -0.0303
     15 C         -10.1742  -19.3857   20.5359 C.2     1  UNL1       -0.0244
     16 C         -12.3598  -18.0880   21.0732 C.3     1  UNL1        0.0257
     17 C         -12.7522  -17.4966   22.3946 C.3     1  UNL1        0.0047
     18 C         -12.5199  -18.2678   23.6601 C.3     1  UNL1        0.0003
     19 C         -11.1245  -18.4595   24.1761 C.3     1  UNL1        0.0000
     20 C          -9.3475  -20.3387   23.9297 C.3     1  UNL1        0.0000
     21 C         -10.6330  -19.8353   24.5161 C.3     1  UNL1        0.0000
@<TRIPOS>BOND
     1    20    21    1
     2    21    19    1
     3    19    18    1
     4    18    17    1
     5    17    16    1
     6    16    14    1
     7    14    15    2
     8    15    13    1
     9    13     1    1
    10     1     2    1
    11     2     3    2
    12     3     4    1
    13     4     5    1
    14     5     6    2
    15     6     7    1
    16     7     8    2
    17     8     9    1
    18     9    10    2
    19     9    11    1
    20    11    12    1
    21    11     1    2
    22     8     3    1
@<TRIPOS>MOLECULE
*****
 21 22 0 0 0
SMALL
GASTEIGER

@<TRIPOS>ATOM
      1 C          -6.8518  -16.9794   23.1311 C.2     1  UNL1        0.0620
      2 N          -7.1604  -18.0311   22.1071 N.2     1  UNL1       -0.2534
      3 C          -6.0605  -18.8942   21.5636 C.2     1  UNL1        0.0660
      4 C          -6.3691  -19.9460   20.5396 C.3     1  UNL1        0.0718
      5 C          -5.2692  -20.8090   19.9961 C.2     1  UNL1       -0.0198
      6 C          -3.8609  -20.6203   20.4766 C.2     1  UNL1       -0.0040
      7 C          -3.5523  -19.5686   21.5005 C.2     1  UNL1        0.0040
      8 C          -4.6521  -18.7056   22.0440 C.2     1  UNL1        0.0525
      9 C          -4.3436  -17.6537   23.0681 C.2     1  UNL1        0.1939
     10 O          -2.9352  -17.4651   23.5486 O.2     1  UNL1       -0.2868
     11 C          -5.4435  -16.7907   23.6116 C.2     1  UNL1        0.0309
     12 C          -5.1349  -15.7389   24.6356 C.3     1  UNL1        0.0356
     13 C          -7.9517  -16.1162   23.6747 C.3     1  UNL1        0.0712
     14 C          -9.6506  -17.9167   24.4631 C.2     1  UNL1       -0.0303
     15 C          -9.3562  -16.6396   23.7336 C.2     1  UNL1       -0.0244
     16 C         -11.0551  -18.4401   24.5221 C.3     1  UNL1        0.0257
     17 C         -11.8066  -18.7158   23.2536 C.3     1  UNL1        0.0047
     18 C         -12.8495  -17.7498   22.7747 C.3     1  UNL1        0.0003
     19 C         -12.4662  -16.6254   21.8588 C.3     1  UNL1        0.0000
     20 C         -11.5940  -15.8271   19.5454 C.3     1  UNL1        0.0000
     21 C         -11.7819  -16.9189   20.5566 C.3     1  UNL1        0.0000
@<TRIPOS>BOND
     1    20    21    1
     2    21    19    1
     3    19    18    1
     4    18    17    1
     5    17    16    1
     6    16    14    1
     7    14    15    2
     8    15    13    1
     9    13     1    1
    10     1     2    1
    11     2     3    2
    12     3     4    1
    13     4     5    1
    14     5     6    2
    15     6     7    1
    16     7     8    2
    17     8     9    1
    18     9    10    2
    19     9    11    1
    20    11    12    1
    21    11     1    2
    22     8     3    1
@<TRIPOS>MOLECULE
*****
 21 22 0 0 0
SMALL
GASTEIGER

@<TRIPOS>ATOM
      1 C          -7.2313  -19.5412   20.7899 C.2     1  UNL1        0.0620
      2 N          -7.1875  -18.7378   22.0558 N.2     1  UNL1       -0.2534
      3 C          -8.3779  -17.9242   22.4694 C.2     1  UNL1        0.0660
      4 C          -8.3340  -17.1208   23.7353 C.3     1  UNL1        0.0718
      5 C          -9.5244  -16.3073   24.1489 C.2     1  UNL1       -0.0198
      6 C         -10.7587  -16.2971   23.2965 C.2     1  UNL1       -0.0040
      7 C         -10.8025  -17.1006   22.0306 C.2     1  UNL1        0.0040
      8 C          -9.6121  -17.9141   21.6171 C.2     1  UNL1        0.0525
      9 C          -9.6560  -18.7176   20.3511 C.2     1  UNL1        0.1939
     10 O         -10.8902  -18.7074   19.4988 O.2     1  UNL1       -0.2868
     11 C          -8.4656  -19.5311   19.9376 C.2     1  UNL1        0.0309
     12 C          -8.5094  -20.3346   18.6716 C.3     1  UNL1        0.0356
     13 C          -6.0409  -20.3548   20.3763 C.3     1  UNL1        0.0712
     14 C          -3.8347  -19.3750   19.4158 C.2     1  UNL1       -0.0303
     15 C          -4.6560  -19.8196   20.5896 C.2     1  UNL1       -0.0244
     16 C          -2.4498  -18.8398   19.6291 C.3     1  UNL1        0.0257
     17 C          -2.2192  -17.3589   19.6908 C.3     1  UNL1        0.0047
     18 C          -1.5397  -16.7547   20.8838 C.3     1  UNL1        0.0003
     19 C          -2.3516  -16.3109   22.0645 C.3     1  UNL1        0.0000
     20 C          -4.3834  -16.8585   23.5883 C.3     1  UNL1        0.0000
     21 C          -3.1705  -17.3083   22.8291 C.3     1  UNL1        0.0000
@<TRIPOS>BOND
     1    20    21    1
     2    21    19    1
     3    19    18    1
     4    18    17    1
     5    17    16    1
     6    16    14    1
     7    14    15    2
     8    15    13    1
     9    13     1    1
    10     1     2    1
    11     2     3    2
    12     3     4    1
    13     4     5    1
    14     5     6    2
    15     6     7    1
    16     7     8    2
    17     8     9    1
    18     9    10    2
    19     9    11    1
    20    11    12    1
    21    11     1    2
    22     8     3    1
