@<TRIPOS>MOLECULE
*****
 29 32 0 0 0
SMALL
GASTEIGER

@<TRIPOS>ATOM
      1 C          -3.2008  -16.2809   22.8646 C.2     1  UNL1        0.2252
      2 O          -3.5206  -15.0235   22.1119 O.2     1  UNL1       -0.2750
      3 N          -4.0065  -16.6574   24.0726 N.am    1  UNL1       -0.3004
      4 H          -3.7966  -17.4826   24.5667 H       1  UNL1        0.1497
      5 C          -2.0753  -17.1619   22.4093 C.3     1  UNL1        0.1154
      6 C          -0.9413  -17.0962   20.7542 C.3     1  UNL1        0.0335
      7 C          -2.1711  -17.8833   21.0978 C.3     1  UNL1        0.1377
      8 C          -3.3808  -18.5197   21.7155 C.3     1  UNL1        0.0613
      9 C          -3.9673  -19.4699   20.7139 C.3     1  UNL1        0.1290
     10 C          -4.4374  -20.3772   19.6158 C.3     1  UNL1        0.0305
     11 C          -5.6570  -21.2273   19.8159 C.3     1  UNL1        0.0025
     12 C          -6.4064  -21.1699   21.1140 C.3     1  UNL1        0.0002
     13 C          -5.9363  -20.2626   22.2120 C.3     1  UNL1        0.0025
     14 C          -4.7167  -19.4126   22.0120 C.3     1  UNL1        0.0305
     15 O          -3.1199  -19.4209   19.4771 O.3     1  UNL1       -0.2256
     16 O          -2.0098  -18.4403   19.7143 O.3     1  UNL1       -0.2251
     17 C          -5.1319  -15.7764   24.5278 C.3     1  UNL1        0.1163
     18 C          -6.5393  -16.0799   24.1071 C.ar    1  UNL1       -0.0025
     19 C          -7.6900  -15.6306   24.9580 C.ar    1  UNL1       -0.0014
     20 C          -9.0974  -15.9342   24.5372 C.ar    1  UNL1        0.0142
     21 C          -9.3541  -16.6871   23.2655 C.ar    1  UNL1        0.0480
     22 C          -8.2035  -17.1363   22.4146 C.ar    1  UNL1        0.0142
     23 C          -6.7960  -16.8328   22.8353 C.ar    1  UNL1       -0.0014
     24 N         -10.7616  -16.9906   22.8448 N.pl3   1  UNL1       -0.3028
     25 C         -11.6474  -17.8161   23.7300 C.3     1  UNL1        0.1231
     26 C         -13.0549  -18.1197   23.3093 C.3     1  UNL1        0.1636
     27 O         -13.5764  -17.5976   22.0033 O.3     1  UNL1       -0.3501
     28 C         -12.6905  -16.7721   21.1181 C.3     1  UNL1        0.1636
     29 C         -11.2830  -16.4686   21.5388 C.3     1  UNL1        0.1231
@<TRIPOS>BOND
     1     6     7    1
     2     7     5    1
     3     5     1    1
     4     1     2    2
     5     1     3   am
     6     3    17    1
     7    17    18    1
     8    18    19   ar
     9    19    20   ar
    10    20    21   ar
    11    21    24    1
    12    24    25    1
    13    25    26    1
    14    26    27    1
    15    27    28    1
    16    28    29    1
    17    21    22   ar
    18    22    23   ar
    19     7     8    1
    20     8     9    1
    21     9    10    1
    22    10    11    1
    23    11    12    1
    24    12    13    1
    25    13    14    1
    26     9    15    1
    27    15    16    1
    28    16     7    1
    29    23    18   ar
    30    14     9    1
    31    29    24    1
    32     3     4    1
@<TRIPOS>MOLECULE
*****
 29 32 0 0 0
SMALL
GASTEIGER

@<TRIPOS>ATOM
      1 C          -9.5021  -18.5035   22.1745 C.2     1  UNL1        0.2252
      2 O          -9.3553  -18.0278   20.7596 O.2     1  UNL1       -0.2750
      3 N          -8.7127  -19.6854   22.6541 N.am    1  UNL1       -0.3004
      4 H          -8.8091  -19.9977   23.5828 H       1  UNL1        0.1497
      5 C         -10.4385  -17.7975   23.1099 C.3     1  UNL1        0.1154
      6 C         -11.4192  -18.7934   24.5507 C.3     1  UNL1        0.0335
      7 C         -10.2258  -17.8857   24.5920 C.3     1  UNL1        0.1377
      8 C          -9.0768  -16.9596   24.3235 C.3     1  UNL1        0.0613
      9 C          -8.4033  -16.6651   25.6312 C.3     1  UNL1        0.1290
     10 C          -7.8370  -16.4641   27.0055 C.3     1  UNL1        0.0305
     11 C          -6.6409  -15.5807   27.2020 C.3     1  UNL1        0.0025
     12 C          -6.0110  -14.8982   26.0240 C.3     1  UNL1        0.0002
     13 C          -6.5772  -15.0992   24.6497 C.3     1  UNL1        0.0025
     14 C          -7.7734  -15.9827   24.4533 C.3     1  UNL1        0.0305
     15 O          -9.1361  -17.4093   26.7078 O.3     1  UNL1       -0.2256
     16 O         -10.2625  -18.1637   26.0656 O.3     1  UNL1       -0.2251
     17 C          -7.7764  -20.3914   21.7188 C.3     1  UNL1        0.1163
     18 C          -6.4127  -19.8255   21.4539 C.ar    1  UNL1       -0.0025
     19 C          -5.8465  -18.7761   22.3639 C.ar    1  UNL1       -0.0014
     20 C          -4.4829  -18.2101   22.0990 C.ar    1  UNL1        0.0142
     21 C          -3.6855  -18.6936   20.9241 C.ar    1  UNL1        0.0480
     22 C          -4.2517  -19.7429   20.0141 C.ar    1  UNL1        0.0142
     23 C          -5.6153  -20.3089   20.2790 C.ar    1  UNL1       -0.0014
     24 N          -2.3218  -18.1275   20.6592 N.pl3   1  UNL1       -0.3028
     25 C          -1.3056  -18.9384   19.9112 C.3     1  UNL1        0.1231
     26 C           0.0581  -18.3724   19.6463 C.3     1  UNL1        0.1636
     27 O           0.4054  -16.9954   20.1296 O.3     1  UNL1       -0.3501
     28 C          -0.6109  -16.1846   20.8777 C.3     1  UNL1        0.1636
     29 C          -1.9745  -16.7507   21.1426 C.3     1  UNL1        0.1231
@<TRIPOS>BOND
     1     6     7    1
     2     7     5    1
     3     5     1    1
     4     1     2    2
     5     1     3   am
     6     3    17    1
     7    17    18    1
     8    18    19   ar
     9    19    20   ar
    10    20    21   ar
    11    21    24    1
    12    24    25    1
    13    25    26    1
    14    26    27    1
    15    27    28    1
    16    28    29    1
    17    21    22   ar
    18    22    23   ar
    19     7     8    1
    20     8     9    1
    21     9    10    1
    22    10    11    1
    23    11    12    1
    24    12    13    1
    25    13    14    1
    26     9    15    1
    27    15    16    1
    28    16     7    1
    29    23    18   ar
    30    14     9    1
    31    29    24    1
    32     3     4    1
@<TRIPOS>MOLECULE
*****
 29 32 0 0 0
SMALL
GASTEIGER

@<TRIPOS>ATOM
      1 C          -9.9561   -5.3191   18.3567 C.2     1  UNL1        0.2252
      2 O          -9.3137   -4.5436   19.4683 O.2     1  UNL1       -0.2750
      3 N         -10.1363   -4.6875   17.0081 N.am    1  UNL1       -0.3004
      4 H         -10.5580   -5.1966   16.2785 H       1  UNL1        0.1497
      5 C         -10.4184   -6.7264   18.5936 C.3     1  UNL1        0.1154
      6 C         -10.9176   -8.1239   17.2418 C.3     1  UNL1        0.0335
      7 C         -11.7457   -7.1793   18.0616 C.3     1  UNL1        0.1377
      8 C         -12.2962   -6.1400   18.9926 C.3     1  UNL1        0.0613
      9 C         -13.7908   -6.1480   18.8645 C.3     1  UNL1        0.1290
     10 C         -15.2674   -6.2705   18.6305 C.3     1  UNL1        0.0305
     11 C         -16.2213   -5.3891   19.3809 C.3     1  UNL1        0.0025
     12 C         -15.6986   -4.3851   20.3652 C.3     1  UNL1        0.0002
     13 C         -14.2221   -4.2626   20.5992 C.3     1  UNL1        0.0025
     14 C         -13.2682   -5.1441   19.8489 C.3     1  UNL1        0.0305
     15 O         -14.1639   -7.1923   17.8544 O.3     1  UNL1       -0.2256
     16 O         -12.8999   -7.8297   17.3581 O.3     1  UNL1       -0.2251
     17 C          -9.6740   -3.2804   16.7712 C.3     1  UNL1        0.1163
     18 C         -10.6097   -2.1330   17.0119 C.ar    1  UNL1       -0.0025
     19 C         -10.6407   -0.9773   16.0562 C.ar    1  UNL1       -0.0014
     20 C         -11.5765    0.1701   16.2969 C.ar    1  UNL1        0.0142
     21 C         -12.4812    0.1617   17.4933 C.ar    1  UNL1        0.0480
     22 C         -12.4503   -0.9939   18.4489 C.ar    1  UNL1        0.0142
     23 C         -11.5145   -2.1414   18.2083 C.ar    1  UNL1       -0.0014
     24 N         -13.4170    1.3092   17.7339 N.pl3   1  UNL1       -0.3028
     25 C         -14.4538    1.2175   18.8139 C.3     1  UNL1        0.1231
     26 C         -15.3896    2.3650   19.0545 C.3     1  UNL1        0.1636
     27 O         -15.2883    3.6041   18.2150 O.3     1  UNL1       -0.3501
     28 C         -14.2514    3.6956   17.1350 C.3     1  UNL1        0.1636
     29 C         -13.3157    2.5482   16.8945 C.3     1  UNL1        0.1231
@<TRIPOS>BOND
     1     6     7    1
     2     7     5    1
     3     5     1    1
     4     1     2    2
     5     1     3   am
     6     3    17    1
     7    17    18    1
     8    18    19   ar
     9    19    20   ar
    10    20    21   ar
    11    21    24    1
    12    24    25    1
    13    25    26    1
    14    26    27    1
    15    27    28    1
    16    28    29    1
    17    21    22   ar
    18    22    23   ar
    19     7     8    1
    20     8     9    1
    21     9    10    1
    22    10    11    1
    23    11    12    1
    24    12    13    1
    25    13    14    1
    26     9    15    1
    27    15    16    1
    28    16     7    1
    29    23    18   ar
    30    14     9    1
    31    29    24    1
    32     3     4    1
@<TRIPOS>MOLECULE
*****
 29 32 0 0 0
SMALL
GASTEIGER

@<TRIPOS>ATOM
      1 C         -10.6235   -3.8798   18.2376 C.2     1  UNL1        0.2252
      2 O         -10.9691   -3.8704   16.7781 O.2     1  UNL1       -0.2750
      3 N         -10.7157   -2.6147   19.0384 N.am    1  UNL1       -0.3004
      4 H         -10.4888   -2.6208   19.9964 H       1  UNL1        0.1497
      5 C         -10.1858   -5.1543   18.8965 C.3     1  UNL1        0.1154
      6 C          -9.4363   -6.8495   18.1256 C.3     1  UNL1        0.0335
      7 C         -10.8296   -6.4546   18.5165 C.3     1  UNL1        0.1377
      8 C         -12.0883   -5.7878   18.9867 C.3     1  UNL1        0.0613
      9 C         -13.2190   -6.7587   18.8156 C.3     1  UNL1        0.1290
     10 C         -14.2434   -7.8304   18.5879 C.3     1  UNL1        0.0305
     11 C         -15.6814   -7.5787   18.9323 C.3     1  UNL1        0.0025
     12 C         -16.0950   -6.2552   19.5044 C.3     1  UNL1        0.0002
     13 C         -15.0706   -5.1835   19.7321 C.3     1  UNL1        0.0025
     14 C         -13.6326   -5.4352   19.3877 C.3     1  UNL1        0.0305
     15 O         -12.6590   -8.0254   18.2395 O.3     1  UNL1       -0.2256
     16 O         -11.1823   -7.8375   18.0546 O.3     1  UNL1       -0.2251
     17 C         -11.1534   -1.3403   18.3794 C.3     1  UNL1        0.1163
     18 C         -12.5499   -0.8320   18.5829 C.ar    1  UNL1       -0.0025
     19 C         -12.8906    0.5859   18.2317 C.ar    1  UNL1       -0.0014
     20 C         -14.2872    1.0942   18.4352 C.ar    1  UNL1        0.0142
     21 C         -15.3430    0.1844   18.9898 C.ar    1  UNL1        0.0480
     22 C         -15.0023   -1.2335   19.3409 C.ar    1  UNL1        0.0142
     23 C         -13.6058   -1.7418   19.1375 C.ar    1  UNL1       -0.0014
     24 N         -16.7396    0.6927   19.1932 N.pl3   1  UNL1       -0.3028
     25 C         -17.4179    1.4761   18.1088 C.3     1  UNL1        0.1231
     26 C         -18.8145    1.9844   18.3122 C.3     1  UNL1        0.1636
     27 O         -19.5326    1.7092   19.6002 O.3     1  UNL1       -0.3501
     28 C         -18.8541    0.9258   20.6846 C.3     1  UNL1        0.1636
     29 C         -17.4576    0.4176   20.4811 C.3     1  UNL1        0.1231
@<TRIPOS>BOND
     1     6     7    1
     2     7     5    1
     3     5     1    1
     4     1     2    2
     5     1     3   am
     6     3    17    1
     7    17    18    1
     8    18    19   ar
     9    19    20   ar
    10    20    21   ar
    11    21    24    1
    12    24    25    1
    13    25    26    1
    14    26    27    1
    15    27    28    1
    16    28    29    1
    17    21    22   ar
    18    22    23   ar
    19     7     8    1
    20     8     9    1
    21     9    10    1
    22    10    11    1
    23    11    12    1
    24    12    13    1
    25    13    14    1
    26     9    15    1
    27    15    16    1
    28    16     7    1
    29    23    18   ar
    30    14     9    1
    31    29    24    1
    32     3     4    1
@<TRIPOS>MOLECULE
*****
 29 32 0 0 0
SMALL
GASTEIGER

@<TRIPOS>ATOM
      1 C          -9.8539  -19.2743   24.2729 C.2     1  UNL1        0.2252
      2 O          -9.6779  -20.4444   25.1946 O.2     1  UNL1       -0.2750
      3 N          -8.9934  -19.1460   23.0508 N.am    1  UNL1       -0.3004
      4 H          -9.1089  -18.3780   22.4458 H       1  UNL1        0.1497
      5 C         -10.8904  -18.2323   24.5730 C.3     1  UNL1        0.1154
      6 C         -12.7788  -18.8966   24.7219 C.3     1  UNL1        0.0335
      7 C         -12.0819  -18.0793   23.6749 C.3     1  UNL1        0.1377
      8 C         -11.1359  -17.2939   22.8156 C.3     1  UNL1        0.0613
      9 C         -11.8885  -16.8263   21.6052 C.3     1  UNL1        0.1290
     10 C         -12.7665  -16.4318   20.4548 C.3     1  UNL1        0.0305
     11 C         -12.2064  -15.6119   19.3306 C.3     1  UNL1        0.0025
     12 C         -10.7682  -15.1864   19.3568 C.3     1  UNL1        0.0002
     13 C          -9.8902  -15.5810   20.5072 C.3     1  UNL1        0.0025
     14 C         -10.4504  -16.4009   21.6314 C.3     1  UNL1        0.0305
     15 O         -13.2997  -17.3227   21.7164 O.3     1  UNL1       -0.2256
     16 O         -13.4192  -18.0971   22.9956 O.3     1  UNL1       -0.2251
     17 C          -7.9569  -20.1880   22.7507 C.3     1  UNL1        0.1163
     18 C          -6.6674  -19.7954   22.0928 C.ar    1  UNL1       -0.0025
     19 C          -6.2398  -20.4658   20.8209 C.ar    1  UNL1       -0.0014
     20 C          -4.9502  -20.0732   20.1630 C.ar    1  UNL1        0.0142
     21 C          -4.0883  -19.0101   20.7769 C.ar    1  UNL1        0.0480
     22 C          -4.5158  -18.3397   22.0487 C.ar    1  UNL1        0.0142
     23 C          -5.8054  -18.7323   22.7067 C.ar    1  UNL1       -0.0014
     24 N          -2.7987  -18.6176   20.1189 N.pl3   1  UNL1       -0.3028
     25 C          -1.5260  -18.6021   20.9126 C.3     1  UNL1        0.1231
     26 C          -0.2364  -18.2096   20.2546 C.3     1  UNL1        0.1636
     27 O          -0.2196  -17.8324   18.8028 O.3     1  UNL1       -0.3501
     28 C          -1.4924  -17.8479   18.0091 C.3     1  UNL1        0.1636
     29 C          -2.7819  -18.2405   18.6672 C.3     1  UNL1        0.1231
@<TRIPOS>BOND
     1     6     7    1
     2     7     5    1
     3     5     1    1
     4     1     2    2
     5     1     3   am
     6     3    17    1
     7    17    18    1
     8    18    19   ar
     9    19    20   ar
    10    20    21   ar
    11    21    24    1
    12    24    25    1
    13    25    26    1
    14    26    27    1
    15    27    28    1
    16    28    29    1
    17    21    22   ar
    18    22    23   ar
    19     7     8    1
    20     8     9    1
    21     9    10    1
    22    10    11    1
    23    11    12    1
    24    12    13    1
    25    13    14    1
    26     9    15    1
    27    15    16    1
    28    16     7    1
    29    23    18   ar
    30    14     9    1
    31    29    24    1
    32     3     4    1
@<TRIPOS>MOLECULE
*****
 29 32 0 0 0
SMALL
GASTEIGER

@<TRIPOS>ATOM
      1 C         -14.1657   -8.4030   18.2000 C.2     1  UNL1        0.2252
      2 O         -14.3304   -8.0024   16.7639 O.2     1  UNL1       -0.2750
      3 N         -12.9563   -7.9593   18.9685 N.am    1  UNL1       -0.3004
      4 H         -12.8482   -8.2222   19.9110 H       1  UNL1        0.1497
      5 C         -15.2105   -9.2473   18.8677 C.3     1  UNL1        0.1154
      6 C         -16.7696  -10.3576   18.2628 C.3     1  UNL1        0.0335
      7 C         -16.6639   -8.9231   18.6882 C.3     1  UNL1        0.1377
      8 C         -16.2544   -7.5564   19.1512 C.3     1  UNL1        0.0613
      9 C         -17.4769   -6.6873   19.1689 C.3     1  UNL1        0.1290
     10 C         -18.7792   -5.9437   19.1362 C.3     1  UNL1        0.0305
     11 C         -18.8279   -4.4988   19.5358 C.3     1  UNL1        0.0025
     12 C         -17.5745   -3.7974   19.9680 C.3     1  UNL1        0.0002
     13 C         -16.2722   -4.5409   20.0007 C.3     1  UNL1        0.0025
     14 C         -16.2234   -5.9859   19.6011 C.3     1  UNL1        0.0305
     15 O         -18.6420   -7.5169   18.7169 O.3     1  UNL1       -0.2256
     16 O         -18.1395   -8.8988   18.4198 O.3     1  UNL1       -0.2251
     17 C         -11.9116   -7.1150   18.3008 C.3     1  UNL1        0.1163
     18 C         -12.0981   -5.6299   18.2021 C.ar    1  UNL1       -0.0025
     19 C         -12.6164   -4.8592   19.3799 C.ar    1  UNL1       -0.0014
     20 C         -12.8029   -3.3741   19.2812 C.ar    1  UNL1        0.0142
     21 C         -12.4709   -2.6598   18.0047 C.ar    1  UNL1        0.0480
     22 C         -11.9526   -3.4305   16.8269 C.ar    1  UNL1        0.0142
     23 C         -11.7661   -4.9156   16.9255 C.ar    1  UNL1       -0.0014
     24 N         -12.6574   -1.1746   17.9060 N.pl3   1  UNL1       -0.3028
     25 C         -13.8377   -0.5218   18.5621 C.3     1  UNL1        0.1231
     26 C         -14.0242    0.9634   18.4635 C.3     1  UNL1        0.1636
     27 O         -13.0302    1.7956   17.7086 O.3     1  UNL1       -0.3501
     28 C         -11.8499    1.1426   17.0526 C.3     1  UNL1        0.1636
     29 C         -11.6635   -0.3425   17.1512 C.3     1  UNL1        0.1231
@<TRIPOS>BOND
     1     6     7    1
     2     7     5    1
     3     5     1    1
     4     1     2    2
     5     1     3   am
     6     3    17    1
     7    17    18    1
     8    18    19   ar
     9    19    20   ar
    10    20    21   ar
    11    21    24    1
    12    24    25    1
    13    25    26    1
    14    26    27    1
    15    27    28    1
    16    28    29    1
    17    21    22   ar
    18    22    23   ar
    19     7     8    1
    20     8     9    1
    21     9    10    1
    22    10    11    1
    23    11    12    1
    24    12    13    1
    25    13    14    1
    26     9    15    1
    27    15    16    1
    28    16     7    1
    29    23    18   ar
    30    14     9    1
    31    29    24    1
    32     3     4    1
@<TRIPOS>MOLECULE
*****
 29 32 0 0 0
SMALL
GASTEIGER

@<TRIPOS>ATOM
      1 C           5.8416   -3.5367   21.3372 C.2     1  UNL1        0.2252
      2 O           4.6293   -4.3871   21.5755 O.2     1  UNL1       -0.2750
      3 N           5.9327   -2.6897   20.1024 N.am    1  UNL1       -0.3004
      4 H           6.7284   -2.1315   19.9460 H       1  UNL1        0.1497
      5 C           6.9629   -3.5331   22.3335 C.3     1  UNL1        0.1154
      6 C           6.0478   -2.2030   23.5265 C.3     1  UNL1        0.0335
      7 C           6.6607   -3.5439   23.8027 C.3     1  UNL1        0.1377
      8 C           7.3368   -4.8825   23.7718 C.3     1  UNL1        0.0613
      9 C           7.3244   -5.4404   25.1642 C.3     1  UNL1        0.1290
     10 C           7.2372   -5.8670   26.5995 C.3     1  UNL1        0.0305
     11 C           7.8083   -7.1870   27.0256 C.3     1  UNL1        0.0025
     12 C           8.4665   -8.0803   26.0163 C.3     1  UNL1        0.0002
     13 C           8.5537   -7.6537   24.5809 C.3     1  UNL1        0.0025
     14 C           7.9826   -6.3338   24.1549 C.3     1  UNL1        0.0305
     15 O           6.6406   -4.4466   26.0556 O.3     1  UNL1       -0.2256
     16 O           6.2304   -3.2744   25.2142 O.3     1  UNL1       -0.2251
     17 C           4.8114   -2.6934   19.1061 C.3     1  UNL1        0.1163
     18 C           3.7614   -1.6233   19.1548 C.ar    1  UNL1       -0.0025
     19 C           2.7610   -1.6044   20.2723 C.ar    1  UNL1       -0.0014
     20 C           1.7110   -0.5343   20.3210 C.ar    1  UNL1        0.0142
     21 C           1.6614    0.5169   19.2522 C.ar    1  UNL1        0.0480
     22 C           2.6618    0.4981   18.1347 C.ar    1  UNL1        0.0142
     23 C           3.7118   -0.5720   18.0860 C.ar    1  UNL1       -0.0014
     24 N           0.6113    1.5870   19.3009 N.pl3   1  UNL1       -0.3028
     25 C          -0.2111    1.7748   20.5412 C.3     1  UNL1        0.1231
     26 C          -1.2611    2.8449   20.5900 C.3     1  UNL1        0.1636
     27 O          -1.4887    3.7272   19.3983 O.3     1  UNL1       -0.3501
     28 C          -0.6662    3.5394   18.1581 C.3     1  UNL1        0.1636
     29 C           0.3838    2.4693   18.1094 C.3     1  UNL1        0.1231
@<TRIPOS>BOND
     1     6     7    1
     2     7     5    1
     3     5     1    1
     4     1     2    2
     5     1     3   am
     6     3    17    1
     7    17    18    1
     8    18    19   ar
     9    19    20   ar
    10    20    21   ar
    11    21    24    1
    12    24    25    1
    13    25    26    1
    14    26    27    1
    15    27    28    1
    16    28    29    1
    17    21    22   ar
    18    22    23   ar
    19     7     8    1
    20     8     9    1
    21     9    10    1
    22    10    11    1
    23    11    12    1
    24    12    13    1
    25    13    14    1
    26     9    15    1
    27    15    16    1
    28    16     7    1
    29    23    18   ar
    30    14     9    1
    31    29    24    1
    32     3     4    1
@<TRIPOS>MOLECULE
*****
 29 32 0 0 0
SMALL
GASTEIGER

@<TRIPOS>ATOM
      1 C           4.6667   -3.3970   21.1545 C.2     1  UNL1        0.2252
      2 O           4.3045   -4.3970   22.2121 O.2     1  UNL1       -0.2750
      3 N           5.5808   -2.2542   21.4844 N.am    1  UNL1       -0.3004
      4 H           5.8186   -1.5979   20.7902 H       1  UNL1        0.1497
      5 C           4.1150   -3.5396   19.7669 C.3     1  UNL1        0.1154
      6 C           5.3481   -3.1521   18.2310 C.3     1  UNL1        0.0335
      7 C           4.1922   -2.3894   18.8073 C.3     1  UNL1        0.1377
      8 C           3.0201   -1.8672   19.5842 C.3     1  UNL1        0.0613
      9 C           2.6145   -0.5535   18.9843 C.3     1  UNL1        0.1290
     10 C           2.3261    0.7401   18.2819 C.3     1  UNL1        0.0305
     11 C           1.1974    1.6111   18.7479 C.3     1  UNL1        0.0025
     12 C           0.3569    1.1885   19.9163 C.3     1  UNL1        0.0002
     13 C           0.6453   -0.1051   20.6186 C.3     1  UNL1        0.0025
     14 C           1.7740   -0.9761   20.1527 C.3     1  UNL1        0.0305
     15 O           3.5358   -0.2639   17.8366 O.3     1  UNL1       -0.2256
     16 O           4.5109   -1.3985   17.7272 O.3     1  UNL1       -0.2251
     17 C           6.1325   -2.1116   22.8719 C.3     1  UNL1        0.1163
     18 C           5.2625   -1.5848   23.9744 C.ar    1  UNL1       -0.0025
     19 C           5.6767   -1.7601   25.4054 C.ar    1  UNL1       -0.0014
     20 C           4.8067   -1.2333   26.5079 C.ar    1  UNL1        0.0142
     21 C           3.5225   -0.5312   26.1795 C.ar    1  UNL1        0.0480
     22 C           3.1083   -0.3560   24.7486 C.ar    1  UNL1        0.0142
     23 C           3.9783   -0.8828   23.6459 C.ar    1  UNL1       -0.0014
     24 N           2.6525   -0.0044   27.2821 N.pl3   1  UNL1       -0.3028
     25 C           1.8111    1.2164   27.0552 C.3     1  UNL1        0.1231
     26 C           0.9411    1.7432   28.1578 C.3     1  UNL1        0.1636
     27 O           0.9126    1.0490   29.4873 O.3     1  UNL1       -0.3501
     28 C           1.7540   -0.1718   29.7141 C.3     1  UNL1        0.1636
     29 C           2.6240   -0.6986   28.6115 C.3     1  UNL1        0.1231
@<TRIPOS>BOND
     1     6     7    1
     2     7     5    1
     3     5     1    1
     4     1     2    2
     5     1     3   am
     6     3    17    1
     7    17    18    1
     8    18    19   ar
     9    19    20   ar
    10    20    21   ar
    11    21    24    1
    12    24    25    1
    13    25    26    1
    14    26    27    1
    15    27    28    1
    16    28    29    1
    17    21    22   ar
    18    22    23   ar
    19     7     8    1
    20     8     9    1
    21     9    10    1
    22    10    11    1
    23    11    12    1
    24    12    13    1
    25    13    14    1
    26     9    15    1
    27    15    16    1
    28    16     7    1
    29    23    18   ar
    30    14     9    1
    31    29    24    1
    32     3     4    1
@<TRIPOS>MOLECULE
*****
 29 32 0 0 0
SMALL
GASTEIGER

@<TRIPOS>ATOM
      1 C          -3.3250    3.4724   20.6232 C.2     1  UNL1        0.2252
      2 O          -3.0449    4.9158   20.3271 O.2     1  UNL1       -0.2750
      3 N          -2.2161    2.4643   20.5577 N.am    1  UNL1       -0.3004
      4 H          -2.4000    1.5169   20.7521 H       1  UNL1        0.1497
      5 C          -4.7142    3.0368   20.9849 C.3     1  UNL1        0.1154
      6 C          -6.2706    4.1143   20.3167 C.3     1  UNL1        0.0335
      7 C          -5.6438    3.9912   21.6739 C.3     1  UNL1        0.1377
      8 C          -4.8227    3.6685   22.8871 C.3     1  UNL1        0.0613
      9 C          -5.3759    4.4493   24.0423 C.3     1  UNL1        0.1290
     10 C          -6.0351    5.2877   25.0971 C.3     1  UNL1        0.0305
     11 C          -5.5164    5.2669   26.5043 C.3     1  UNL1        0.0025
     12 C          -4.3385    4.4077   26.8569 C.3     1  UNL1        0.0002
     13 C          -3.6793    3.5693   25.8022 C.3     1  UNL1        0.0025
     14 C          -4.1980    3.5901   24.3949 C.3     1  UNL1        0.0305
     15 O          -6.5389    5.2544   23.5431 O.3     1  UNL1       -0.2256
     16 O          -6.7045    4.9713   22.0793 O.3     1  UNL1       -0.2251
     17 C          -0.8271    2.8999   20.1961 C.3     1  UNL1        0.1163
     18 C           0.2213    1.8753   19.8782 C.ar    1  UNL1       -0.0025
     19 C           0.1616    0.5186   20.5153 C.ar    1  UNL1       -0.0014
     20 C           1.2100   -0.5060   20.1974 C.ar    1  UNL1        0.0142
     21 C           2.3181   -0.1739   19.2425 C.ar    1  UNL1        0.0480
     22 C           2.3778    1.1827   18.6055 C.ar    1  UNL1        0.0142
     23 C           1.3294    2.2074   18.9234 C.ar    1  UNL1       -0.0014
     24 N           3.3665   -1.1986   18.9247 N.pl3   1  UNL1       -0.3028
     25 C           4.6025   -0.7992   18.1745 C.3     1  UNL1        0.1231
     26 C           5.6509   -1.8239   17.8567 C.3     1  UNL1        0.1636
     27 O           5.4632   -3.2480   18.2891 O.3     1  UNL1       -0.3501
     28 C           4.2272   -3.6473   19.0394 C.3     1  UNL1        0.1636
     29 C           3.1789   -2.6226   19.3571 C.3     1  UNL1        0.1231
@<TRIPOS>BOND
     1     6     7    1
     2     7     5    1
     3     5     1    1
     4     1     2    2
     5     1     3   am
     6     3    17    1
     7    17    18    1
     8    18    19   ar
     9    19    20   ar
    10    20    21   ar
    11    21    24    1
    12    24    25    1
    13    25    26    1
    14    26    27    1
    15    27    28    1
    16    28    29    1
    17    21    22   ar
    18    22    23   ar
    19     7     8    1
    20     8     9    1
    21     9    10    1
    22    10    11    1
    23    11    12    1
    24    12    13    1
    25    13    14    1
    26     9    15    1
    27    15    16    1
    28    16     7    1
    29    23    18   ar
    30    14     9    1
    31    29    24    1
    32     3     4    1
