@<TRIPOS>MOLECULE
*****
 23 25 0 0 0
SMALL
GASTEIGER

@<TRIPOS>ATOM
      1 C          -3.7521  -19.3199   19.5589 C.3     1  UNL1        0.0310
      2 C          -5.0444  -19.2846   20.3196 C.ar    1  UNL1       -0.0222
      3 C          -5.0312  -19.1856   21.8163 C.ar    1  UNL1       -0.0043
      4 C          -6.3235  -19.1503   22.5770 C.ar    1  UNL1       -0.0009
      5 C          -7.6290  -19.2140   21.8411 C.ar    1  UNL1       -0.0079
      6 C          -7.6422  -19.3130   20.3445 C.ar    1  UNL1       -0.0187
      7 C          -6.3499  -19.3483   19.5837 C.ar    1  UNL1       -0.0082
      8 C          -9.0728  -19.3591   19.8955 C.3     1  UNL1        0.0480
      9 C          -9.9436  -19.2887   21.1148 C.2     1  UNL1       -0.0421
     10 C          -9.0514  -19.1990   22.3172 C.2     1  UNL1       -0.0246
     11 C          -9.5023  -19.1099   23.7450 C.3     1  UNL1        0.0634
     12 C         -10.3119  -20.2202   24.3466 C.3     1  UNL1        0.0111
     13 C          -9.1436  -17.9106   24.5714 C.ar    1  UNL1        0.0818
     14 C          -8.8486  -16.6004   23.9034 C.ar    1  UNL1        0.1139
     15 N          -8.4899  -15.4010   24.7299 N.ar    1  UNL1       -0.2394
     16 C          -8.4262  -15.5119   26.2244 C.ar    1  UNL1        0.1195
     17 C          -8.7212  -16.8222   26.8925 C.ar    1  UNL1        0.1191
     18 N          -9.0799  -18.0214   26.0660 N.ar    1  UNL1       -0.2446
     19 C         -11.4435  -19.3051   21.1291 C.3     1  UNL1        0.0394
     20 C         -12.2080  -18.0150   21.0952 C.3     1  UNL1        0.0765
     21 N         -12.5061  -17.2860   22.3718 N.3     1  UNL1       -0.2700
     22 C         -12.1582  -15.8330   22.5045 C.3     1  UNL1        0.0897
     23 C         -13.1520  -18.0101   23.5156 C.3     1  UNL1        0.0897
@<TRIPOS>BOND
     1     1     2    1
     2     2     3   ar
     3     3     4   ar
     4     4     5   ar
     5     5     6   ar
     6     6     7   ar
     7     6     8    1
     8     8     9    1
     9     9    19    1
    10    19    20    1
    11    20    21    1
    12    21    22    1
    13    21    23    1
    14     9    10    2
    15    10    11    1
    16    11    12    1
    17    11    13    1
    18    13    14   ar
    19    14    15   ar
    20    15    16   ar
    21    16    17   ar
    22    17    18   ar
    23     7     2   ar
    24    18    13   ar
    25    10     5    1
@<TRIPOS>MOLECULE
*****
 23 25 0 0 0
SMALL
GASTEIGER

@<TRIPOS>ATOM
      1 C          -2.2750  -19.7942   21.6137 C.3     1  UNL1        0.0310
      2 C          -3.6777  -19.2858   21.7685 C.ar    1  UNL1       -0.0222
      3 C          -3.9515  -18.0921   22.6345 C.ar    1  UNL1       -0.0043
      4 C          -5.3541  -17.5837   22.7893 C.ar    1  UNL1       -0.0009
      5 C          -6.4831  -18.2690   22.0781 C.ar    1  UNL1       -0.0079
      6 C          -6.2093  -19.4627   21.2121 C.ar    1  UNL1       -0.0187
      7 C          -4.8066  -19.9711   21.0573 C.ar    1  UNL1       -0.0082
      8 C          -7.5148  -19.9288   20.6389 C.3     1  UNL1        0.0480
      9 C          -8.5954  -19.0231   21.1507 C.2     1  UNL1       -0.0421
     10 C          -7.9577  -17.9973   22.0401 C.2     1  UNL1       -0.0246
     11 C          -8.6698  -16.8935   22.7645 C.3     1  UNL1        0.0634
     12 C          -9.4516  -15.8721   21.9928 C.3     1  UNL1        0.0111
     13 C          -8.6000  -16.8111   24.2606 C.ar    1  UNL1        0.0818
     14 C          -9.2749  -17.8538   25.1015 C.ar    1  UNL1        0.1139
     15 N          -9.2051  -17.7713   26.5977 N.ar    1  UNL1       -0.2394
     16 C          -8.4605  -16.6460   27.2529 C.ar    1  UNL1        0.1195
     17 C          -7.7856  -15.6032   26.4119 C.ar    1  UNL1        0.1191
     18 N          -7.8554  -15.6858   24.9159 N.ar    1  UNL1       -0.2446
     19 C         -10.0571  -19.1252   20.8294 C.3     1  UNL1        0.0394
     20 C         -11.0498  -19.3789   21.9249 C.3     1  UNL1        0.0765
     21 N         -12.0918  -18.3489   22.2462 N.3     1  UNL1       -0.2700
     22 C         -12.6294  -18.2360   23.6420 C.3     1  UNL1        0.0897
     23 C         -12.5961  -17.4318   21.1718 C.3     1  UNL1        0.0897
@<TRIPOS>BOND
     1     1     2    1
     2     2     3   ar
     3     3     4   ar
     4     4     5   ar
     5     5     6   ar
     6     6     7   ar
     7     6     8    1
     8     8     9    1
     9     9    19    1
    10    19    20    1
    11    20    21    1
    12    21    22    1
    13    21    23    1
    14     9    10    2
    15    10    11    1
    16    11    12    1
    17    11    13    1
    18    13    14   ar
    19    14    15   ar
    20    15    16   ar
    21    16    17   ar
    22    17    18   ar
    23     7     2   ar
    24    18    13   ar
    25    10     5    1
@<TRIPOS>MOLECULE
*****
 23 25 0 0 0
SMALL
GASTEIGER

@<TRIPOS>ATOM
      1 C          -2.1600  -18.1389   22.3086 C.3     1  UNL1        0.0310
      2 C          -3.6361  -18.0333   22.5538 C.ar    1  UNL1       -0.0222
      3 C          -4.1934  -16.8407   23.2728 C.ar    1  UNL1       -0.0043
      4 C          -5.6695  -16.7350   23.5179 C.ar    1  UNL1       -0.0009
      5 C          -6.5882  -17.8219   23.0441 C.ar    1  UNL1       -0.0079
      6 C          -6.0308  -19.0145   22.3251 C.ar    1  UNL1       -0.0187
      7 C          -4.5547  -19.1202   22.0799 C.ar    1  UNL1       -0.0082
      8 C          -7.1735  -19.9219   21.9772 C.3     1  UNL1        0.0480
      9 C          -8.4371  -19.2901   22.4813 C.2     1  UNL1       -0.0421
     10 C          -8.0753  -17.9922   23.1407 C.2     1  UNL1       -0.0246
     11 C          -9.0326  -17.0331   23.7837 C.3     1  UNL1        0.0634
     12 C          -8.5134  -15.8183   24.4943 C.3     1  UNL1        0.0111
     13 C         -10.5091  -17.2886   23.7163 C.ar    1  UNL1        0.0818
     14 C         -11.3657  -16.4939   22.7756 C.ar    1  UNL1        0.1139
     15 N         -12.8423  -16.7495   22.7082 N.ar    1  UNL1       -0.2394
     16 C         -13.4623  -17.7997   23.5815 C.ar    1  UNL1        0.1195
     17 C         -12.6058  -18.5943   24.5222 C.ar    1  UNL1        0.1191
     18 N         -11.1292  -18.3388   24.5896 N.ar    1  UNL1       -0.2446
     19 C          -9.8198  -19.8566   22.3493 C.3     1  UNL1        0.0394
     20 C         -10.3948  -20.1220   20.9896 C.3     1  UNL1        0.0765
     21 N         -10.0582  -19.2155   19.8429 N.3     1  UNL1       -0.2700
     22 C         -10.7882  -17.9159   19.6749 C.3     1  UNL1        0.0897
     23 C          -8.9915  -19.6085   18.8643 C.3     1  UNL1        0.0897
@<TRIPOS>BOND
     1     1     2    1
     2     2     3   ar
     3     3     4   ar
     4     4     5   ar
     5     5     6   ar
     6     6     7   ar
     7     6     8    1
     8     8     9    1
     9     9    19    1
    10    19    20    1
    11    20    21    1
    12    21    22    1
    13    21    23    1
    14     9    10    2
    15    10    11    1
    16    11    12    1
    17    11    13    1
    18    13    14   ar
    19    14    15   ar
    20    15    16   ar
    21    16    17   ar
    22    17    18   ar
    23     7     2   ar
    24    18    13   ar
    25    10     5    1
@<TRIPOS>MOLECULE
*****
 23 25 0 0 0
SMALL
GASTEIGER

@<TRIPOS>ATOM
      1 C           4.7520   -1.5929   26.8704 C.3     1  UNL1        0.0310
      2 C           4.2961   -1.4337   25.4503 C.ar    1  UNL1       -0.0222
      3 C           3.3879   -0.2999   25.0767 C.ar    1  UNL1       -0.0043
      4 C           2.9320   -0.1407   23.6566 C.ar    1  UNL1       -0.0009
      5 C           3.3843   -1.1154   22.6100 C.ar    1  UNL1       -0.0079
      6 C           4.2924   -2.2493   22.9835 C.ar    1  UNL1       -0.0187
      7 C           4.7483   -2.4084   24.4037 C.ar    1  UNL1       -0.0082
      8 C           4.5711   -3.0475   21.7445 C.3     1  UNL1        0.0480
      9 C           3.8351   -2.4070   20.6052 C.2     1  UNL1       -0.0421
     10 C           3.1016   -1.2129   21.1401 C.2     1  UNL1       -0.0246
     11 C           2.2373   -0.2800   20.3448 C.3     1  UNL1        0.0634
     12 C           0.7735   -0.5663   20.1852 C.3     1  UNL1        0.0111
     13 C           2.8366    0.9393   19.7090 C.ar    1  UNL1        0.0818
     14 C           1.9783    1.8563   18.8889 C.ar    1  UNL1        0.1139
     15 N           2.5777    3.0756   18.2532 N.ar    1  UNL1       -0.2394
     16 C           4.0353    3.3779   18.4375 C.ar    1  UNL1        0.1195
     17 C           4.8936    2.4609   19.2576 C.ar    1  UNL1        0.1191
     18 N           4.2942    1.2416   19.8933 N.ar    1  UNL1       -0.2446
     19 C           3.8330   -2.8778   19.1809 C.3     1  UNL1        0.0394
     20 C           5.0070   -2.5879   18.2934 C.3     1  UNL1        0.0765
     21 N           5.0511   -1.3159   17.4997 N.3     1  UNL1       -0.2700
     22 C           6.3188   -0.5169   17.4332 C.3     1  UNL1        0.0897
     23 C           3.8275   -0.8430   16.7723 C.3     1  UNL1        0.0897
@<TRIPOS>BOND
     1     1     2    1
     2     2     3   ar
     3     3     4   ar
     4     4     5   ar
     5     5     6   ar
     6     6     7   ar
     7     6     8    1
     8     8     9    1
     9     9    19    1
    10    19    20    1
    11    20    21    1
    12    21    22    1
    13    21    23    1
    14     9    10    2
    15    10    11    1
    16    11    12    1
    17    11    13    1
    18    13    14   ar
    19    14    15   ar
    20    15    16   ar
    21    16    17   ar
    22    17    18   ar
    23     7     2   ar
    24    18    13   ar
    25    10     5    1
@<TRIPOS>MOLECULE
*****
 23 25 0 0 0
SMALL
GASTEIGER

@<TRIPOS>ATOM
      1 C          -1.4327  -19.6313   21.4032 C.3     1  UNL1        0.0310
      2 C          -2.8796  -19.2679   21.5600 C.ar    1  UNL1       -0.0222
      3 C          -3.3034  -18.3307   22.6516 C.ar    1  UNL1       -0.0043
      4 C          -4.7503  -17.9673   22.8084 C.ar    1  UNL1       -0.0009
      5 C          -5.7733  -18.5412   21.8735 C.ar    1  UNL1       -0.0079
      6 C          -5.3494  -19.4785   20.7818 C.ar    1  UNL1       -0.0187
      7 C          -3.9025  -19.8419   20.6250 C.ar    1  UNL1       -0.0082
      8 C          -6.5746  -19.8838   20.0171 C.3     1  UNL1        0.0480
      9 C          -7.7557  -19.1969   20.6362 C.2     1  UNL1       -0.0421
     10 C          -7.2604  -18.3672   21.7835 C.2     1  UNL1       -0.0246
     11 C          -8.1042  -17.5133   22.6829 C.3     1  UNL1        0.0634
     12 C          -7.7596  -16.0674   22.8843 C.3     1  UNL1        0.0111
     13 C          -9.2925  -18.1053   23.3810 C.ar    1  UNL1        0.0818
     14 C          -9.2363  -19.5138   23.8938 C.ar    1  UNL1        0.1139
     15 N         -10.4248  -20.1057   24.5920 N.ar    1  UNL1       -0.2394
     16 C         -11.6693  -19.2892   24.7773 C.ar    1  UNL1        0.1195
     17 C         -11.7255  -17.8807   24.2645 C.ar    1  UNL1        0.1191
     18 N         -10.5371  -17.2888   23.5664 N.ar    1  UNL1       -0.2446
     19 C          -9.1817  -19.3185   20.1869 C.3     1  UNL1        0.0394
     20 C          -9.9284  -18.1027   19.7241 C.3     1  UNL1        0.0765
     21 N         -11.2809  -17.7914   20.2932 N.3     1  UNL1       -0.2700
     22 C         -12.0763  -18.8687   20.9690 C.3     1  UNL1        0.0897
     23 C         -11.8379  -16.4028   20.1865 C.3     1  UNL1        0.0897
@<TRIPOS>BOND
     1     1     2    1
     2     2     3   ar
     3     3     4   ar
     4     4     5   ar
     5     5     6   ar
     6     6     7   ar
     7     6     8    1
     8     8     9    1
     9     9    19    1
    10    19    20    1
    11    20    21    1
    12    21    22    1
    13    21    23    1
    14     9    10    2
    15    10    11    1
    16    11    12    1
    17    11    13    1
    18    13    14   ar
    19    14    15   ar
    20    15    16   ar
    21    16    17   ar
    22    17    18   ar
    23     7     2   ar
    24    18    13   ar
    25    10     5    1
@<TRIPOS>MOLECULE
*****
 23 25 0 0 0
SMALL
GASTEIGER

@<TRIPOS>ATOM
      1 C         -15.6107    1.6273   19.3349 C.3     1  UNL1        0.0310
      2 C         -15.0573    0.2628   19.0485 C.ar    1  UNL1       -0.0222
      3 C         -14.0141    0.0845   17.9856 C.ar    1  UNL1       -0.0043
      4 C         -13.4608   -1.2800   17.6992 C.ar    1  UNL1       -0.0009
      5 C         -13.9507   -2.4661   18.4757 C.ar    1  UNL1       -0.0079
      6 C         -14.9939   -2.2878   19.5386 C.ar    1  UNL1       -0.0187
      7 C         -15.5472   -0.9233   19.8250 C.ar    1  UNL1       -0.0082
      8 C         -15.2815   -3.6332   20.1363 C.3     1  UNL1        0.0480
      9 C         -14.4160   -4.6431   19.4427 C.2     1  UNL1       -0.0421
     10 C         -13.5936   -3.9218   18.4164 C.2     1  UNL1       -0.0246
     11 C         -12.5901   -4.5464   17.4929 C.3     1  UNL1        0.0634
     12 C         -12.7219   -4.3663   16.0096 C.3     1  UNL1        0.0111
     13 C         -11.4548   -5.3512   18.0526 C.ar    1  UNL1        0.0818
     14 C         -10.4267   -4.6927   18.9241 C.ar    1  UNL1        0.1139
     15 N          -9.2913   -5.4976   19.4839 N.ar    1  UNL1       -0.2394
     16 C          -9.1841   -6.9609   19.1721 C.ar    1  UNL1        0.1195
     17 C         -10.2121   -7.6194   18.3006 C.ar    1  UNL1        0.1191
     18 N         -11.3474   -6.8145   17.7409 N.ar    1  UNL1       -0.2446
     19 C         -14.3794   -6.1157   19.7257 C.3     1  UNL1        0.0394
     20 C         -15.2177   -7.0568   18.9122 C.3     1  UNL1        0.0765
     21 N         -16.5086   -7.5819   19.4669 N.3     1  UNL1       -0.2700
     22 C         -16.5592   -8.9482   20.0838 C.3     1  UNL1        0.0897
     23 C         -17.7489   -6.7406   19.4047 C.3     1  UNL1        0.0897
@<TRIPOS>BOND
     1     1     2    1
     2     2     3   ar
     3     3     4   ar
     4     4     5   ar
     5     5     6   ar
     6     6     7   ar
     7     6     8    1
     8     8     9    1
     9     9    19    1
    10    19    20    1
    11    20    21    1
    12    21    22    1
    13    21    23    1
    14     9    10    2
    15    10    11    1
    16    11    12    1
    17    11    13    1
    18    13    14   ar
    19    14    15   ar
    20    15    16   ar
    21    16    17   ar
    22    17    18   ar
    23     7     2   ar
    24    18    13   ar
    25    10     5    1
@<TRIPOS>MOLECULE
*****
 23 25 0 0 0
SMALL
GASTEIGER

@<TRIPOS>ATOM
      1 C           3.6695   -0.5472   26.6734 C.3     1  UNL1        0.0310
      2 C           3.6626   -0.9179   25.2199 C.ar    1  UNL1       -0.0222
      3 C           4.5248   -2.0428   24.7288 C.ar    1  UNL1       -0.0043
      4 C           4.5179   -2.4135   23.2753 C.ar    1  UNL1       -0.0009
      5 C           3.6489   -1.6594   22.3130 C.ar    1  UNL1       -0.0079
      6 C           2.7867   -0.5346   22.8042 C.ar    1  UNL1       -0.0187
      7 C           2.7936   -0.1638   24.2576 C.ar    1  UNL1       -0.0082
      8 C           2.0392    0.0236   21.6295 C.3     1  UNL1        0.0480
      9 C           2.4395   -0.7563   20.4124 C.2     1  UNL1       -0.0421
     10 C           3.4343   -1.7965   20.8348 C.2     1  UNL1       -0.0246
     11 C           4.0980   -2.7979   19.9367 C.3     1  UNL1        0.0634
     12 C           3.3017   -3.9290   19.3567 C.3     1  UNL1        0.0111
     13 C           5.5581   -2.6684   19.6186 C.ar    1  UNL1        0.0818
     14 C           5.9953   -1.9238   18.3920 C.ar    1  UNL1        0.1139
     15 N           7.4556   -1.7942   18.0739 N.ar    1  UNL1       -0.2394
     16 C           8.4785   -2.4093   18.9824 C.ar    1  UNL1        0.1195
     17 C           8.0413   -3.1538   20.2090 C.ar    1  UNL1        0.1191
     18 N           6.5812   -3.2834   20.5270 N.ar    1  UNL1       -0.2446
     19 C           1.9338   -0.5350   19.0176 C.3     1  UNL1        0.0394
     20 C           2.8039    0.1468   18.0037 C.3     1  UNL1        0.0765
     21 N           3.3042    1.5376   18.2587 N.3     1  UNL1       -0.2700
     22 C           2.3389    2.6274   18.6200 C.3     1  UNL1        0.0897
     23 C           4.7698    1.8387   18.1525 C.3     1  UNL1        0.0897
@<TRIPOS>BOND
     1     1     2    1
     2     2     3   ar
     3     3     4   ar
     4     4     5   ar
     5     5     6   ar
     6     6     7   ar
     7     6     8    1
     8     8     9    1
     9     9    19    1
    10    19    20    1
    11    20    21    1
    12    21    22    1
    13    21    23    1
    14     9    10    2
    15    10    11    1
    16    11    12    1
    17    11    13    1
    18    13    14   ar
    19    14    15   ar
    20    15    16   ar
    21    16    17   ar
    22    17    18   ar
    23     7     2   ar
    24    18    13   ar
    25    10     5    1
@<TRIPOS>MOLECULE
*****
 23 25 0 0 0
SMALL
GASTEIGER

@<TRIPOS>ATOM
      1 C           0.2840    2.1011   23.9380 C.3     1  UNL1        0.0310
      2 C           1.1223    1.1034   23.1951 C.ar    1  UNL1       -0.0222
      3 C           0.9831    0.9662   21.7079 C.ar    1  UNL1       -0.0043
      4 C           1.8215   -0.0314   20.9650 C.ar    1  UNL1       -0.0009
      5 C           2.7990   -0.8918   21.7093 C.ar    1  UNL1       -0.0079
      6 C           2.9383   -0.7546   23.1965 C.ar    1  UNL1       -0.0187
      7 C           2.0999    0.2431   23.9394 C.ar    1  UNL1       -0.0082
      8 C           3.9785   -1.7324   23.6569 C.3     1  UNL1        0.0480
      9 C           4.4821   -2.4740   22.4543 C.2     1  UNL1       -0.0421
     10 C           3.7531   -1.9545   21.2506 C.2     1  UNL1       -0.0246
     11 C           3.9447   -2.4165   19.8364 C.3     1  UNL1        0.0634
     12 C           3.3110   -3.6945   19.3726 C.3     1  UNL1        0.0111
     13 C           4.7699   -1.6006   18.8861 C.ar    1  UNL1        0.0818
     14 C           6.0034   -2.1891   18.2680 C.ar    1  UNL1        0.1139
     15 N           6.8287   -1.3731   17.3176 N.ar    1  UNL1       -0.2394
     16 C           6.4203    0.0315   16.9853 C.ar    1  UNL1        0.1195
     17 C           5.1867    0.6200   17.6033 C.ar    1  UNL1        0.1191
     18 N           4.3616   -0.1960   18.5537 N.ar    1  UNL1       -0.2446
     19 C           5.5305   -3.5468   22.4551 C.3     1  UNL1        0.0394
     20 C           6.9714   -3.1871   22.6662 C.3     1  UNL1        0.0765
     21 N           7.7671   -2.5882   21.5446 N.3     1  UNL1       -0.2700
     22 C           8.5650   -3.4743   20.6345 C.3     1  UNL1        0.0897
     23 C           7.7648   -1.1033   21.3329 C.3     1  UNL1        0.0897
@<TRIPOS>BOND
     1     1     2    1
     2     2     3   ar
     3     3     4   ar
     4     4     5   ar
     5     5     6   ar
     6     6     7   ar
     7     6     8    1
     8     8     9    1
     9     9    19    1
    10    19    20    1
    11    20    21    1
    12    21    22    1
    13    21    23    1
    14     9    10    2
    15    10    11    1
    16    11    12    1
    17    11    13    1
    18    13    14   ar
    19    14    15   ar
    20    15    16   ar
    21    16    17   ar
    22    17    18   ar
    23     7     2   ar
    24    18    13   ar
    25    10     5    1
@<TRIPOS>MOLECULE
*****
 23 25 0 0 0
SMALL
GASTEIGER

@<TRIPOS>ATOM
      1 C           3.5799   -0.1737   27.3131 C.3     1  UNL1        0.0310
      2 C           3.5146   -0.4649   25.8431 C.ar    1  UNL1       -0.0222
      3 C           2.7619    0.4558   24.9289 C.ar    1  UNL1       -0.0043
      4 C           2.6966    0.1647   23.4589 C.ar    1  UNL1       -0.0009
      5 C           3.3841   -1.0471   22.9030 C.ar    1  UNL1       -0.0079
      6 C           4.1368   -1.9677   23.8172 C.ar    1  UNL1       -0.0187
      7 C           4.2021   -1.6766   25.2872 C.ar    1  UNL1       -0.0082
      8 C           4.7111   -3.0775   22.9873 C.3     1  UNL1        0.0480
      9 C           4.3133   -2.8427   21.5602 C.2     1  UNL1       -0.0421
     10 C           3.4931   -1.5878   21.5081 C.2     1  UNL1       -0.0246
     11 C           2.8882   -0.9803   20.2773 C.3     1  UNL1        0.0634
     12 C           1.3978   -0.8662   20.1521 C.3     1  UNL1        0.0111
     13 C           3.7736   -0.4870   19.1716 C.ar    1  UNL1        0.0818
     14 C           3.7120   -1.1300   17.8178 C.ar    1  UNL1        0.1139
     15 N           4.5975   -0.6366   16.7121 N.ar    1  UNL1       -0.2394
     16 C           5.5446    0.4999   16.9602 C.ar    1  UNL1        0.1195
     17 C           5.6062    1.1429   18.3140 C.ar    1  UNL1        0.1191
     18 N           4.7208    0.6495   19.4196 N.ar    1  UNL1       -0.2446
     19 C           4.6725   -3.7104   20.3905 C.3     1  UNL1        0.0394
     20 C           6.1100   -4.0362   20.1119 C.3     1  UNL1        0.0765
     21 N           7.1197   -2.9333   19.9937 N.3     1  UNL1       -0.2700
     22 C           7.2831   -2.2021   18.6943 C.3     1  UNL1        0.0897
     23 C           7.9661   -2.5617   21.1750 C.3     1  UNL1        0.0897
@<TRIPOS>BOND
     1     1     2    1
     2     2     3   ar
     3     3     4   ar
     4     4     5   ar
     5     5     6   ar
     6     6     7   ar
     7     6     8    1
     8     8     9    1
     9     9    19    1
    10    19    20    1
    11    20    21    1
    12    21    22    1
    13    21    23    1
    14     9    10    2
    15    10    11    1
    16    11    12    1
    17    11    13    1
    18    13    14   ar
    19    14    15   ar
    20    15    16   ar
    21    16    17   ar
    22    17    18   ar
    23     7     2   ar
    24    18    13   ar
    25    10     5    1
