@<TRIPOS>MOLECULE
*****
 30 35 0 0 0
SMALL
GASTEIGER

@<TRIPOS>ATOM
      1 N          -4.8891  -16.5366   24.0022 N.ar    1  UNL1       -0.2850
      2 C          -4.4379  -16.0463   25.3460 C.ar    1  UNL1        0.1828
      3 N          -5.6433  -15.5460   26.0855 N.ar    1  UNL1       -0.2236
      4 C          -6.8393  -15.7270   25.1987 C.ar    1  UNL1        0.0991
      5 C          -8.2927  -15.4135   25.3973 C.ar    1  UNL1        0.0206
      6 C          -9.2800  -15.7122   24.3082 C.ar    1  UNL1        0.0014
      7 C          -8.8139  -16.3245   23.0206 C.ar    1  UNL1       -0.0014
      8 C          -7.3606  -16.6380   22.8220 C.ar    1  UNL1        0.0188
      9 C          -6.3733  -16.3393   23.9111 C.ar    1  UNL1        0.0831
     10 C          -4.2758  -18.5051   22.4213 C.ar    1  UNL1        0.1544
     11 C          -3.3972  -19.0900   21.3556 C.ar    1  UNL1        0.0352
     12 C          -2.2530  -18.2914   20.8050 C.ar    1  UNL1       -0.0059
     13 C          -1.9876  -16.9079   21.3201 C.ar    1  UNL1       -0.0074
     14 C          -2.8662  -16.3229   22.3858 C.ar    1  UNL1        0.0175
     15 C          -4.0104  -17.1216   22.9364 C.ar    1  UNL1        0.0991
     16 C          -0.7949  -16.3630   20.5917 C.3     1  UNL1        0.0957
     17 N          -0.3232  -17.4098   19.6265 N.3     1  UNL1       -0.2900
     18 C          -1.2244  -18.6016   19.7583 C.3     1  UNL1        0.0957
     19 H           0.6368  -17.6757   19.8461 H       1  UNL1        0.1239
     20 C          -6.2721  -20.1263   22.0515 C.3     1  UNL1        0.2525
     21 O          -5.4200  -19.3038   22.9719 O.3     1  UNL1       -0.4700
     22 C          -9.8012  -16.6232   21.9315 C.2     1  UNL1       -0.0026
     23 C         -10.2743  -15.5248   21.0261 C.2     1  UNL1        0.0471
     24 C         -11.2616  -15.8236   19.9371 C.2     1  UNL1        0.2354
     25 N         -11.7758  -17.2206   19.7535 N.2     1  UNL1       -0.0341
     26 C         -11.3028  -18.3190   20.6589 C.2     1  UNL1        0.3593
     27 N         -11.6305  -19.7815   20.7188 N.2     1  UNL1       -0.0344
     28 C         -10.8458  -20.3867   21.8448 C.2     1  UNL1        0.2320
     29 C         -10.0331  -19.2982   22.4808 C.2     1  UNL1        0.0408
     30 C         -10.3155  -18.0203   21.7480 C.3     1  UNL1        0.1600
@<TRIPOS>BOND
     1    20    21    1
     2    21    10    1
     3    10    11   ar
     4    11    12   ar
     5    12    13   ar
     6    13    14   ar
     7    14    15   ar
     8    15     1    1
     9     1     2   ar
    10     2     3   ar
    11     3     4   ar
    12     4     5   ar
    13     5     6   ar
    14     6     7   ar
    15     7    22    1
    16    22    23    2
    17    23    24    1
    18    24    25    2
    19    25    26    1
    20    26    27    2
    21    27    28    1
    22    28    29    2
    23    29    30    1
    24     7     8   ar
    25     8     9   ar
    26    13    16    1
    27    16    17    1
    28    17    18    1
    29    15    10   ar
    30     9     1   ar
    31    18    12    1
    32     9     4   ar
    33    30    22    1
    34    30    26    1
    35    17    19    1
@<TRIPOS>MOLECULE
*****
 30 35 0 0 0
SMALL
GASTEIGER

@<TRIPOS>ATOM
      1 N          -4.9521  -16.6069   24.0543 N.ar    1  UNL1       -0.2850
      2 C          -4.3996  -16.1302   25.3648 C.ar    1  UNL1        0.1828
      3 N          -5.5457  -15.6443   26.2018 N.ar    1  UNL1       -0.2236
      4 C          -6.8064  -15.8208   25.4086 C.ar    1  UNL1        0.0991
      5 C          -8.2412  -15.5167   25.7234 C.ar    1  UNL1        0.0206
      6 C          -9.3091  -15.8074   24.7110 C.ar    1  UNL1        0.0014
      7 C          -8.9423  -16.4024   23.3837 C.ar    1  UNL1       -0.0014
      8 C          -7.5076  -16.7065   23.0689 C.ar    1  UNL1        0.0188
      9 C          -6.4397  -16.4157   24.0814 C.ar    1  UNL1        0.0831
     10 C          -4.5702  -18.4720   22.2864 C.ar    1  UNL1        0.1544
     11 C          -3.7749  -19.0402   21.1486 C.ar    1  UNL1        0.0352
     12 C          -2.5661  -18.3114   20.6409 C.ar    1  UNL1       -0.0059
     13 C          -2.1526  -17.0145   21.2709 C.ar    1  UNL1       -0.0074
     14 C          -2.9480  -16.4463   22.4087 C.ar    1  UNL1        0.0175
     15 C          -4.1568  -17.1751   22.9164 C.ar    1  UNL1        0.0991
     16 C          -0.9245  -16.5255   20.5621 C.3     1  UNL1        0.0957
     17 N          -0.5788  -17.5203   19.4939 N.3     1  UNL1       -0.2900
     18 C          -1.5934  -18.6240   19.5426 C.3     1  UNL1        0.0957
     19 H           0.3531  -17.8991   19.6622 H       1  UNL1        0.1239
     20 C          -6.4524  -20.2275   21.9327 C.3     1  UNL1        0.2525
     21 O          -5.7790  -19.2008   22.7941 O.3     1  UNL1       -0.4700
     22 C         -10.0102  -16.6931   22.3713 C.2     1  UNL1       -0.0026
     23 C         -10.9707  -17.8228   22.5976 C.2     1  UNL1        0.0471
     24 C         -12.0386  -18.1135   21.5852 C.2     1  UNL1        0.2354
     25 N         -12.1460  -17.2747   20.3464 N.2     1  UNL1       -0.0341
     26 C         -11.1854  -16.1450   20.1200 C.2     1  UNL1        0.3593
     27 N         -11.0470  -15.1539   19.0026 N.2     1  UNL1       -0.0344
     28 C          -9.8936  -14.2506   19.3244 C.2     1  UNL1        0.2320
     29 C          -9.3191  -14.6835   20.6407 C.2     1  UNL1        0.0408
     30 C         -10.1175  -15.8542   21.1324 C.3     1  UNL1        0.1600
@<TRIPOS>BOND
     1    20    21    1
     2    21    10    1
     3    10    11   ar
     4    11    12   ar
     5    12    13   ar
     6    13    14   ar
     7    14    15   ar
     8    15     1    1
     9     1     2   ar
    10     2     3   ar
    11     3     4   ar
    12     4     5   ar
    13     5     6   ar
    14     6     7   ar
    15     7    22    1
    16    22    23    2
    17    23    24    1
    18    24    25    2
    19    25    26    1
    20    26    27    2
    21    27    28    1
    22    28    29    2
    23    29    30    1
    24     7     8   ar
    25     8     9   ar
    26    13    16    1
    27    16    17    1
    28    17    18    1
    29    15    10   ar
    30     9     1   ar
    31    18    12    1
    32     9     4   ar
    33    30    22    1
    34    30    26    1
    35    17    19    1
@<TRIPOS>MOLECULE
*****
 30 35 0 0 0
SMALL
GASTEIGER

@<TRIPOS>ATOM
      1 N          -5.4115  -16.9361   23.6812 N.ar    1  UNL1       -0.2850
      2 C          -4.5603  -16.1627   24.6441 C.ar    1  UNL1        0.1828
      3 N          -5.4669  -15.3170   25.4884 N.ar    1  UNL1       -0.2236
      4 C          -6.8784  -15.5677   25.0472 C.ar    1  UNL1        0.0991
      5 C          -8.1906  -15.0141   25.5183 C.ar    1  UNL1        0.0206
      6 C          -9.4685  -15.4612   24.8724 C.ar    1  UNL1        0.0014
      7 C          -9.4342  -16.4619   23.7555 C.ar    1  UNL1       -0.0014
      8 C          -8.1221  -17.0155   23.2845 C.ar    1  UNL1        0.0188
      9 C          -6.8442  -16.5684   23.9303 C.ar    1  UNL1        0.0831
     10 C          -3.5306  -17.7688   22.0941 C.ar    1  UNL1        0.1544
     11 C          -3.0360  -18.7395   21.0630 C.ar    1  UNL1        0.0352
     12 C          -3.9276  -19.8482   20.5880 C.ar    1  UNL1       -0.0059
     13 C          -5.3139  -19.9863   21.1440 C.ar    1  UNL1       -0.0074
     14 C          -5.8085  -19.0156   22.1751 C.ar    1  UNL1        0.0175
     15 C          -4.9168  -17.9068   22.6501 C.ar    1  UNL1        0.0991
     16 C          -5.9603  -21.1708   20.4889 C.3     1  UNL1        0.0957
     17 N          -4.9735  -21.7647   19.5280 N.3     1  UNL1       -0.2900
     18 C          -3.7172  -20.9474   19.5892 C.3     1  UNL1        0.0957
     19 H          -5.3550  -21.7427   18.5823 H       1  UNL1        0.1239
     20 C          -1.6836  -16.0053   21.6159 C.3     1  UNL1        0.2525
     21 O          -2.6389  -16.6600   22.5691 O.3     1  UNL1       -0.4700
     22 C         -10.7121  -16.9090   23.1096 C.2     1  UNL1       -0.0026
     23 C         -11.6536  -17.8090   23.8536 C.2     1  UNL1        0.0471
     24 C         -12.9314  -18.2561   23.2077 C.2     1  UNL1        0.2354
     25 N         -13.2678  -17.8032   21.8179 N.2     1  UNL1       -0.0341
     26 C         -12.3263  -16.9031   21.0738 C.2     1  UNL1        0.3593
     27 N         -12.3889  -16.2985   19.7026 N.2     1  UNL1       -0.0344
     28 C         -11.1497  -15.4776   19.5010 C.2     1  UNL1        0.2320
     29 C         -10.3213  -15.5751   20.7476 C.2     1  UNL1        0.0408
     30 C         -11.0484  -16.4561   21.7197 C.3     1  UNL1        0.1600
@<TRIPOS>BOND
     1    20    21    1
     2    21    10    1
     3    10    11   ar
     4    11    12   ar
     5    12    13   ar
     6    13    14   ar
     7    14    15   ar
     8    15     1    1
     9     1     2   ar
    10     2     3   ar
    11     3     4   ar
    12     4     5   ar
    13     5     6   ar
    14     6     7   ar
    15     7    22    1
    16    22    23    2
    17    23    24    1
    18    24    25    2
    19    25    26    1
    20    26    27    2
    21    27    28    1
    22    28    29    2
    23    29    30    1
    24     7     8   ar
    25     8     9   ar
    26    13    16    1
    27    16    17    1
    28    17    18    1
    29    15    10   ar
    30     9     1   ar
    31    18    12    1
    32     9     4   ar
    33    30    22    1
    34    30    26    1
    35    17    19    1
@<TRIPOS>MOLECULE
*****
 30 35 0 0 0
SMALL
GASTEIGER

@<TRIPOS>ATOM
      1 N          -9.6032  -18.0725   22.5920 N.ar    1  UNL1       -0.2850
      2 C         -10.9683  -18.1025   21.9710 C.ar    1  UNL1        0.1828
      3 N         -10.8431  -18.7107   20.6055 N.ar    1  UNL1       -0.2236
      4 C          -9.4006  -19.0565   20.3827 C.ar    1  UNL1        0.0991
      5 C          -8.6859  -19.6796   19.2203 C.ar    1  UNL1        0.0206
      6 C          -7.2048  -19.9083   19.2857 C.ar    1  UNL1        0.0014
      7 C          -6.4386  -19.5138   20.5135 C.ar    1  UNL1       -0.0014
      8 C          -7.1533  -18.8907   21.6757 C.ar    1  UNL1        0.0188
      9 C          -8.6343  -18.6621   21.6103 C.ar    1  UNL1        0.0831
     10 C          -9.8405  -18.2009   25.1760 C.ar    1  UNL1        0.1544
     11 C          -9.5035  -17.6738   26.5393 C.ar    1  UNL1        0.0352
     12 C          -8.5920  -16.4911   26.6818 C.ar    1  UNL1       -0.0059
     13 C          -8.0176  -15.8355   25.4611 C.ar    1  UNL1       -0.0074
     14 C          -8.3546  -16.3626   24.0978 C.ar    1  UNL1        0.0175
     15 C          -9.2661  -17.5453   23.9553 C.ar    1  UNL1        0.0991
     16 C          -7.1545  -14.6940   25.9107 C.3     1  UNL1        0.0957
     17 N          -7.1955  -14.6442   27.4093 N.3     1  UNL1       -0.2900
     18 C          -8.0840  -15.7548   27.8859 C.3     1  UNL1        0.0957
     19 H          -7.5696  -13.7460   27.7157 H       1  UNL1        0.1239
     20 C         -10.1868  -20.7285   24.6846 C.3     1  UNL1        0.2525
     21 O         -10.7521  -19.3837   25.0335 O.3     1  UNL1       -0.4700
     22 C          -4.9575  -19.7425   20.5789 C.2     1  UNL1       -0.0026
     23 C          -4.3026  -20.6940   19.6221 C.2     1  UNL1        0.0471
     24 C          -2.8215  -20.9226   19.6875 C.2     1  UNL1        0.2354
     25 N          -1.9955  -20.1998   20.7097 N.2     1  UNL1       -0.0341
     26 C          -2.6504  -19.2482   21.6666 C.2     1  UNL1        0.3593
     27 N          -2.0988  -18.3995   22.7735 N.2     1  UNL1       -0.0344
     28 C          -3.2389  -17.6462   23.3922 C.2     1  UNL1        0.2320
     29 C          -4.4951  -18.0295   22.6677 C.2     1  UNL1        0.0408
     30 C          -4.1315  -19.0195   21.6012 C.3     1  UNL1        0.1600
@<TRIPOS>BOND
     1    20    21    1
     2    21    10    1
     3    10    11   ar
     4    11    12   ar
     5    12    13   ar
     6    13    14   ar
     7    14    15   ar
     8    15     1    1
     9     1     2   ar
    10     2     3   ar
    11     3     4   ar
    12     4     5   ar
    13     5     6   ar
    14     6     7   ar
    15     7    22    1
    16    22    23    2
    17    23    24    1
    18    24    25    2
    19    25    26    1
    20    26    27    2
    21    27    28    1
    22    28    29    2
    23    29    30    1
    24     7     8   ar
    25     8     9   ar
    26    13    16    1
    27    16    17    1
    28    17    18    1
    29    15    10   ar
    30     9     1   ar
    31    18    12    1
    32     9     4   ar
    33    30    22    1
    34    30    26    1
    35    17    19    1
@<TRIPOS>MOLECULE
*****
 30 35 0 0 0
SMALL
GASTEIGER

@<TRIPOS>ATOM
      1 N           0.5140    1.9477   23.7224 N.ar    1  UNL1       -0.2850
      2 C          -0.3710    2.8586   22.9244 C.ar    1  UNL1        0.1828
      3 N          -0.2030    2.5146   21.4741 N.ar    1  UNL1       -0.2236
      4 C           0.7858    1.3910   21.3758 C.ar    1  UNL1        0.0991
      5 C           1.3400    0.6416   20.2005 C.ar    1  UNL1        0.0206
      6 C           2.3373   -0.4582   20.4147 C.ar    1  UNL1        0.0014
      7 C           2.7805   -0.8085   21.8043 C.ar    1  UNL1       -0.0014
      8 C           2.2263   -0.0592   22.9796 C.ar    1  UNL1        0.0188
      9 C           1.2290    1.0406   22.7654 C.ar    1  UNL1        0.0831
     10 C           1.8060    2.6646   25.8594 C.ar    1  UNL1        0.1544
     11 C           1.9507    2.6613   27.3524 C.ar    1  UNL1        0.0352
     12 C           0.9480    1.9376   28.2015 C.ar    1  UNL1       -0.0059
     13 C          -0.1994    1.2173   27.5576 C.ar    1  UNL1       -0.0074
     14 C          -0.3441    1.2206   26.0646 C.ar    1  UNL1        0.0175
     15 C           0.6587    1.9443   25.2155 C.ar    1  UNL1        0.0991
     16 C          -1.0251    0.5956   28.6445 C.3     1  UNL1        0.0957
     17 N          -0.3881    0.9316   29.9603 N.3     1  UNL1       -0.2900
     18 C           0.8314    1.7611   29.6865 C.3     1  UNL1        0.0957
     19 H          -0.1220    0.0745   30.4450 H       1  UNL1        0.1239
     20 C           4.1410    2.7612   24.7243 C.3     1  UNL1        0.2525
     21 O           2.8088    3.3883   25.0104 O.3     1  UNL1       -0.4700
     22 C           3.7778   -1.9083   22.0186 C.2     1  UNL1       -0.0026
     23 C           4.4279   -2.0805   23.3594 C.2     1  UNL1        0.0471
     24 C           5.4252   -3.1803   23.5736 C.2     1  UNL1        0.2354
     25 N           5.7724   -4.1078   22.4471 N.2     1  UNL1       -0.0341
     26 C           5.1223   -3.9357   21.1063 C.2     1  UNL1        0.3593
     27 N           5.2641   -4.6902   19.8178 N.2     1  UNL1       -0.0344
     28 C           4.3545   -4.0569   18.8071 C.2     1  UNL1        0.2320
     29 C           3.6504   -2.9108   19.4711 C.2     1  UNL1        0.0408
     30 C           4.1249   -2.8359   20.8920 C.3     1  UNL1        0.1600
@<TRIPOS>BOND
     1    20    21    1
     2    21    10    1
     3    10    11   ar
     4    11    12   ar
     5    12    13   ar
     6    13    14   ar
     7    14    15   ar
     8    15     1    1
     9     1     2   ar
    10     2     3   ar
    11     3     4   ar
    12     4     5   ar
    13     5     6   ar
    14     6     7   ar
    15     7    22    1
    16    22    23    2
    17    23    24    1
    18    24    25    2
    19    25    26    1
    20    26    27    2
    21    27    28    1
    22    28    29    2
    23    29    30    1
    24     7     8   ar
    25     8     9   ar
    26    13    16    1
    27    16    17    1
    28    17    18    1
    29    15    10   ar
    30     9     1   ar
    31    18    12    1
    32     9     4   ar
    33    30    22    1
    34    30    26    1
    35    17    19    1
@<TRIPOS>MOLECULE
*****
 30 35 0 0 0
SMALL
GASTEIGER

@<TRIPOS>ATOM
      1 N           0.5378    1.8950   22.9418 N.ar    1  UNL1       -0.2850
      2 C          -0.3658    2.9074   22.3027 C.ar    1  UNL1        0.1828
      3 N          -0.3800    2.6488   20.8252 N.ar    1  UNL1       -0.2236
      4 C           0.5149    1.4767   20.5512 C.ar    1  UNL1        0.0991
      5 C           0.8865    0.7733   19.2795 C.ar    1  UNL1        0.0206
      6 C           1.8254   -0.3959   19.3158 C.ar    1  UNL1        0.0014
      7 C           2.3927   -0.8618   20.6240 C.ar    1  UNL1       -0.0014
      8 C           2.0211   -0.1585   21.8957 C.ar    1  UNL1        0.0188
      9 C           1.0821    1.0108   21.8593 C.ar    1  UNL1        0.0831
     10 C           2.2194    2.1056   24.9111 C.ar    1  UNL1        0.1544
     11 C           2.5251    1.9965   26.3755 C.ar    1  UNL1        0.0352
     12 C           1.4549    1.5679   27.3352 C.ar    1  UNL1       -0.0059
     13 C           0.0791    1.2482   26.8304 C.ar    1  UNL1       -0.0074
     14 C          -0.2267    1.3572   25.3660 C.ar    1  UNL1        0.0175
     15 C           0.8436    1.7859   24.4063 C.ar    1  UNL1        0.0991
     16 C          -0.7659    0.8542   28.0055 C.3     1  UNL1        0.0957
     17 N           0.0878    0.9303   29.2365 N.3     1  UNL1       -0.2900
     18 C           1.4603    1.3714   28.8223 C.3     1  UNL1        0.0957
     19 H           0.1381    0.0132   29.6801 H       1  UNL1        0.1239
     20 C           4.6669    1.9492   24.0537 C.3     1  UNL1        0.2525
     21 O           3.2896    2.5343   23.9514 O.3     1  UNL1       -0.4700
     22 C           3.3316   -2.0310   20.6604 C.2     1  UNL1       -0.0026
     23 C           3.5246   -2.8764   19.4364 C.2     1  UNL1        0.0471
     24 C           4.4635   -4.0456   19.4728 C.2     1  UNL1        0.2354
     25 N           5.2095   -4.3695   20.7332 N.2     1  UNL1       -0.0341
     26 C           5.0166   -3.5241   21.9572 C.2     1  UNL1        0.3593
     27 N           5.6104   -3.5991   23.3325 N.2     1  UNL1       -0.0344
     28 C           5.0385   -2.4762   24.1462 C.2     1  UNL1        0.2320
     29 C           4.0912   -1.7073   23.2737 C.2     1  UNL1        0.0408
     30 C           4.0776   -2.3549   21.9208 C.3     1  UNL1        0.1600
@<TRIPOS>BOND
     1    20    21    1
     2    21    10    1
     3    10    11   ar
     4    11    12   ar
     5    12    13   ar
     6    13    14   ar
     7    14    15   ar
     8    15     1    1
     9     1     2   ar
    10     2     3   ar
    11     3     4   ar
    12     4     5   ar
    13     5     6   ar
    14     6     7   ar
    15     7    22    1
    16    22    23    2
    17    23    24    1
    18    24    25    2
    19    25    26    1
    20    26    27    2
    21    27    28    1
    22    28    29    2
    23    29    30    1
    24     7     8   ar
    25     8     9   ar
    26    13    16    1
    27    16    17    1
    28    17    18    1
    29    15    10   ar
    30     9     1   ar
    31    18    12    1
    32     9     4   ar
    33    30    22    1
    34    30    26    1
    35    17    19    1
@<TRIPOS>MOLECULE
*****
 30 35 0 0 0
SMALL
GASTEIGER

@<TRIPOS>ATOM
      1 N           0.4743    2.3569   22.3073 N.ar    1  UNL1       -0.2850
      2 C          -0.5551    3.3700   21.9023 C.ar    1  UNL1        0.1828
      3 N          -0.7040    3.3087   20.4109 N.ar    1  UNL1       -0.2236
      4 C           0.2332    2.2577   19.8943 C.ar    1  UNL1        0.0991
      5 C           0.5177    1.7604   18.5080 C.ar    1  UNL1        0.0206
      6 C           1.5304    0.6748   18.2938 C.ar    1  UNL1        0.0014
      7 C           2.2586    0.0865   19.4659 C.ar    1  UNL1       -0.0014
      8 C           1.9742    0.5839   20.8521 C.ar    1  UNL1        0.0188
      9 C           0.9615    1.6695   21.0663 C.ar    1  UNL1        0.0831
     10 C           2.3732    2.2910   24.0793 C.ar    1  UNL1        0.1544
     11 C           2.8344    2.0139   25.4794 C.ar    1  UNL1        0.0352
     12 C           1.8577    1.5257   26.5080 C.ar    1  UNL1       -0.0059
     13 C           0.4199    1.3145   26.1363 C.ar    1  UNL1       -0.0074
     14 C          -0.0413    1.5916   24.7361 C.ar    1  UNL1        0.0175
     15 C           0.9355    2.0798   23.7076 C.ar    1  UNL1        0.0991
     16 C          -0.3074    0.8290   27.3550 C.3     1  UNL1        0.0957
     17 N           0.6809    0.7402   28.4799 N.3     1  UNL1       -0.2900
     18 C           2.0190    1.1707   27.9564 C.3     1  UNL1        0.0957
     19 H           0.7344   -0.2205   28.8185 H       1  UNL1        0.1239
     20 C           4.7503    2.2425   23.0320 C.3     1  UNL1        0.2525
     21 O           3.3499    2.7792   23.0508 O.3     1  UNL1       -0.4700
     22 C           3.2713   -0.9991   19.2516 C.2     1  UNL1       -0.0026
     23 C           3.0620   -2.3518   19.8651 C.2     1  UNL1        0.0471
     24 C           4.0747   -3.4374   19.6509 C.2     1  UNL1        0.2354
     25 N           5.2967   -3.1703   18.8231 N.2     1  UNL1       -0.0341
     26 C           5.5061   -1.8176   18.2095 C.2     1  UNL1        0.3593
     27 N           6.6050   -1.2637   17.3520 N.2     1  UNL1       -0.0344
     28 C           6.2715    0.1642   17.0362 C.2     1  UNL1        0.2320
     29 C           4.9665    0.4928   17.6986 C.2     1  UNL1        0.0408
     30 C           4.4934   -0.7320   18.4238 C.3     1  UNL1        0.1600
@<TRIPOS>BOND
     1    20    21    1
     2    21    10    1
     3    10    11   ar
     4    11    12   ar
     5    12    13   ar
     6    13    14   ar
     7    14    15   ar
     8    15     1    1
     9     1     2   ar
    10     2     3   ar
    11     3     4   ar
    12     4     5   ar
    13     5     6   ar
    14     6     7   ar
    15     7    22    1
    16    22    23    2
    17    23    24    1
    18    24    25    2
    19    25    26    1
    20    26    27    2
    21    27    28    1
    22    28    29    2
    23    29    30    1
    24     7     8   ar
    25     8     9   ar
    26    13    16    1
    27    16    17    1
    28    17    18    1
    29    15    10   ar
    30     9     1   ar
    31    18    12    1
    32     9     4   ar
    33    30    22    1
    34    30    26    1
    35    17    19    1
@<TRIPOS>MOLECULE
*****
 30 35 0 0 0
SMALL
GASTEIGER

@<TRIPOS>ATOM
      1 N           6.4936   -2.0700   20.0752 N.ar    1  UNL1       -0.2850
      2 C           7.2710   -1.7474   18.8336 C.ar    1  UNL1        0.1828
      3 N           8.5379   -2.5501   18.8583 N.ar    1  UNL1       -0.2236
      4 C           8.5434   -3.3688   20.1151 C.ar    1  UNL1        0.0991
      5 C           9.5358   -4.3462   20.6719 C.ar    1  UNL1        0.0206
      6 C           9.2648   -5.0268   21.9808 C.ar    1  UNL1        0.0014
      7 C           8.0013   -4.7300   22.7330 C.ar    1  UNL1       -0.0014
      8 C           7.0090   -3.7527   22.1762 C.ar    1  UNL1        0.0188
      9 C           7.2801   -3.0721   20.8673 C.ar    1  UNL1        0.0831
     10 C           3.9066   -2.0282   19.8389 C.ar    1  UNL1        0.1544
     11 C           2.5764   -1.4502   20.2213 C.ar    1  UNL1        0.0352
     12 C           2.5028   -0.3358   21.2227 C.ar    1  UNL1       -0.0059
     13 C           3.7595    0.2005   21.8417 C.ar    1  UNL1       -0.0074
     14 C           5.0898   -0.3775   21.4592 C.ar    1  UNL1        0.0175
     15 C           5.1633   -1.4919   20.4577 C.ar    1  UNL1        0.0991
     16 C           3.3771    1.2955   22.7928 C.3     1  UNL1        0.0957
     17 N           1.8840    1.4359   22.7617 N.3     1  UNL1       -0.2900
     18 C           1.3437    0.4277   21.7914 C.3     1  UNL1        0.0957
     19 H           1.6310    2.3769   22.4600 H       1  UNL1        0.1239
     20 C           3.6373   -4.5438   19.2481 C.3     1  UNL1        0.2525
     21 O           3.9801   -3.1426   18.8374 O.3     1  UNL1       -0.4700
     22 C           7.7302   -5.4106   24.0419 C.2     1  UNL1       -0.0026
     23 C           7.9883   -6.8808   24.1904 C.2     1  UNL1        0.0471
     24 C           7.7172   -7.5614   25.4993 C.2     1  UNL1        0.2354
     25 N           7.1881   -6.7719   26.6597 N.2     1  UNL1       -0.0341
     26 C           6.9300   -5.3017   26.5113 C.2     1  UNL1        0.3593
     27 N           6.4140   -4.2713   27.4714 N.2     1  UNL1       -0.0344
     28 C           6.3662   -2.9538   26.7559 C.2     1  UNL1        0.2320
     29 C           6.8526   -3.1700   25.3535 C.2     1  UNL1        0.0408
     30 C           7.2011   -4.6210   25.2024 C.3     1  UNL1        0.1600
@<TRIPOS>BOND
     1    20    21    1
     2    21    10    1
     3    10    11   ar
     4    11    12   ar
     5    12    13   ar
     6    13    14   ar
     7    14    15   ar
     8    15     1    1
     9     1     2   ar
    10     2     3   ar
    11     3     4   ar
    12     4     5   ar
    13     5     6   ar
    14     6     7   ar
    15     7    22    1
    16    22    23    2
    17    23    24    1
    18    24    25    2
    19    25    26    1
    20    26    27    2
    21    27    28    1
    22    28    29    2
    23    29    30    1
    24     7     8   ar
    25     8     9   ar
    26    13    16    1
    27    16    17    1
    28    17    18    1
    29    15    10   ar
    30     9     1   ar
    31    18    12    1
    32     9     4   ar
    33    30    22    1
    34    30    26    1
    35    17    19    1
@<TRIPOS>MOLECULE
*****
 30 35 0 0 0
SMALL
GASTEIGER

@<TRIPOS>ATOM
      1 N           1.2113    1.6605   22.5308 N.ar    1  UNL1       -0.2850
      2 C          -0.1264    2.3353   22.4594 C.ar    1  UNL1        0.1828
      3 N          -0.5836    2.3082   21.0310 N.ar    1  UNL1       -0.2236
      4 C           0.4715    1.6167   20.2197 C.ar    1  UNL1        0.0991
      5 C           0.5655    1.2998   18.7565 C.ar    1  UNL1        0.0206
      6 C           1.7689    0.5826   18.2203 C.ar    1  UNL1        0.0014
      7 C           2.8783    0.1823   19.1472 C.ar    1  UNL1       -0.0014
      8 C           2.7842    0.4992   20.6103 C.ar    1  UNL1        0.0188
      9 C           1.5809    1.2164   21.1465 C.ar    1  UNL1        0.0831
     10 C           2.4373    2.6482   24.5975 C.ar    1  UNL1        0.1544
     11 C           3.2609    2.4520   25.8357 C.ar    1  UNL1        0.0352
     12 C           3.6821    1.0719   26.2455 C.ar    1  UNL1       -0.0059
     13 C           3.2797   -0.1120   25.4170 C.ar    1  UNL1       -0.0074
     14 C           2.4561    0.0841   24.1787 C.ar    1  UNL1        0.0175
     15 C           2.0349    1.4643   23.7691 C.ar    1  UNL1        0.0991
     16 C           3.8388   -1.3435   26.0658 C.3     1  UNL1        0.0957
     17 N           4.5868   -0.9206   27.2953 N.3     1  UNL1       -0.2900
     18 C           4.4900    0.5722   27.4063 C.3     1  UNL1        0.0957
     19 H           5.5650   -1.1992   27.2183 H       1  UNL1        0.1239
     20 C           1.1487    4.8484   25.0961 C.3     1  UNL1        0.2525
     21 O           2.0161    4.0284   24.1878 O.3     1  UNL1       -0.4700
     22 C           4.0816   -0.5349   18.6110 C.2     1  UNL1       -0.0026
     23 C           5.1621    0.2337   17.9098 C.2     1  UNL1        0.0471
     24 C           6.3655   -0.4835   17.3735 C.2     1  UNL1        0.2354
     25 N           6.4883   -1.9693   17.5385 N.2     1  UNL1       -0.0341
     26 C           5.4078   -2.7380   18.2397 C.2     1  UNL1        0.3593
     27 N           5.2538   -4.1974   18.5496 N.2     1  UNL1       -0.0344
     28 C           3.9553   -4.3823   19.2774 C.2     1  UNL1        0.2320
     29 C           3.3068   -3.0370   19.4173 C.2     1  UNL1        0.0408
     30 C           4.2044   -2.0208   18.7760 C.3     1  UNL1        0.1600
@<TRIPOS>BOND
     1    20    21    1
     2    21    10    1
     3    10    11   ar
     4    11    12   ar
     5    12    13   ar
     6    13    14   ar
     7    14    15   ar
     8    15     1    1
     9     1     2   ar
    10     2     3   ar
    11     3     4   ar
    12     4     5   ar
    13     5     6   ar
    14     6     7   ar
    15     7    22    1
    16    22    23    2
    17    23    24    1
    18    24    25    2
    19    25    26    1
    20    26    27    2
    21    27    28    1
    22    28    29    2
    23    29    30    1
    24     7     8   ar
    25     8     9   ar
    26    13    16    1
    27    16    17    1
    28    17    18    1
    29    15    10   ar
    30     9     1   ar
    31    18    12    1
    32     9     4   ar
    33    30    22    1
    34    30    26    1
    35    17    19    1
