@<TRIPOS>MOLECULE
*****
 19 21 0 0 0
SMALL
GASTEIGER

@<TRIPOS>ATOM
      1 C          -6.5859  -20.2238   20.6830 C.ar    1  UNL1        0.1392
      2 C          -7.0801  -19.8585   22.0513 C.ar    1  UNL1        0.0384
      3 C          -8.4361  -19.2394   22.2184 C.ar    1  UNL1        0.0207
      4 C          -9.2980  -18.9857   21.0172 C.ar    1  UNL1        0.0657
      5 C          -8.8037  -19.3510   19.6489 C.ar    1  UNL1        0.0207
      6 C          -7.4477  -19.9700   19.4818 C.ar    1  UNL1        0.0384
      7 N         -10.6540  -18.3666   21.1843 N.ar    1  UNL1       -0.2864
      8 C         -11.5461  -18.5076   22.3819 C.ar    1  UNL1        0.1022
      9 C         -12.7995  -17.7260   22.1209 C.ar    1  UNL1        0.1196
     10 N         -12.6820  -17.1019   20.7620 N.ar    1  UNL1       -0.2220
     11 C         -11.3561  -17.4978   20.1830 C.ar    1  UNL1        0.1828
     12 O          -5.2298  -20.8428   20.5158 O.3     1  UNL1       -0.4690
     13 C          -4.1187  -20.0562   19.8861 C.3     1  UNL1        0.2508
     14 C          -2.1771  -16.6908   22.1563 C.ar    1  UNL1        0.0207
     15 C          -2.8694  -17.7950   22.8988 C.ar    1  UNL1        0.0029
     16 C          -3.5166  -18.9168   22.1420 C.ar    1  UNL1        0.0185
     17 C          -3.4715  -18.9344   20.6428 C.ar    1  UNL1        0.1026
     18 N          -2.7791  -17.8302   19.9004 N.ar    1  UNL1       -0.2445
     19 C          -2.1319  -16.7084   20.6571 C.ar    1  UNL1        0.0986
@<TRIPOS>BOND
     1    14    15   ar
     2    15    16   ar
     3    16    17   ar
     4    17    13    1
     5    13    12    1
     6    12     1    1
     7     1     2   ar
     8     2     3   ar
     9     3     4   ar
    10     4     7    1
    11     7     8   ar
    12     8     9   ar
    13     9    10   ar
    14    10    11   ar
    15     4     5   ar
    16     5     6   ar
    17    17    18   ar
    18    18    19   ar
    19    19    14   ar
    20     6     1   ar
    21    11     7   ar
@<TRIPOS>MOLECULE
*****
 19 21 0 0 0
SMALL
GASTEIGER

@<TRIPOS>ATOM
      1 C          -6.8823  -19.2931   20.4912 C.ar    1  UNL1        0.1392
      2 C          -6.9291  -18.5298   21.7817 C.ar    1  UNL1        0.0384
      3 C          -8.2368  -18.0048   22.2956 C.ar    1  UNL1        0.0207
      4 C          -9.4979  -18.2431   21.5190 C.ar    1  UNL1        0.0657
      5 C          -9.4511  -19.0064   20.2286 C.ar    1  UNL1        0.0207
      6 C          -8.1434  -19.5313   19.7147 C.ar    1  UNL1        0.0384
      7 N         -10.8057  -17.7181   22.0329 N.ar    1  UNL1       -0.2864
      8 C         -11.8324  -18.5024   22.7950 C.ar    1  UNL1        0.1022
      9 C         -12.9776  -17.5857   23.1080 C.ar    1  UNL1        0.1196
     10 N         -12.6588  -16.2348   22.5394 N.ar    1  UNL1       -0.2220
     11 C         -11.3164  -16.3165   21.8750 C.ar    1  UNL1        0.1828
     12 O          -5.5746  -19.8181   19.9773 O.3     1  UNL1       -0.4690
     13 C          -4.3776  -19.8630   20.8801 C.3     1  UNL1        0.2508
     14 C          -1.2716  -16.6140   20.6620 C.ar    1  UNL1        0.0207
     15 C          -1.3366  -17.6626   19.5914 C.ar    1  UNL1        0.0029
     16 C          -2.3719  -18.7456   19.6641 C.ar    1  UNL1        0.0185
     17 C          -3.3423  -18.7800   20.8074 C.ar    1  UNL1        0.1026
     18 N          -3.2773  -17.7314   21.8780 N.ar    1  UNL1       -0.2445
     19 C          -2.2420  -16.6484   21.8053 C.ar    1  UNL1        0.0986
@<TRIPOS>BOND
     1    14    15   ar
     2    15    16   ar
     3    16    17   ar
     4    17    13    1
     5    13    12    1
     6    12     1    1
     7     1     2   ar
     8     2     3   ar
     9     3     4   ar
    10     4     7    1
    11     7     8   ar
    12     8     9   ar
    13     9    10   ar
    14    10    11   ar
    15     4     5   ar
    16     5     6   ar
    17    17    18   ar
    18    18    19   ar
    19    19    14   ar
    20     6     1   ar
    21    11     7   ar
@<TRIPOS>MOLECULE
*****
 19 21 0 0 0
SMALL
GASTEIGER

@<TRIPOS>ATOM
      1 C          -6.6345  -19.3291   21.7543 C.ar    1  UNL1        0.1392
      2 C          -6.0843  -19.7905   20.4373 C.ar    1  UNL1        0.0384
      3 C          -4.6759  -19.4475   20.0513 C.ar    1  UNL1        0.0207
      4 C          -3.8178  -18.6432   20.9823 C.ar    1  UNL1        0.0657
      5 C          -4.3681  -18.1818   22.2993 C.ar    1  UNL1        0.0207
      6 C          -5.7764  -18.5248   22.6852 C.ar    1  UNL1        0.0384
      7 N          -2.4095  -18.3002   20.5964 N.ar    1  UNL1       -0.2864
      8 C          -1.7651  -16.9513   20.7195 C.ar    1  UNL1        0.1022
      9 C          -0.3556  -17.0633   20.2187 C.ar    1  UNL1        0.1196
     10 N          -0.1288  -18.4816   19.7861 N.ar    1  UNL1       -0.2220
     11 C          -1.3982  -19.2461   20.0195 C.ar    1  UNL1        0.1828
     12 O          -8.0428  -19.6720   22.1403 O.3     1  UNL1       -0.4690
     13 C          -9.1637  -19.4410   21.1706 C.3     1  UNL1        0.2508
     14 C         -12.3137  -16.3548   22.0666 C.ar    1  UNL1        0.0207
     15 C         -12.4758  -17.7593   22.5676 C.ar    1  UNL1        0.0029
     16 C         -11.4258  -18.7880   22.2689 C.ar    1  UNL1        0.0185
     17 C         -10.2137  -18.4123   21.4693 C.ar    1  UNL1        0.1026
     18 N         -10.0516  -17.0078   20.9683 N.ar    1  UNL1       -0.2445
     19 C         -11.1016  -15.9790   21.2669 C.ar    1  UNL1        0.0986
@<TRIPOS>BOND
     1    14    15   ar
     2    15    16   ar
     3    16    17   ar
     4    17    13    1
     5    13    12    1
     6    12     1    1
     7     1     2   ar
     8     2     3   ar
     9     3     4   ar
    10     4     7    1
    11     7     8   ar
    12     8     9   ar
    13     9    10   ar
    14    10    11   ar
    15     4     5   ar
    16     5     6   ar
    17    17    18   ar
    18    18    19   ar
    19    19    14   ar
    20     6     1   ar
    21    11     7   ar
@<TRIPOS>MOLECULE
*****
 19 21 0 0 0
SMALL
GASTEIGER

@<TRIPOS>ATOM
      1 C          -5.9116  -17.2056   23.3228 C.ar    1  UNL1        0.1392
      2 C          -6.4867  -18.2236   22.3831 C.ar    1  UNL1        0.0384
      3 C          -7.9125  -18.1068   21.9321 C.ar    1  UNL1        0.0207
      4 C          -8.7632  -16.9720   22.4207 C.ar    1  UNL1        0.0657
      5 C          -8.1880  -15.9541   23.3604 C.ar    1  UNL1        0.0207
      6 C          -6.7622  -16.0709   23.8114 C.ar    1  UNL1        0.0384
      7 N         -10.1890  -16.8552   21.9697 N.ar    1  UNL1       -0.2864
      8 C         -10.7490  -17.3664   20.6755 C.ar    1  UNL1        0.1022
      9 C         -12.2113  -17.0339   20.6396 C.ar    1  UNL1        0.1196
     10 N         -12.5550  -16.3171   21.9117 N.ar    1  UNL1       -0.2220
     11 C         -11.3051  -16.2067   22.7338 C.ar    1  UNL1        0.1828
     12 O          -4.4857  -17.3224   23.7738 O.3     1  UNL1       -0.4690
     13 C          -3.4138  -16.5315   23.0843 C.3     1  UNL1        0.2508
     14 C          -0.9319  -18.4442   19.8544 C.ar    1  UNL1        0.0207
     15 C          -1.9263  -19.2647   20.6211 C.ar    1  UNL1        0.0029
     16 C          -2.7536  -18.6271   21.6977 C.ar    1  UNL1        0.0185
     17 C          -2.5865  -17.1691   22.0076 C.ar    1  UNL1        0.1026
     18 N          -1.5921  -16.3486   21.2410 N.ar    1  UNL1       -0.2445
     19 C          -0.7648  -16.9861   20.1643 C.ar    1  UNL1        0.0986
@<TRIPOS>BOND
     1    14    15   ar
     2    15    16   ar
     3    16    17   ar
     4    17    13    1
     5    13    12    1
     6    12     1    1
     7     1     2   ar
     8     2     3   ar
     9     3     4   ar
    10     4     7    1
    11     7     8   ar
    12     8     9   ar
    13     9    10   ar
    14    10    11   ar
    15     4     5   ar
    16     5     6   ar
    17    17    18   ar
    18    18    19   ar
    19    19    14   ar
    20     6     1   ar
    21    11     7   ar
@<TRIPOS>MOLECULE
*****
 19 21 0 0 0
SMALL
GASTEIGER

@<TRIPOS>ATOM
      1 C         -10.9785  -17.9175   23.2801 C.ar    1  UNL1        0.1392
      2 C         -10.3403  -16.6419   22.8158 C.ar    1  UNL1        0.0384
      3 C          -9.2928  -15.9771   23.6590 C.ar    1  UNL1        0.0207
      4 C          -8.8836  -16.5880   24.9664 C.ar    1  UNL1        0.0657
      5 C          -9.5218  -17.8636   25.4307 C.ar    1  UNL1        0.0207
      6 C         -10.5692  -18.5283   24.5875 C.ar    1  UNL1        0.0384
      7 N          -7.8361  -15.9232   25.8096 N.ar    1  UNL1       -0.2864
      8 C          -6.4539  -15.5472   25.3646 C.ar    1  UNL1        0.1022
      9 C          -5.7505  -14.9094   26.5258 C.ar    1  UNL1        0.1196
     10 N          -6.6980  -14.8912   27.6885 N.ar    1  UNL1       -0.2220
     11 C          -7.9870  -15.5178   27.2459 C.ar    1  UNL1        0.1828
     12 O         -12.0259  -18.5823   22.4369 O.3     1  UNL1       -0.4690
     13 C         -11.6302  -19.6218   21.4306 C.3     1  UNL1        0.2508
     14 C          -7.4654  -19.6331   19.7263 C.ar    1  UNL1        0.0207
     15 C          -8.6514  -19.6106   18.8082 C.ar    1  UNL1        0.0029
     16 C         -10.0397  -19.6069   19.3764 C.ar    1  UNL1        0.0185
     17 C         -10.2419  -19.6256   20.8625 C.ar    1  UNL1        0.1026
     18 N          -9.0559  -19.6481   21.7805 N.ar    1  UNL1       -0.2445
     19 C          -7.6677  -19.6519   21.2124 C.ar    1  UNL1        0.0986
@<TRIPOS>BOND
     1    14    15   ar
     2    15    16   ar
     3    16    17   ar
     4    17    13    1
     5    13    12    1
     6    12     1    1
     7     1     2   ar
     8     2     3   ar
     9     3     4   ar
    10     4     7    1
    11     7     8   ar
    12     8     9   ar
    13     9    10   ar
    14    10    11   ar
    15     4     5   ar
    16     5     6   ar
    17    17    18   ar
    18    18    19   ar
    19    19    14   ar
    20     6     1   ar
    21    11     7   ar
@<TRIPOS>MOLECULE
*****
 19 21 0 0 0
SMALL
GASTEIGER

@<TRIPOS>ATOM
      1 C         -13.0420   -5.7751   18.9228 C.ar    1  UNL1        0.1392
      2 C         -12.6398   -5.0464   17.6749 C.ar    1  UNL1        0.0384
      3 C         -12.7964   -3.5568   17.5927 C.ar    1  UNL1        0.0207
      4 C         -13.3552   -2.7960   18.7585 C.ar    1  UNL1        0.0657
      5 C         -13.7573   -3.5247   20.0064 C.ar    1  UNL1        0.0207
      6 C         -13.6007   -5.0143   20.0885 C.ar    1  UNL1        0.0384
      7 N         -13.5118   -1.3065   18.6764 N.ar    1  UNL1       -0.2864
      8 C         -14.7809   -0.5395   18.9027 C.ar    1  UNL1        0.1022
      9 C         -14.4802    0.9186   18.7197 C.ar    1  UNL1        0.1196
     10 N         -13.0253    1.0529   18.3803 N.ar    1  UNL1       -0.2220
     11 C         -12.4267   -0.3223   18.3535 C.ar    1  UNL1        0.1828
     12 O         -12.8854   -7.2646   19.0050 O.3     1  UNL1       -0.4690
     13 C         -13.6640   -8.1527   18.0804 C.3     1  UNL1        0.2508
     14 C         -17.5531   -9.9611   19.4423 C.ar    1  UNL1        0.0207
     15 C         -17.1811   -8.5725   19.8704 C.ar    1  UNL1        0.0029
     16 C         -15.8847   -7.9697   19.4164 C.ar    1  UNL1        0.0185
     17 C         -14.9604   -8.7555   18.5344 C.ar    1  UNL1        0.1026
     18 N         -15.3324  -10.1441   18.1063 N.ar    1  UNL1       -0.2445
     19 C         -16.6288  -10.7469   18.5603 C.ar    1  UNL1        0.0986
@<TRIPOS>BOND
     1    14    15   ar
     2    15    16   ar
     3    16    17   ar
     4    17    13    1
     5    13    12    1
     6    12     1    1
     7     1     2   ar
     8     2     3   ar
     9     3     4   ar
    10     4     7    1
    11     7     8   ar
    12     8     9   ar
    13     9    10   ar
    14    10    11   ar
    15     4     5   ar
    16     5     6   ar
    17    17    18   ar
    18    18    19   ar
    19    19    14   ar
    20     6     1   ar
    21    11     7   ar
@<TRIPOS>MOLECULE
*****
 19 21 0 0 0
SMALL
GASTEIGER

@<TRIPOS>ATOM
      1 C         -12.2259   -5.8777   19.1600 C.ar    1  UNL1        0.1392
      2 C         -13.4604   -5.3330   19.8154 C.ar    1  UNL1        0.0384
      3 C         -14.7580   -6.0775   19.7064 C.ar    1  UNL1        0.0207
      4 C         -14.8211   -7.3666   18.9420 C.ar    1  UNL1        0.0657
      5 C         -13.5867   -7.9112   18.2867 C.ar    1  UNL1        0.0207
      6 C         -12.2891   -7.1667   18.3957 C.ar    1  UNL1        0.0384
      7 N         -16.1188   -8.1111   18.8330 N.ar    1  UNL1       -0.2864
      8 C         -16.8886   -8.3609   17.5701 C.ar    1  UNL1        0.1022
      9 C         -18.1200   -9.1407   17.9243 C.ar    1  UNL1        0.1196
     10 N         -18.1113   -9.3729   19.4062 N.ar    1  UNL1       -0.2220
     11 C         -16.8745   -8.7366   19.9679 C.ar    1  UNL1        0.1828
     12 O         -10.9282   -5.1332   19.2690 O.3     1  UNL1       -0.4690
     13 C         -10.3624   -4.4326   18.0695 C.3     1  UNL1        0.2508
     14 C         -11.4380   -0.1395   17.2559 C.ar    1  UNL1        0.0207
     15 C         -11.9535   -0.8212   18.4885 C.ar    1  UNL1        0.0029
     16 C         -11.5950   -2.2522   18.7597 C.ar    1  UNL1        0.0185
     17 C         -10.7209   -3.0016   17.7983 C.ar    1  UNL1        0.1026
     18 N         -10.2054   -2.3199   16.5656 N.ar    1  UNL1       -0.2445
     19 C         -10.5639   -0.8889   16.2944 C.ar    1  UNL1        0.0986
@<TRIPOS>BOND
     1    14    15   ar
     2    15    16   ar
     3    16    17   ar
     4    17    13    1
     5    13    12    1
     6    12     1    1
     7     1     2   ar
     8     2     3   ar
     9     3     4   ar
    10     4     7    1
    11     7     8   ar
    12     8     9   ar
    13     9    10   ar
    14    10    11   ar
    15     4     5   ar
    16     5     6   ar
    17    17    18   ar
    18    18    19   ar
    19    19    14   ar
    20     6     1   ar
    21    11     7   ar
@<TRIPOS>MOLECULE
*****
 19 21 0 0 0
SMALL
GASTEIGER

@<TRIPOS>ATOM
      1 C         -12.2394   -1.9749   18.9908 C.ar    1  UNL1        0.1392
      2 C         -12.9877   -2.8871   19.9172 C.ar    1  UNL1        0.0384
      3 C         -14.4248   -2.6089   20.2448 C.ar    1  UNL1        0.0207
      4 C         -15.1136   -1.4185   19.6459 C.ar    1  UNL1        0.0657
      5 C         -14.3654   -0.5064   18.7196 C.ar    1  UNL1        0.0207
      6 C         -12.9283   -0.7846   18.3920 C.ar    1  UNL1        0.0384
      7 N         -16.5507   -1.1402   19.9735 N.ar    1  UNL1       -0.2864
      8 C         -17.6980   -2.0873   19.7819 C.ar    1  UNL1        0.1022
      9 C         -18.9493   -1.3985   20.2402 C.ar    1  UNL1        0.1196
     10 N         -18.5752   -0.0257   20.7150 N.ar    1  UNL1       -0.2220
     11 C         -17.0928    0.1340   20.5503 C.ar    1  UNL1        0.1828
     12 O         -10.8023   -2.2532   18.6632 O.3     1  UNL1       -0.4690
     13 C         -10.4557   -3.1595   17.5194 C.3     1  UNL1        0.2508
     14 C         -10.3283   -7.6150   18.1377 C.ar    1  UNL1        0.0207
     15 C          -9.5867   -6.7065   19.0729 C.ar    1  UNL1        0.0029
     16 C          -9.6292   -5.2214   18.8668 C.ar    1  UNL1        0.0185
     17 C         -10.4132   -4.6447   17.7255 C.ar    1  UNL1        0.1026
     18 N         -11.1548   -5.5532   16.7903 N.ar    1  UNL1       -0.2445
     19 C         -11.1123   -7.0383   16.9964 C.ar    1  UNL1        0.0986
@<TRIPOS>BOND
     1    14    15   ar
     2    15    16   ar
     3    16    17   ar
     4    17    13    1
     5    13    12    1
     6    12     1    1
     7     1     2   ar
     8     2     3   ar
     9     3     4   ar
    10     4     7    1
    11     7     8   ar
    12     8     9   ar
    13     9    10   ar
    14    10    11   ar
    15     4     5   ar
    16     5     6   ar
    17    17    18   ar
    18    18    19   ar
    19    19    14   ar
    20     6     1   ar
    21    11     7   ar
@<TRIPOS>MOLECULE
*****
 19 21 0 0 0
SMALL
GASTEIGER

@<TRIPOS>ATOM
      1 C         -14.1703   -4.5056   19.9987 C.ar    1  UNL1        0.1392
      2 C         -15.6165   -4.1098   20.0444 C.ar    1  UNL1        0.0384
      3 C         -16.6792   -5.1109   19.7002 C.ar    1  UNL1        0.0207
      4 C         -16.2958   -6.5077   19.3103 C.ar    1  UNL1        0.0657
      5 C         -14.8496   -6.9034   19.2647 C.ar    1  UNL1        0.0207
      6 C         -13.7869   -5.9024   19.6089 C.ar    1  UNL1        0.0384
      7 N         -17.3585   -7.5088   18.9661 N.ar    1  UNL1       -0.2864
      8 C         -17.5140   -8.2126   17.6506 C.ar    1  UNL1        0.1022
      9 C         -18.7039   -9.1206   17.7485 C.ar    1  UNL1        0.1196
     10 N         -19.2839   -8.9779   19.1244 N.ar    1  UNL1       -0.2220
     11 C         -18.4524   -7.9818   19.8770 C.ar    1  UNL1        0.1828
     12 O         -13.1075   -3.5045   20.3429 O.3     1  UNL1       -0.4690
     13 C         -12.5139   -2.6418   19.2691 C.3     1  UNL1        0.2508
     14 C          -9.1496   -4.2107   16.7255 C.ar    1  UNL1        0.0207
     15 C          -9.5172   -4.9127   17.9990 C.ar    1  UNL1        0.0029
     16 C         -10.6387   -4.3897   18.8469 C.ar    1  UNL1        0.0185
     17 C         -11.3924   -3.1648   18.4212 C.ar    1  UNL1        0.1026
     18 N         -11.0248   -2.4628   17.1477 N.ar    1  UNL1       -0.2445
     19 C          -9.9034   -2.9858   16.2998 C.ar    1  UNL1        0.0986
@<TRIPOS>BOND
     1    14    15   ar
     2    15    16   ar
     3    16    17   ar
     4    17    13    1
     5    13    12    1
     6    12     1    1
     7     1     2   ar
     8     2     3   ar
     9     3     4   ar
    10     4     7    1
    11     7     8   ar
    12     8     9   ar
    13     9    10   ar
    14    10    11   ar
    15     4     5   ar
    16     5     6   ar
    17    17    18   ar
    18    18    19   ar
    19    19    14   ar
    20     6     1   ar
    21    11     7   ar
