@<TRIPOS>MOLECULE
*****
 24 26 0 0 0
SMALL
GASTEIGER

@<TRIPOS>ATOM
      1 C         -10.2850  -18.3898   21.3412 C.ar    1  UNL1        0.1889
      2 C          -9.7069  -18.9210   20.0631 C.ar    1  UNL1        0.1403
      3 N          -8.2373  -19.2053   19.9658 N.ar    1  UNL1       -0.2204
      4 C          -7.3458  -18.9586   21.1466 C.ar    1  UNL1        0.1816
      5 N          -7.9239  -18.4274   22.4247 N.ar    1  UNL1       -0.2074
      6 C          -9.3935  -18.1431   22.5220 C.ar    1  UNL1        0.1663
      7 C          -5.8762  -19.2430   21.0492 C.ar    1  UNL1        0.1170
      8 C          -5.3839  -20.3533   20.1691 C.ar    1  UNL1        0.0223
      9 C          -3.9143  -20.6376   20.0717 C.ar    1  UNL1        0.0032
     10 C          -2.9371  -19.8117   20.8546 C.ar    1  UNL1        0.0207
     11 C          -3.4295  -18.7014   21.7347 C.ar    1  UNL1        0.0989
     12 N          -4.8990  -18.4170   21.8320 N.ar    1  UNL1       -0.2407
     13 C         -12.2801  -16.7452   21.0872 C.3     1  UNL1        0.2527
     14 O         -11.7546  -18.1054   21.4386 O.3     1  UNL1       -0.4670
     15 N          -9.9716  -17.6119   23.8002 N.pl3   1  UNL1       -0.3119
     16 H         -10.5515  -18.1838   24.3533 H       1  UNL1        0.1486
     17 C          -9.6661  -16.2094   24.2357 C.3     1  UNL1        0.1177
     18 C          -8.4048  -15.9171   24.9931 C.ar    1  UNL1        0.0249
     19 C          -8.3619  -16.1072   26.4804 C.ar    1  UNL1       -0.0004
     20 C          -7.1006  -15.8150   27.2378 C.ar    1  UNL1       -0.0001
     21 C          -5.8822  -15.3326   26.5079 C.ar    1  UNL1        0.0023
     22 C          -5.9250  -15.1425   25.0206 C.ar    1  UNL1        0.0294
     23 C          -7.1863  -15.4348   24.2632 C.ar    1  UNL1        0.1377
     24 F          -7.2292  -15.2447   22.7759 F       1  UNL1       -0.2044
@<TRIPOS>BOND
     1    13    14    1
     2    14     1    1
     3     1     2   ar
     4     2     3   ar
     5     3     4   ar
     6     4     7    1
     7     7     8   ar
     8     8     9   ar
     9     9    10   ar
    10    10    11   ar
    11    11    12   ar
    12     4     5   ar
    13     5     6   ar
    14     6    15    1
    15    15    17    1
    16    17    18    1
    17    18    19   ar
    18    19    20   ar
    19    20    21   ar
    20    21    22   ar
    21    22    23   ar
    22    23    24    1
    23     6     1   ar
    24    23    18   ar
    25    12     7   ar
    26    15    16    1
@<TRIPOS>MOLECULE
*****
 24 26 0 0 0
SMALL
GASTEIGER

@<TRIPOS>ATOM
      1 C          -3.7737  -18.5457   21.7019 C.ar    1  UNL1        0.1889
      2 C          -4.2651  -19.5363   20.6884 C.ar    1  UNL1        0.1403
      3 N          -5.7375  -19.7634   20.5143 N.ar    1  UNL1       -0.2204
      4 C          -6.7186  -18.9999   21.3536 C.ar    1  UNL1        0.1816
      5 N          -6.2271  -18.0093   22.3671 N.ar    1  UNL1       -0.2074
      6 C          -4.7547  -17.7822   22.5413 C.ar    1  UNL1        0.1663
      7 C          -8.1910  -19.2270   21.1795 C.ar    1  UNL1        0.1170
      8 C          -9.0435  -19.5639   22.3668 C.ar    1  UNL1        0.0223
      9 C         -10.5159  -19.7911   22.1927 C.ar    1  UNL1        0.0032
     10 C         -11.1359  -19.6812   20.8313 C.ar    1  UNL1        0.0207
     11 C         -10.2834  -19.3443   19.6440 C.ar    1  UNL1        0.0989
     12 N          -8.8110  -19.1172   19.8181 N.ar    1  UNL1       -0.2407
     13 C          -1.3808  -18.4283   20.6967 C.3     1  UNL1        0.2527
     14 O          -2.3012  -18.3186   21.8760 O.3     1  UNL1       -0.4670
     15 N          -4.2633  -16.7915   23.5548 N.pl3   1  UNL1       -0.3119
     16 H          -3.4355  -16.9704   24.0568 H       1  UNL1        0.1486
     17 C          -5.0332  -15.5284   23.8035 C.3     1  UNL1        0.1177
     18 C          -6.1037  -15.4970   24.8537 C.ar    1  UNL1        0.0249
     19 C          -5.7333  -15.5813   26.3048 C.ar    1  UNL1       -0.0004
     20 C          -6.8039  -15.5499   27.3551 C.ar    1  UNL1       -0.0001
     21 C          -8.2447  -15.4341   26.9543 C.ar    1  UNL1        0.0023
     22 C          -8.6150  -15.3497   25.5032 C.ar    1  UNL1        0.0294
     23 C          -7.5445  -15.3812   24.4529 C.ar    1  UNL1        0.1377
     24 F          -7.9148  -15.2969   23.0018 F       1  UNL1       -0.2044
@<TRIPOS>BOND
     1    13    14    1
     2    14     1    1
     3     1     2   ar
     4     2     3   ar
     5     3     4   ar
     6     4     7    1
     7     7     8   ar
     8     8     9   ar
     9     9    10   ar
    10    10    11   ar
    11    11    12   ar
    12     4     5   ar
    13     5     6   ar
    14     6    15    1
    15    15    17    1
    16    17    18    1
    17    18    19   ar
    18    19    20   ar
    19    20    21   ar
    20    21    22   ar
    21    22    23   ar
    22    23    24    1
    23     6     1   ar
    24    23    18   ar
    25    12     7   ar
    26    15    16    1
@<TRIPOS>MOLECULE
*****
 24 26 0 0 0
SMALL
GASTEIGER

@<TRIPOS>ATOM
      1 C          -9.2577  -17.8419   20.9292 C.ar    1  UNL1        0.1889
      2 C         -10.1990  -17.2429   21.9316 C.ar    1  UNL1        0.1403
      3 N          -9.6695  -16.6952   23.2238 N.ar    1  UNL1       -0.2204
      4 C          -8.1987  -16.7465   23.5135 C.ar    1  UNL1        0.1816
      5 N          -7.2574  -17.3456   22.5111 N.ar    1  UNL1       -0.2074
      6 C          -7.7868  -17.8933   21.2189 C.ar    1  UNL1        0.1663
      7 C          -7.6693  -16.1988   24.8057 C.ar    1  UNL1        0.1170
      8 C          -8.5649  -16.1098   26.0056 C.ar    1  UNL1        0.0223
      9 C          -8.0355  -15.5621   27.2977 C.ar    1  UNL1        0.0032
     10 C          -6.6103  -15.1034   27.3900 C.ar    1  UNL1        0.0207
     11 C          -5.7147  -15.1924   26.1901 C.ar    1  UNL1        0.0989
     12 N          -6.2441  -15.7401   24.8979 N.ar    1  UNL1       -0.2407
     13 C         -10.0891  -19.8534   19.5106 C.3     1  UNL1        0.2527
     14 O          -9.7871  -18.3896   19.6370 O.3     1  UNL1       -0.4670
     15 N          -6.8454  -18.4924   20.2165 N.pl3   1  UNL1       -0.3119
     16 H          -6.9131  -18.2421   19.2667 H       1  UNL1        0.1486
     17 C          -5.8007  -19.4727   20.6611 C.3     1  UNL1        0.1177
     18 C          -4.3496  -19.0965   20.6111 C.ar    1  UNL1        0.0249
     19 C          -3.6853  -18.8438   19.2902 C.ar    1  UNL1       -0.0004
     20 C          -2.2341  -18.4677   19.2402 C.ar    1  UNL1       -0.0001
     21 C          -1.4471  -18.3442   20.5112 C.ar    1  UNL1        0.0023
     22 C          -2.1113  -18.5970   21.8322 C.ar    1  UNL1        0.0294
     23 C          -3.5625  -18.9731   21.8821 C.ar    1  UNL1        0.1377
     24 F          -4.2267  -19.2258   23.2031 F       1  UNL1       -0.2044
@<TRIPOS>BOND
     1    13    14    1
     2    14     1    1
     3     1     2   ar
     4     2     3   ar
     5     3     4   ar
     6     4     7    1
     7     7     8   ar
     8     8     9   ar
     9     9    10   ar
    10    10    11   ar
    11    11    12   ar
    12     4     5   ar
    13     5     6   ar
    14     6    15    1
    15    15    17    1
    16    17    18    1
    17    18    19   ar
    18    19    20   ar
    19    20    21   ar
    20    21    22   ar
    21    22    23   ar
    22    23    24    1
    23     6     1   ar
    24    23    18   ar
    25    12     7   ar
    26    15    16    1
@<TRIPOS>MOLECULE
*****
 24 26 0 0 0
SMALL
GASTEIGER

@<TRIPOS>ATOM
      1 C          -6.9187  -15.7250   24.9614 C.ar    1  UNL1        0.1889
      2 C          -8.4085  -15.8050   25.1169 C.ar    1  UNL1        0.1403
      3 N          -9.2446  -16.4114   24.0292 N.ar    1  UNL1       -0.2204
      4 C          -8.5910  -16.9379   22.7860 C.ar    1  UNL1        0.1816
      5 N          -7.1012  -16.8579   22.6305 N.ar    1  UNL1       -0.2074
      6 C          -6.2651  -16.2515   23.7182 C.ar    1  UNL1        0.1663
      7 C          -9.4271  -17.5444   21.6982 C.ar    1  UNL1        0.1170
      8 C          -9.3195  -19.0101   21.3985 C.ar    1  UNL1        0.0223
      9 C         -10.1557  -19.6166   20.3108 C.ar    1  UNL1        0.0032
     10 C         -11.0994  -18.7572   19.5228 C.ar    1  UNL1        0.0207
     11 C         -11.2069  -17.2915   19.8226 C.ar    1  UNL1        0.0989
     12 N         -10.3708  -16.6850   20.9103 N.ar    1  UNL1       -0.2407
     13 C          -6.5783  -15.1192   27.4648 C.3     1  UNL1        0.2527
     14 O          -6.0826  -15.1186   26.0491 O.3     1  UNL1       -0.4670
     15 N          -4.7753  -16.1715   23.5627 N.pl3   1  UNL1       -0.3119
     16 H          -4.3314  -15.2939   23.5182 H       1  UNL1        0.1486
     17 C          -3.9619  -17.4288   23.4749 C.3     1  UNL1        0.1177
     18 C          -3.4426  -17.8949   22.1471 C.ar    1  UNL1        0.0249
     19 C          -3.9657  -19.1631   21.5405 C.ar    1  UNL1       -0.0004
     20 C          -3.4463  -19.6292   20.2126 C.ar    1  UNL1       -0.0001
     21 C          -2.4040  -18.8271   19.4915 C.ar    1  UNL1        0.0023
     22 C          -1.8809  -17.5589   20.0981 C.ar    1  UNL1        0.0294
     23 C          -2.4002  -17.0928   21.4259 C.ar    1  UNL1        0.1377
     24 F          -1.8771  -15.8245   22.0325 F       1  UNL1       -0.2044
@<TRIPOS>BOND
     1    13    14    1
     2    14     1    1
     3     1     2   ar
     4     2     3   ar
     5     3     4   ar
     6     4     7    1
     7     7     8   ar
     8     8     9   ar
     9     9    10   ar
    10    10    11   ar
    11    11    12   ar
    12     4     5   ar
    13     5     6   ar
    14     6    15    1
    15    15    17    1
    16    17    18    1
    17    18    19   ar
    18    19    20   ar
    19    20    21   ar
    20    21    22   ar
    21    22    23   ar
    22    23    24    1
    23     6     1   ar
    24    23    18   ar
    25    12     7   ar
    26    15    16    1
@<TRIPOS>MOLECULE
*****
 24 26 0 0 0
SMALL
GASTEIGER

@<TRIPOS>ATOM
      1 C          -6.9166  -15.5636   25.5171 C.ar    1  UNL1        0.1889
      2 C          -5.5312  -15.7898   26.0457 C.ar    1  UNL1        0.1403
      3 N          -4.4585  -16.3146   25.1381 N.ar    1  UNL1       -0.2204
      4 C          -4.7712  -16.6133   23.7018 C.ar    1  UNL1        0.1816
      5 N          -6.1566  -16.3871   23.1731 N.ar    1  UNL1       -0.2074
      6 C          -7.2293  -15.8622   24.0808 C.ar    1  UNL1        0.1663
      7 C          -3.6985  -17.1381   22.7941 C.ar    1  UNL1        0.1170
      8 C          -3.5136  -18.6174   22.6285 C.ar    1  UNL1        0.0223
      9 C          -2.4409  -19.1422   21.7208 C.ar    1  UNL1        0.0032
     10 C          -1.5530  -18.1877   20.9788 C.ar    1  UNL1        0.0207
     11 C          -1.7379  -16.7084   21.1444 C.ar    1  UNL1        0.0989
     12 N          -2.8106  -16.1836   22.0520 N.ar    1  UNL1       -0.2407
     13 C          -8.4497  -15.8581   27.5938 C.3     1  UNL1        0.2527
     14 O          -7.9893  -15.0388   26.4248 O.3     1  UNL1       -0.4670
     15 N          -8.6147  -15.6361   23.5521 N.pl3   1  UNL1       -0.3119
     16 H          -8.7981  -14.8674   22.9649 H       1  UNL1        0.1486
     17 C          -9.7207  -16.5810   23.9181 C.3     1  UNL1        0.1177
     18 C         -10.1774  -17.6178   22.9350 C.ar    1  UNL1        0.0249
     19 C         -10.2706  -19.0560   23.3508 C.ar    1  UNL1       -0.0004
     20 C         -10.7274  -20.0928   22.3676 C.ar    1  UNL1       -0.0001
     21 C         -11.0909  -19.6913   20.9688 C.ar    1  UNL1        0.0023
     22 C         -10.9977  -18.2531   20.5531 C.ar    1  UNL1        0.0294
     23 C         -10.5409  -17.2164   21.5362 C.ar    1  UNL1        0.1377
     24 F         -10.4477  -15.7781   21.1204 F       1  UNL1       -0.2044
@<TRIPOS>BOND
     1    13    14    1
     2    14     1    1
     3     1     2   ar
     4     2     3   ar
     5     3     4   ar
     6     4     7    1
     7     7     8   ar
     8     8     9   ar
     9     9    10   ar
    10    10    11   ar
    11    11    12   ar
    12     4     5   ar
    13     5     6   ar
    14     6    15    1
    15    15    17    1
    16    17    18    1
    17    18    19   ar
    18    19    20   ar
    19    20    21   ar
    20    21    22   ar
    21    22    23   ar
    22    23    24    1
    23     6     1   ar
    24    23    18   ar
    25    12     7   ar
    26    15    16    1
@<TRIPOS>MOLECULE
*****
 24 26 0 0 0
SMALL
GASTEIGER

@<TRIPOS>ATOM
      1 C          -8.0703  -16.1763   24.5916 C.ar    1  UNL1        0.1889
      2 C          -6.7431  -15.7512   24.0369 C.ar    1  UNL1        0.1403
      3 N          -6.0043  -16.6485   23.0888 N.ar    1  UNL1       -0.2204
      4 C          -6.5927  -17.9709   22.6953 C.ar    1  UNL1        0.1816
      5 N          -7.9199  -18.3960   23.2499 N.ar    1  UNL1       -0.2074
      6 C          -8.6587  -17.4987   24.1981 C.ar    1  UNL1        0.1663
      7 C          -5.8538  -18.8683   21.7472 C.ar    1  UNL1        0.1170
      8 C          -6.5072  -20.1167   21.2330 C.ar    1  UNL1        0.0223
      9 C          -5.7684  -21.0140   20.2849 C.ar    1  UNL1        0.0032
     10 C          -4.3762  -20.6629   19.8509 C.ar    1  UNL1        0.0207
     11 C          -3.7228  -19.4144   20.3650 C.ar    1  UNL1        0.0989
     12 N          -4.4616  -18.5171   21.3132 N.ar    1  UNL1       -0.2407
     13 C          -8.4667  -15.2863   27.0000 C.3     1  UNL1        0.2527
     14 O          -8.8091  -15.2790   25.5397 O.3     1  UNL1       -0.4670
     15 N          -9.9860  -17.9239   24.7527 N.pl3   1  UNL1       -0.3119
     16 H         -10.0538  -18.2330   25.6850 H       1  UNL1        0.1486
     17 C         -11.2101  -17.8781   23.8869 C.3     1  UNL1        0.1177
     18 C         -11.1035  -18.1775   22.4210 C.ar    1  UNL1        0.0249
     19 C         -10.8583  -19.5832   21.9584 C.ar    1  UNL1       -0.0004
     20 C         -10.7517  -19.8825   20.4924 C.ar    1  UNL1       -0.0001
     21 C         -10.8903  -18.7762   19.4891 C.ar    1  UNL1        0.0023
     22 C         -11.1354  -17.3705   19.9516 C.ar    1  UNL1        0.0294
     23 C         -11.2421  -17.0711   21.4175 C.ar    1  UNL1        0.1377
     24 F         -11.4872  -15.6654   21.8801 F       1  UNL1       -0.2044
@<TRIPOS>BOND
     1    13    14    1
     2    14     1    1
     3     1     2   ar
     4     2     3   ar
     5     3     4   ar
     6     4     7    1
     7     7     8   ar
     8     8     9   ar
     9     9    10   ar
    10    10    11   ar
    11    11    12   ar
    12     4     5   ar
    13     5     6   ar
    14     6    15    1
    15    15    17    1
    16    17    18    1
    17    18    19   ar
    18    19    20   ar
    19    20    21   ar
    20    21    22   ar
    21    22    23   ar
    22    23    24    1
    23     6     1   ar
    24    23    18   ar
    25    12     7   ar
    26    15    16    1
@<TRIPOS>MOLECULE
*****
 24 26 0 0 0
SMALL
GASTEIGER

@<TRIPOS>ATOM
      1 C          -6.0036  -15.6690   24.8428 C.ar    1  UNL1        0.1889
      2 C          -4.6387  -16.2911   24.8332 C.ar    1  UNL1        0.1403
      3 N          -4.2852  -17.3078   23.7885 N.ar    1  UNL1       -0.2204
      4 C          -5.2965  -17.7023   22.7534 C.ar    1  UNL1        0.1816
      5 N          -6.6613  -17.0802   22.7629 N.ar    1  UNL1       -0.2074
      6 C          -7.0149  -16.0635   23.8076 C.ar    1  UNL1        0.1663
      7 C          -4.9429  -18.7190   21.7087 C.ar    1  UNL1        0.1170
      8 C          -5.8296  -19.9089   21.4897 C.ar    1  UNL1        0.0223
      9 C          -5.4761  -20.9255   20.4450 C.ar    1  UNL1        0.0032
     10 C          -4.2359  -20.7524   19.6193 C.ar    1  UNL1        0.0207
     11 C          -3.3492  -19.5625   19.8383 C.ar    1  UNL1        0.0989
     12 N          -3.7027  -18.5458   20.8830 N.ar    1  UNL1       -0.2407
     13 C          -6.7355  -15.0970   27.2691 C.3     1  UNL1        0.2527
     14 O          -6.3571  -14.6523   25.8874 O.3     1  UNL1       -0.4670
     15 N          -8.3798  -15.4414   23.8171 N.pl3   1  UNL1       -0.3119
     16 H          -8.4939  -14.5008   23.5498 H       1  UNL1        0.1486
     17 C          -9.5708  -16.2525   24.2340 C.3     1  UNL1        0.1177
     18 C         -10.4318  -16.9087   23.1958 C.ar    1  UNL1        0.0249
     19 C         -11.5570  -16.1451   22.5627 C.ar    1  UNL1       -0.0004
     20 C         -12.4181  -16.8014   21.5244 C.ar    1  UNL1       -0.0001
     21 C         -12.1540  -18.2213   21.1194 C.ar    1  UNL1        0.0023
     22 C         -11.0288  -18.9850   21.7526 C.ar    1  UNL1        0.0294
     23 C         -10.1678  -18.3287   22.7907 C.ar    1  UNL1        0.1377
     24 F          -9.0426  -19.0923   23.4239 F       1  UNL1       -0.2044
@<TRIPOS>BOND
     1    13    14    1
     2    14     1    1
     3     1     2   ar
     4     2     3   ar
     5     3     4   ar
     6     4     7    1
     7     7     8   ar
     8     8     9   ar
     9     9    10   ar
    10    10    11   ar
    11    11    12   ar
    12     4     5   ar
    13     5     6   ar
    14     6    15    1
    15    15    17    1
    16    17    18    1
    17    18    19   ar
    18    19    20   ar
    19    20    21   ar
    20    21    22   ar
    21    22    23   ar
    22    23    24    1
    23     6     1   ar
    24    23    18   ar
    25    12     7   ar
    26    15    16    1
@<TRIPOS>MOLECULE
*****
 24 26 0 0 0
SMALL
GASTEIGER

@<TRIPOS>ATOM
      1 C          -6.6514  -15.6110   25.5392 C.ar    1  UNL1        0.1889
      2 C          -5.3044  -16.0018   26.0710 C.ar    1  UNL1        0.1403
      3 N          -4.2517  -16.5220   25.1376 N.ar    1  UNL1       -0.2204
      4 C          -4.5459  -16.6515   23.6725 C.ar    1  UNL1        0.1816
      5 N          -5.8929  -16.2607   23.1407 N.ar    1  UNL1       -0.2074
      6 C          -6.9457  -15.7404   24.0741 C.ar    1  UNL1        0.1663
      7 C          -3.4932  -17.1717   22.7392 C.ar    1  UNL1        0.1170
      8 C          -2.5616  -16.2174   22.0527 C.ar    1  UNL1        0.0223
      9 C          -1.5089  -16.7376   21.1193 C.ar    1  UNL1        0.0032
     10 C          -1.3877  -18.2122   20.8725 C.ar    1  UNL1        0.0207
     11 C          -2.3193  -19.1665   21.5590 C.ar    1  UNL1        0.0989
     12 N          -3.3721  -18.6462   22.4924 N.ar    1  UNL1       -0.2407
     13 C          -8.3813  -16.0224   27.4334 C.3     1  UNL1        0.2527
     14 O          -7.7041  -15.0908   26.4725 O.3     1  UNL1       -0.4670
     15 N          -8.2927  -15.3496   23.5422 N.pl3   1  UNL1       -0.3119
     16 H          -8.6746  -14.4705   23.7669 H       1  UNL1        0.1486
     17 C          -9.0580  -16.2984   22.6680 C.3     1  UNL1        0.1177
     18 C          -9.4541  -17.6471   23.1916 C.ar    1  UNL1        0.0249
     19 C         -10.6717  -17.7880   24.0562 C.ar    1  UNL1       -0.0004
     20 C         -11.0678  -19.1367   24.5797 C.ar    1  UNL1       -0.0001
     21 C         -10.2463  -20.3445   24.2387 C.ar    1  UNL1        0.0023
     22 C          -9.0287  -20.2036   23.3742 C.ar    1  UNL1        0.0294
     23 C          -8.6326  -18.8549   22.8506 C.ar    1  UNL1        0.1377
     24 F          -7.4149  -18.7141   21.9860 F       1  UNL1       -0.2044
@<TRIPOS>BOND
     1    13    14    1
     2    14     1    1
     3     1     2   ar
     4     2     3   ar
     5     3     4   ar
     6     4     7    1
     7     7     8   ar
     8     8     9   ar
     9     9    10   ar
    10    10    11   ar
    11    11    12   ar
    12     4     5   ar
    13     5     6   ar
    14     6    15    1
    15    15    17    1
    16    17    18    1
    17    18    19   ar
    18    19    20   ar
    19    20    21   ar
    20    21    22   ar
    21    22    23   ar
    22    23    24    1
    23     6     1   ar
    24    23    18   ar
    25    12     7   ar
    26    15    16    1
@<TRIPOS>MOLECULE
*****
 24 26 0 0 0
SMALL
GASTEIGER

@<TRIPOS>ATOM
      1 C          -8.3367  -16.4253   24.4503 C.ar    1  UNL1        0.1889
      2 C          -7.0441  -15.9357   23.8677 C.ar    1  UNL1        0.1403
      3 N          -6.2518  -16.8202   22.9513 N.ar    1  UNL1       -0.2204
      4 C          -6.7521  -18.1942   22.6173 C.ar    1  UNL1        0.1816
      5 N          -8.0447  -18.6838   23.1999 N.ar    1  UNL1       -0.2074
      6 C          -8.8370  -17.7994   24.1164 C.ar    1  UNL1        0.1663
      7 C          -5.9598  -19.0787   21.7009 C.ar    1  UNL1        0.1170
      8 C          -4.5130  -18.7826   21.4383 C.ar    1  UNL1        0.0223
      9 C          -3.7207  -19.6670   20.5218 C.ar    1  UNL1        0.0032
     10 C          -4.3752  -20.8477   19.8679 C.ar    1  UNL1        0.0207
     11 C          -5.8220  -21.1439   20.1305 C.ar    1  UNL1        0.0989
     12 N          -6.6143  -20.2594   21.0470 N.ar    1  UNL1       -0.2407
     13 C          -8.5819  -15.1754   26.7147 C.3     1  UNL1        0.2527
     14 O          -9.1290  -15.5408   25.3668 O.3     1  UNL1       -0.4670
     15 N         -10.1297  -18.2890   24.6990 N.pl3   1  UNL1       -0.3119
     16 H         -10.1348  -18.7464   25.5708 H       1  UNL1        0.1486
     17 C         -11.4146  -18.0819   23.9532 C.3     1  UNL1        0.1177
     18 C         -11.3883  -17.7676   22.4868 C.ar    1  UNL1        0.0249
     19 C         -11.5287  -16.3486   22.0212 C.ar    1  UNL1       -0.0004
     20 C         -11.5024  -16.0343   20.5547 C.ar    1  UNL1       -0.0001
     21 C         -11.3358  -17.1390   19.5538 C.ar    1  UNL1        0.0023
     22 C         -11.1954  -18.5580   20.0194 C.ar    1  UNL1        0.0294
     23 C         -11.2217  -18.8723   21.4858 C.ar    1  UNL1        0.1377
     24 F         -11.0813  -20.2913   21.9513 F       1  UNL1       -0.2044
@<TRIPOS>BOND
     1    13    14    1
     2    14     1    1
     3     1     2   ar
     4     2     3   ar
     5     3     4   ar
     6     4     7    1
     7     7     8   ar
     8     8     9   ar
     9     9    10   ar
    10    10    11   ar
    11    11    12   ar
    12     4     5   ar
    13     5     6   ar
    14     6    15    1
    15    15    17    1
    16    17    18    1
    17    18    19   ar
    18    19    20   ar
    19    20    21   ar
    20    21    22   ar
    21    22    23   ar
    22    23    24    1
    23     6     1   ar
    24    23    18   ar
    25    12     7   ar
    26    15    16    1
