@<TRIPOS>MOLECULE
*****
 27 29 0 0 0
SMALL
GASTEIGER

@<TRIPOS>ATOM
      1 C          -9.5294  -18.8704   21.6640 C.ar    1  UNL1        0.1719
      2 N          -9.7594  -19.3308   23.0729 N.ar    1  UNL1       -0.2210
      3 C         -11.1409  -18.9099   23.4784 C.ar    1  UNL1        0.1014
      4 C         -11.9114  -19.0897   24.7527 C.ar    1  UNL1        0.0503
      5 C         -13.3057  -18.5489   24.8687 C.ar    1  UNL1        0.1417
      6 F         -14.0763  -18.7286   26.1431 F       1  UNL1       -0.2041
      7 C         -13.9295  -17.8284   23.7104 C.ar    1  UNL1        0.0312
      8 C         -13.1589  -17.6486   22.4360 C.ar    1  UNL1        0.0211
      9 C         -11.7647  -18.1894   22.3201 C.ar    1  UNL1        0.0797
     10 N         -10.7687  -18.1650   21.1987 N.ar    1  UNL1       -0.3011
     11 S          -8.2795  -19.0788   20.8613 S.3     1  UNL1       -0.0724
     12 C          -7.0420  -19.6076   21.5239 C.3     1  UNL1        0.0943
     13 C          -4.6078  -18.8782   22.0647 C.ar    1  UNL1        0.1355
     14 C          -3.6527  -17.9337   22.7324 C.ar    1  UNL1        0.0367
     15 C          -4.1766  -16.7744   23.5269 C.ar    1  UNL1        0.0059
     16 C          -5.6557  -16.5593   23.6538 C.ar    1  UNL1        0.0346
     17 C          -6.6109  -17.5038   22.9862 C.ar    1  UNL1        0.0024
     18 C          -6.0869  -18.6632   22.1916 C.ar    1  UNL1        0.0232
     19 C          -6.1796  -15.4000   24.4484 C.2     1  UNL1        0.1735
     20 C          -7.6034  -14.9585   24.2813 C.3     1  UNL1        0.0773
     21 O          -5.2797  -14.6820   25.4100 O.2     1  UNL1       -0.2913
     22 C          -3.7180  -19.8536   19.8271 C.3     1  UNL1        0.2525
     23 O          -4.0839  -20.0375   21.2702 O.3     1  UNL1       -0.4717
     24 C         -10.9757  -17.5441   19.8490 C.3     1  UNL1        0.1496
     25 C         -11.1532  -16.0599   19.7254 C.2     1  UNL1        0.0733
     26 O         -10.1038  -15.1317   20.2616 O.co2   1  UNL1       -0.5472
     27 O         -12.3802  -15.5036   19.0658 O.co2   1  UNL1       -0.5472
@<TRIPOS>UNITY_ATOM_ATTR
26 1
charge -1
@<TRIPOS>BOND
     1    22    23    1
     2    23    13    1
     3    13    14   ar
     4    14    15   ar
     5    15    16   ar
     6    16    19    1
     7    19    20    1
     8    19    21    2
     9    16    17   ar
    10    17    18   ar
    11    18    12    1
    12    12    11    1
    13    11     1    1
    14     1     2   ar
    15     2     3   ar
    16     3     4   ar
    17     4     5   ar
    18     5     6    1
    19     5     7   ar
    20     7     8   ar
    21     8     9   ar
    22     9    10   ar
    23    10    24    1
    24    24    25    1
    25    25    26   ar
    26    25    27   ar
    27    18    13   ar
    28    10     1   ar
    29     9     3   ar
@<TRIPOS>MOLECULE
*****
 27 29 0 0 0
SMALL
GASTEIGER

@<TRIPOS>ATOM
      1 C          -9.5623  -18.4772   22.0912 C.ar    1  UNL1        0.1719
      2 N          -9.8240  -18.8329   23.5248 N.ar    1  UNL1       -0.2210
      3 C         -11.2825  -18.6133   23.7981 C.ar    1  UNL1        0.1014
      4 C         -12.1106  -18.7974   25.0351 C.ar    1  UNL1        0.0503
      5 C         -13.5785  -18.4900   25.0074 C.ar    1  UNL1        0.1417
      6 F         -14.4068  -18.6741   26.2445 F       1  UNL1       -0.2041
      7 C         -14.2182  -17.9986   23.7428 C.ar    1  UNL1        0.0312
      8 C         -13.3901  -17.8146   22.5058 C.ar    1  UNL1        0.0211
      9 C         -11.9222  -18.1219   22.5334 C.ar    1  UNL1        0.0797
     10 N         -10.8590  -18.0378   21.4786 N.ar    1  UNL1       -0.3011
     11 S          -8.2366  -18.5483   21.3930 S.3     1  UNL1       -0.0724
     12 C          -7.1004  -19.3039   22.0160 C.3     1  UNL1        0.0943
     13 C          -5.7201  -17.4153   23.1464 C.ar    1  UNL1        0.1355
     14 C          -4.4066  -16.7316   23.3859 C.ar    1  UNL1        0.0367
     15 C          -3.1600  -17.2528   22.7345 C.ar    1  UNL1        0.0059
     16 C          -3.2269  -18.4577   21.8435 C.ar    1  UNL1        0.0346
     17 C          -4.5403  -19.1414   21.6040 C.ar    1  UNL1        0.0024
     18 C          -5.7870  -18.6202   22.2555 C.ar    1  UNL1        0.0232
     19 C          -1.9803  -18.9788   21.1921 C.2     1  UNL1        0.1735
     20 C          -1.0442  -18.0330   20.4997 C.3     1  UNL1        0.0773
     21 O          -1.6697  -20.4457   21.2330 O.2     1  UNL1       -0.2913
     22 C          -7.4164  -15.4868   23.5383 C.3     1  UNL1        0.2525
     23 O          -6.9666  -16.8942   23.7978 O.3     1  UNL1       -0.4717
     24 C         -11.0578  -17.5924   20.0601 C.3     1  UNL1        0.1496
     25 C         -11.4192  -16.1669   19.7652 C.2     1  UNL1        0.0733
     26 O         -10.3446  -15.1243   19.6735 O.co2   1  UNL1       -0.5472
     27 O         -12.8551  -15.7837   19.5618 O.co2   1  UNL1       -0.5472
@<TRIPOS>UNITY_ATOM_ATTR
26 1
charge -1
@<TRIPOS>BOND
     1    22    23    1
     2    23    13    1
     3    13    14   ar
     4    14    15   ar
     5    15    16   ar
     6    16    19    1
     7    19    20    1
     8    19    21    2
     9    16    17   ar
    10    17    18   ar
    11    18    12    1
    12    12    11    1
    13    11     1    1
    14     1     2   ar
    15     2     3   ar
    16     3     4   ar
    17     4     5   ar
    18     5     6    1
    19     5     7   ar
    20     7     8   ar
    21     8     9   ar
    22     9    10   ar
    23    10    24    1
    24    24    25    1
    25    25    26   ar
    26    25    27   ar
    27    18    13   ar
    28    10     1   ar
    29     9     3   ar
@<TRIPOS>MOLECULE
*****
 27 29 0 0 0
SMALL
GASTEIGER

@<TRIPOS>ATOM
      1 C          -5.3636  -18.9018   21.9190 C.ar    1  UNL1        0.1719
      2 N          -4.6971  -19.3523   20.6529 N.ar    1  UNL1       -0.2210
      3 C          -3.4056  -18.6017   20.5165 C.ar    1  UNL1        0.1014
      4 C          -2.3325  -18.6328   19.4688 C.ar    1  UNL1        0.0503
      5 C          -1.1277  -17.7494   19.6030 C.ar    1  UNL1        0.1417
      6 F          -0.0546  -17.7804   18.5553 F       1  UNL1       -0.2041
      7 C          -0.9959  -16.8350   20.7847 C.ar    1  UNL1        0.0312
      8 C          -2.0690  -16.8040   21.8323 C.ar    1  UNL1        0.0211
      9 C          -3.2738  -17.6873   21.6982 C.ar    1  UNL1        0.0797
     10 N          -4.4839  -17.8728   22.5650 N.ar    1  UNL1       -0.3011
     11 S          -6.6787  -19.3939   22.4464 S.3     1  UNL1       -0.0724
     12 C          -7.6641  -20.0408   21.5188 C.3     1  UNL1        0.0943
     13 C          -9.5703  -19.1290   20.0073 C.ar    1  UNL1        0.1355
     14 C         -10.9483  -18.5554   19.8582 C.ar    1  UNL1        0.0367
     15 C         -11.7980  -18.3201   21.0717 C.ar    1  UNL1        0.0059
     16 C         -11.2698  -18.6584   22.4343 C.ar    1  UNL1        0.0346
     17 C          -9.8918  -19.2320   22.5833 C.ar    1  UNL1        0.0024
     18 C          -9.0421  -19.4672   21.3698 C.ar    1  UNL1        0.0232
     19 C         -12.1195  -18.4231   23.6478 C.2     1  UNL1        0.1735
     20 C         -13.4604  -17.7652   23.5084 C.3     1  UNL1        0.0773
     21 O         -11.6284  -18.8457   25.0007 O.2     1  UNL1       -0.2913
     22 C          -8.8073  -20.6691   18.0590 C.3     1  UNL1        0.2525
     23 O          -8.7206  -19.3642   18.7938 O.3     1  UNL1       -0.4717
     24 C          -4.7650  -17.1552   23.8519 C.3     1  UNL1        0.1496
     25 C          -5.6014  -15.9101   23.8492 C.2     1  UNL1        0.0733
     26 O          -6.7706  -15.7940   22.9166 O.co2   1  UNL1       -0.5472
     27 O          -5.2688  -14.7811   24.7790 O.co2   1  UNL1       -0.5472
@<TRIPOS>UNITY_ATOM_ATTR
26 1
charge -1
@<TRIPOS>BOND
     1    22    23    1
     2    23    13    1
     3    13    14   ar
     4    14    15   ar
     5    15    16   ar
     6    16    19    1
     7    19    20    1
     8    19    21    2
     9    16    17   ar
    10    17    18   ar
    11    18    12    1
    12    12    11    1
    13    11     1    1
    14     1     2   ar
    15     2     3   ar
    16     3     4   ar
    17     4     5   ar
    18     5     6    1
    19     5     7   ar
    20     7     8   ar
    21     8     9   ar
    22     9    10   ar
    23    10    24    1
    24    24    25    1
    25    25    26   ar
    26    25    27   ar
    27    18    13   ar
    28    10     1   ar
    29     9     3   ar
@<TRIPOS>MOLECULE
*****
 27 29 0 0 0
SMALL
GASTEIGER

@<TRIPOS>ATOM
      1 C          -4.5598  -16.7892   23.1790 C.ar    1  UNL1        0.1719
      2 N          -3.3467  -15.9841   22.8184 N.ar    1  UNL1       -0.2210
      3 C          -2.5361  -16.7803   21.8391 C.ar    1  UNL1        0.1014
      4 C          -1.2416  -16.4917   21.1386 C.ar    1  UNL1        0.0503
      5 C          -0.6592  -17.5003   20.1934 C.ar    1  UNL1        0.1417
      6 F           0.6354  -17.2117   19.4928 F       1  UNL1       -0.2041
      7 C          -1.3714  -18.7976   19.9488 C.ar    1  UNL1        0.0312
      8 C          -2.6659  -19.0863   20.6494 C.ar    1  UNL1        0.0211
      9 C          -3.2483  -18.0776   21.5945 C.ar    1  UNL1        0.0797
     10 N          -4.4990  -18.0831   22.4227 N.ar    1  UNL1       -0.3011
     11 S          -5.6435  -16.3735   24.1292 S.3     1  UNL1       -0.0724
     12 C          -6.7849  -15.5307   23.6427 C.3     1  UNL1        0.0943
     13 C          -8.8930  -16.7248   24.5807 C.ar    1  UNL1        0.1355
     14 C         -10.2415  -17.3436   24.3602 C.ar    1  UNL1        0.0367
     15 C         -10.8305  -17.3870   22.9814 C.ar    1  UNL1        0.0059
     16 C         -10.0709  -16.8116   21.8229 C.ar    1  UNL1        0.0346
     17 C          -8.7224  -16.1928   22.0434 C.ar    1  UNL1        0.0024
     18 C          -8.1334  -16.1494   23.4223 C.ar    1  UNL1        0.0232
     19 C         -10.6598  -16.8550   20.4441 C.2     1  UNL1        0.1735
     20 C         -11.0462  -18.1700   19.8346 C.3     1  UNL1        0.0773
     21 O         -10.8625  -15.5833   19.6747 O.2     1  UNL1       -0.2913
     22 C          -8.4091  -15.4308   26.7810 C.3     1  UNL1        0.2525
     23 O          -8.3040  -16.6815   25.9595 O.3     1  UNL1       -0.4717
     24 C          -5.5111  -19.1885   22.4836 C.3     1  UNL1        0.1496
     25 C          -6.7484  -19.1199   21.6386 C.2     1  UNL1        0.0733
     26 O          -8.0328  -19.7109   22.1399 O.co2   1  UNL1       -0.5472
     27 O          -6.7016  -18.4604   20.2921 O.co2   1  UNL1       -0.5472
@<TRIPOS>UNITY_ATOM_ATTR
26 1
charge -1
@<TRIPOS>BOND
     1    22    23    1
     2    23    13    1
     3    13    14   ar
     4    14    15   ar
     5    15    16   ar
     6    16    19    1
     7    19    20    1
     8    19    21    2
     9    16    17   ar
    10    17    18   ar
    11    18    12    1
    12    12    11    1
    13    11     1    1
    14     1     2   ar
    15     2     3   ar
    16     3     4   ar
    17     4     5   ar
    18     5     6    1
    19     5     7   ar
    20     7     8   ar
    21     8     9   ar
    22     9    10   ar
    23    10    24    1
    24    24    25    1
    25    25    26   ar
    26    25    27   ar
    27    18    13   ar
    28    10     1   ar
    29     9     3   ar
@<TRIPOS>MOLECULE
*****
 27 29 0 0 0
SMALL
GASTEIGER

@<TRIPOS>ATOM
      1 C          -6.7381  -16.8465   23.2782 C.ar    1  UNL1        0.1719
      2 N          -5.3296  -16.3514   23.4231 N.ar    1  UNL1       -0.2210
      3 C          -4.4126  -17.3846   22.8386 C.ar    1  UNL1        0.1014
      4 C          -2.9199  -17.4395   22.7018 C.ar    1  UNL1        0.0503
      5 C          -2.2689  -18.6281   22.0589 C.ar    1  UNL1        0.1417
      6 F          -0.7761  -18.6832   21.9221 F       1  UNL1       -0.2041
      7 C          -3.1107  -19.7618   21.5526 C.ar    1  UNL1        0.0312
      8 C          -4.6034  -19.7068   21.6893 C.ar    1  UNL1        0.0211
      9 C          -5.2544  -18.5182   22.3323 C.ar    1  UNL1        0.0797
     10 N          -6.6916  -18.1856   22.6040 N.ar    1  UNL1       -0.3011
     11 S          -7.9757  -16.1285   23.7283 S.3     1  UNL1       -0.0724
     12 C          -9.1499  -16.9077   24.2421 C.3     1  UNL1        0.0943
     13 C         -11.3376  -18.2075   23.7180 C.ar    1  UNL1        0.1355
     14 C         -12.5201  -18.4554   22.8290 C.ar    1  UNL1        0.0367
     15 C         -12.6975  -17.6514   21.5753 C.ar    1  UNL1        0.0059
     16 C         -11.6923  -16.5994   21.2104 C.ar    1  UNL1        0.0346
     17 C         -10.5098  -16.3515   22.0993 C.ar    1  UNL1        0.0024
     18 C         -10.3324  -17.1556   23.3531 C.ar    1  UNL1        0.0232
     19 C         -11.8697  -15.7954   19.9566 C.2     1  UNL1        0.1735
     20 C         -10.6703  -15.2520   19.2380 C.3     1  UNL1        0.0773
     21 O         -13.2465  -15.5347   19.4213 O.2     1  UNL1       -0.2913
     22 C         -10.2198  -20.1802   24.9866 C.3     1  UNL1        0.2525
     23 O         -11.1602  -19.0116   24.9718 O.3     1  UNL1       -0.4717
     24 C          -7.8746  -19.0419   22.2616 C.3     1  UNL1        0.1496
     25 C          -8.3548  -19.1251   20.8431 C.2     1  UNL1        0.0733
     26 O          -9.7890  -19.4573   20.5550 O.co2   1  UNL1       -0.5472
     27 O          -7.4010  -18.8761   19.7124 O.co2   1  UNL1       -0.5472
@<TRIPOS>UNITY_ATOM_ATTR
26 1
charge -1
@<TRIPOS>BOND
     1    22    23    1
     2    23    13    1
     3    13    14   ar
     4    14    15   ar
     5    15    16   ar
     6    16    19    1
     7    19    20    1
     8    19    21    2
     9    16    17   ar
    10    17    18   ar
    11    18    12    1
    12    12    11    1
    13    11     1    1
    14     1     2   ar
    15     2     3   ar
    16     3     4   ar
    17     4     5   ar
    18     5     6    1
    19     5     7   ar
    20     7     8   ar
    21     8     9   ar
    22     9    10   ar
    23    10    24    1
    24    24    25    1
    25    25    26   ar
    26    25    27   ar
    27    18    13   ar
    28    10     1   ar
    29     9     3   ar
@<TRIPOS>MOLECULE
*****
 27 29 0 0 0
SMALL
GASTEIGER

@<TRIPOS>ATOM
      1 C          -7.0886  -19.4275   22.0750 C.ar    1  UNL1        0.1719
      2 N          -6.0168  -18.6343   22.7621 N.ar    1  UNL1       -0.2210
      3 C          -4.8155  -18.6034   21.8643 C.ar    1  UNL1        0.1014
      4 C          -3.4643  -17.9704   22.0173 C.ar    1  UNL1        0.0503
      5 C          -2.4424  -18.1114   20.9283 C.ar    1  UNL1        0.1417
      6 F          -1.0911  -17.4784   21.0813 F       1  UNL1       -0.2041
      7 C          -2.7718  -18.8855   19.6864 C.ar    1  UNL1        0.0312
      8 C          -4.1230  -19.5185   19.5335 C.ar    1  UNL1        0.0211
      9 C          -5.1449  -19.3775   20.6224 C.ar    1  UNL1        0.0797
     10 N          -6.5497  -19.8868   20.7527 N.ar    1  UNL1       -0.3011
     11 S          -8.4588  -19.7116   22.6154 S.3     1  UNL1       -0.0724
     12 C          -9.0607  -18.8048   23.6476 C.3     1  UNL1        0.0943
     13 C         -10.5264  -17.0778   22.3752 C.ar    1  UNL1        0.1355
     14 C         -11.8607  -16.4395   22.1262 C.ar    1  UNL1        0.0367
     15 C         -13.0638  -16.8898   22.9007 C.ar    1  UNL1        0.0059
     16 C         -12.9325  -17.9785   23.9242 C.ar    1  UNL1        0.0346
     17 C         -11.5982  -18.6168   24.1732 C.ar    1  UNL1        0.0024
     18 C         -10.3951  -18.1665   23.3987 C.ar    1  UNL1        0.0232
     19 C         -14.1356  -18.4288   24.6987 C.2     1  UNL1        0.1735
     20 C         -15.4621  -18.5648   24.0117 C.3     1  UNL1        0.0773
     21 O         -14.0122  -18.7431   26.1602 O.2     1  UNL1       -0.2913
     22 C          -8.4433  -15.5421   22.1462 C.3     1  UNL1        0.2525
     23 O          -9.3233  -16.6275   21.6007 O.3     1  UNL1       -0.4717
     24 C          -7.2864  -20.7108   19.7385 C.3     1  UNL1        0.1496
     25 C          -8.4373  -20.1165   18.9823 C.2     1  UNL1        0.0733
     26 O          -8.9043  -18.7263   19.2978 O.co2   1  UNL1       -0.5472
     27 O          -9.1213  -20.9121   17.9104 O.co2   1  UNL1       -0.5472
@<TRIPOS>UNITY_ATOM_ATTR
26 1
charge -1
@<TRIPOS>BOND
     1    22    23    1
     2    23    13    1
     3    13    14   ar
     4    14    15   ar
     5    15    16   ar
     6    16    19    1
     7    19    20    1
     8    19    21    2
     9    16    17   ar
    10    17    18   ar
    11    18    12    1
    12    12    11    1
    13    11     1    1
    14     1     2   ar
    15     2     3   ar
    16     3     4   ar
    17     4     5   ar
    18     5     6    1
    19     5     7   ar
    20     7     8   ar
    21     8     9   ar
    22     9    10   ar
    23    10    24    1
    24    24    25    1
    25    25    26   ar
    26    25    27   ar
    27    18    13   ar
    28    10     1   ar
    29     9     3   ar
@<TRIPOS>MOLECULE
*****
 27 29 0 0 0
SMALL
GASTEIGER

@<TRIPOS>ATOM
      1 C          -8.4786  -19.9567   22.6973 C.ar    1  UNL1        0.1719
      2 N          -9.2407  -20.0311   23.9872 N.ar    1  UNL1       -0.2210
      3 C         -10.5485  -19.3224   23.7945 C.ar    1  UNL1        0.1014
      4 C         -11.7033  -19.0774   24.7200 C.ar    1  UNL1        0.0503
      5 C         -12.9043  -18.3200   24.2365 C.ar    1  UNL1        0.1417
      6 F         -14.0591  -18.0750   25.1620 F       1  UNL1       -0.2041
      7 C         -12.9506  -17.8076   22.8275 C.ar    1  UNL1        0.0312
      8 C         -11.7959  -18.0525   21.9020 C.ar    1  UNL1        0.0211
      9 C         -10.5948  -18.8099   22.3855 C.ar    1  UNL1        0.0797
     10 N          -9.3156  -19.2020   21.7074 N.ar    1  UNL1       -0.3011
     11 S          -7.1185  -20.5355   22.4421 S.3     1  UNL1       -0.0724
     12 C          -6.1102  -19.7594   21.6478 C.3     1  UNL1        0.0943
     13 C          -3.8700  -18.5279   22.1109 C.ar    1  UNL1        0.1355
     14 C          -3.1153  -17.4016   22.7528 C.ar    1  UNL1        0.0367
     15 C          -3.8462  -16.3807   23.5735 C.ar    1  UNL1        0.0059
     16 C          -5.3318  -16.4860   23.7523 C.ar    1  UNL1        0.0346
     17 C          -6.0865  -17.6123   23.1104 C.ar    1  UNL1        0.0024
     18 C          -5.3555  -18.6332   22.2897 C.ar    1  UNL1        0.0232
     19 C          -6.0627  -15.4651   24.5730 C.2     1  UNL1        0.1735
     20 C          -5.5668  -15.1097   25.9433 C.3     1  UNL1        0.0773
     21 O          -7.2895  -14.7996   24.0234 O.2     1  UNL1       -0.2913
     22 C          -1.9827  -19.1318   20.4306 C.3     1  UNL1        0.2525
     23 O          -3.1391  -19.5488   21.2903 O.3     1  UNL1       -0.4717
     24 C          -8.9393  -18.8934   20.2886 C.3     1  UNL1        0.1496
     25 C          -9.5875  -19.6409   19.1612 C.2     1  UNL1        0.0733
     26 O         -11.0179  -19.3653   18.8030 O.co2   1  UNL1       -0.5472
     27 O          -8.8055  -20.6640   18.3919 O.co2   1  UNL1       -0.5472
@<TRIPOS>UNITY_ATOM_ATTR
26 1
charge -1
@<TRIPOS>BOND
     1    22    23    1
     2    23    13    1
     3    13    14   ar
     4    14    15   ar
     5    15    16   ar
     6    16    19    1
     7    19    20    1
     8    19    21    2
     9    16    17   ar
    10    17    18   ar
    11    18    12    1
    12    12    11    1
    13    11     1    1
    14     1     2   ar
    15     2     3   ar
    16     3     4   ar
    17     4     5   ar
    18     5     6    1
    19     5     7   ar
    20     7     8   ar
    21     8     9   ar
    22     9    10   ar
    23    10    24    1
    24    24    25    1
    25    25    26   ar
    26    25    27   ar
    27    18    13   ar
    28    10     1   ar
    29     9     3   ar
@<TRIPOS>MOLECULE
*****
 27 29 0 0 0
SMALL
GASTEIGER

@<TRIPOS>ATOM
      1 C          -9.2801  -17.5293   22.7157 C.ar    1  UNL1        0.1719
      2 N          -8.1042  -18.4540   22.6058 N.ar    1  UNL1       -0.2210
      3 C          -8.2341  -19.2186   21.3219 C.ar    1  UNL1        0.1014
      4 C          -7.3708  -20.2681   20.6869 C.ar    1  UNL1        0.0503
      5 C          -7.7638  -20.8655   19.3684 C.ar    1  UNL1        0.1417
      6 F          -6.9004  -21.9151   18.7334 F       1  UNL1       -0.2041
      7 C          -9.0200  -20.4133   18.6847 C.ar    1  UNL1        0.0312
      8 C          -9.8833  -19.3638   19.3196 C.ar    1  UNL1        0.0211
      9 C          -9.4903  -18.7665   20.6382 C.ar    1  UNL1        0.0797
     10 N         -10.1368  -17.7224   21.4997 N.ar    1  UNL1       -0.3011
     11 S          -9.5517  -16.5785   23.8436 S.3     1  UNL1       -0.0724
     12 C          -8.6407  -15.4095   24.0749 C.3     1  UNL1        0.0943
     13 C          -6.9056  -15.5316   26.0047 C.ar    1  UNL1        0.1355
     14 C          -5.4993  -15.7581   26.4748 C.ar    1  UNL1        0.0367
     15 C          -4.4218  -16.0890   25.4852 C.ar    1  UNL1        0.0059
     16 C          -4.7506  -16.1933   24.0253 C.ar    1  UNL1        0.0346
     17 C          -6.1569  -15.9668   23.5552 C.ar    1  UNL1        0.0024
     18 C          -7.2344  -15.6360   24.5450 C.ar    1  UNL1        0.0232
     19 C          -3.6731  -16.5242   23.0356 C.2     1  UNL1        0.1735
     20 C          -3.0856  -17.9040   22.9997 C.3     1  UNL1        0.0773
     21 O          -3.1830  -15.4753   22.0819 O.2     1  UNL1       -0.2913
     22 C          -8.6915  -16.3010   27.7278 C.3     1  UNL1        0.2525
     23 O          -7.9831  -15.2008   26.9944 O.3     1  UNL1       -0.4717
     24 C         -11.4155  -16.9986   21.1980 C.3     1  UNL1        0.1496
     25 C         -11.4505  -15.9548   20.1213 C.2     1  UNL1        0.0733
     26 O         -12.6772  -15.7929   19.2733 O.co2   1  UNL1       -0.5472
     27 O         -10.2589  -15.0729   19.8926 O.co2   1  UNL1       -0.5472
@<TRIPOS>UNITY_ATOM_ATTR
26 1
charge -1
@<TRIPOS>BOND
     1    22    23    1
     2    23    13    1
     3    13    14   ar
     4    14    15   ar
     5    15    16   ar
     6    16    19    1
     7    19    20    1
     8    19    21    2
     9    16    17   ar
    10    17    18   ar
    11    18    12    1
    12    12    11    1
    13    11     1    1
    14     1     2   ar
    15     2     3   ar
    16     3     4   ar
    17     4     5   ar
    18     5     6    1
    19     5     7   ar
    20     7     8   ar
    21     8     9   ar
    22     9    10   ar
    23    10    24    1
    24    24    25    1
    25    25    26   ar
    26    25    27   ar
    27    18    13   ar
    28    10     1   ar
    29     9     3   ar
@<TRIPOS>MOLECULE
*****
 27 29 0 0 0
SMALL
GASTEIGER

@<TRIPOS>ATOM
      1 C          -9.5304  -18.3708   22.8286 C.ar    1  UNL1        0.1719
      2 N          -9.9505  -18.6966   24.2312 N.ar    1  UNL1       -0.2210
      3 C         -11.4405  -18.5455   24.3158 C.ar    1  UNL1        0.1014
      4 C         -12.4059  -18.7355   25.4479 C.ar    1  UNL1        0.0503
      5 C         -13.8721  -18.5063   25.2297 C.ar    1  UNL1        0.1417
      6 F         -14.8377  -18.6963   26.3619 F       1  UNL1       -0.2041
      7 C         -14.3729  -18.0871   23.8793 C.ar    1  UNL1        0.0312
      8 C         -13.4075  -17.8971   22.7472 C.ar    1  UNL1        0.0211
      9 C         -11.9413  -18.1263   22.9654 C.ar    1  UNL1        0.0797
     10 N         -10.7608  -18.0183   22.0463 N.ar    1  UNL1       -0.3011
     11 S          -8.1265  -18.3934   22.3009 S.3     1  UNL1       -0.0724
     12 C          -7.3217  -19.6576   22.3643 C.3     1  UNL1        0.0943
     13 C          -5.9991  -20.5343   20.3071 C.ar    1  UNL1        0.1355
     14 C          -4.7154  -20.6455   19.5392 C.ar    1  UNL1        0.0367
     15 C          -3.4705  -19.9912   20.0607 C.ar    1  UNL1        0.0059
     16 C          -3.5092  -19.2256   21.3501 C.ar    1  UNL1        0.0346
     17 C          -4.7930  -19.1144   22.1180 C.ar    1  UNL1        0.0024
     18 C          -6.0380  -19.7688   21.5964 C.ar    1  UNL1        0.0232
     19 C          -2.2643  -18.5714   21.8716 C.2     1  UNL1        0.1735
     20 C          -2.3341  -17.6776   23.0743 C.3     1  UNL1        0.0773
     21 O          -0.9495  -18.8108   21.1905 O.2     1  UNL1       -0.2913
     22 C          -7.2103  -21.9360   18.4854 C.3     1  UNL1        0.2525
     23 O          -7.2441  -21.1886   19.7856 O.3     1  UNL1       -0.4717
     24 C         -10.8032  -17.6266   20.5989 C.3     1  UNL1        0.1496
     25 C         -11.1441  -16.2179   20.2128 C.2     1  UNL1        0.0733
     26 O         -12.5056  -15.8973   19.6709 O.co2   1  UNL1       -0.5472
     27 O         -10.1237  -15.1296   20.3686 O.co2   1  UNL1       -0.5472
@<TRIPOS>UNITY_ATOM_ATTR
26 1
charge -1
@<TRIPOS>BOND
     1    22    23    1
     2    23    13    1
     3    13    14   ar
     4    14    15   ar
     5    15    16   ar
     6    16    19    1
     7    19    20    1
     8    19    21    2
     9    16    17   ar
    10    17    18   ar
    11    18    12    1
    12    12    11    1
    13    11     1    1
    14     1     2   ar
    15     2     3   ar
    16     3     4   ar
    17     4     5   ar
    18     5     6    1
    19     5     7   ar
    20     7     8   ar
    21     8     9   ar
    22     9    10   ar
    23    10    24    1
    24    24    25    1
    25    25    26   ar
    26    25    27   ar
    27    18    13   ar
    28    10     1   ar
    29     9     3   ar
