@<TRIPOS>MOLECULE
*****
 24 27 0 0 0
SMALL
GASTEIGER

@<TRIPOS>ATOM
      1 C          -9.6423  -17.9921   24.3300 C.ar    1  UNL1        0.1387
      2 C          -9.2303  -16.7135   24.9975 C.ar    1  UNL1        0.0366
      3 C          -7.8644  -16.1447   24.7504 C.ar    1  UNL1       -0.0014
      4 C          -6.9106  -16.8547   23.8359 C.ar    1  UNL1       -0.0245
      5 C          -7.3226  -18.1332   23.1686 C.ar    1  UNL1       -0.0217
      6 C          -8.6884  -18.7020   23.4156 C.ar    1  UNL1        0.0324
      7 C          -6.5324  -18.9942   22.2281 C.3     1  UNL1        0.0434
      8 C          -5.1350  -18.7891   21.7228 C.3     1  UNL1        0.0768
      9 N          -4.1828  -17.6726   22.0332 N.3     1  UNL1       -0.2734
     10 C          -4.3926  -16.4852   22.9254 C.3     1  UNL1        0.0768
     11 C          -5.6066  -16.1212   23.7278 C.3     1  UNL1        0.0433
     12 C          -2.8435  -17.7541   21.3626 C.3     1  UNL1        0.0575
     13 C          -2.2497  -18.9750   20.7248 C.3     1  UNL1        0.0160
     14 C          -0.9020  -18.6044   20.1801 C.3     1  UNL1        0.0014
     15 C          -0.6630  -17.1545   20.4812 C.3     1  UNL1        0.0014
     16 C          -1.8629  -16.6290   21.2119 C.3     1  UNL1        0.0160
     17 O         -11.0081  -18.5607   24.5771 O.3     1  UNL1       -0.4707
     18 C         -12.1370  -18.2325   23.6455 C.3     1  UNL1        0.2320
     19 C         -11.2690  -17.0021   19.4049 C.ar    1  UNL1       -0.0000
     20 C         -11.6809  -15.9727   20.4150 C.ar    1  UNL1       -0.0002
     21 C         -11.9703  -16.3827   21.8286 C.ar    1  UNL1       -0.0007
     22 C         -11.8476  -17.8223   22.2319 C.ar    1  UNL1        0.0212
     23 C         -11.4356  -18.8517   21.2217 C.ar    1  UNL1       -0.0007
     24 C         -11.1463  -18.4416   19.8082 C.ar    1  UNL1       -0.0002
@<TRIPOS>BOND
     1    19    20   ar
     2    20    21   ar
     3    21    22   ar
     4    22    18    1
     5    18    17    1
     6    17     1    1
     7     1     2   ar
     8     2     3   ar
     9     3     4   ar
    10     4     5   ar
    11     5     6   ar
    12     5     7    1
    13     7     8    1
    14     8     9    1
    15     9    12    1
    16    12    13    1
    17    13    14    1
    18    14    15    1
    19    15    16    1
    20     9    10    1
    21    10    11    1
    22    22    23   ar
    23    23    24   ar
    24    24    19   ar
    25     6     1   ar
    26    16    12    1
    27    11     4    1
@<TRIPOS>MOLECULE
*****
 24 27 0 0 0
SMALL
GASTEIGER

@<TRIPOS>ATOM
      1 C          -5.8893  -20.3012   20.5933 C.ar    1  UNL1        0.1387
      2 C          -6.5324  -19.7759   19.3441 C.ar    1  UNL1        0.0366
      3 C          -7.9439  -19.2695   19.3832 C.ar    1  UNL1       -0.0014
      4 C          -8.7121  -19.2884   20.6715 C.ar    1  UNL1       -0.0245
      5 C          -8.0689  -19.8136   21.9205 C.ar    1  UNL1       -0.0217
      6 C          -6.6575  -20.3200   21.8815 C.ar    1  UNL1        0.0324
      7 C          -8.6517  -19.9211   23.2985 C.3     1  UNL1        0.0434
      8 C         -10.0218  -19.5298   23.7676 C.3     1  UNL1        0.0768
      9 N         -11.1471  -18.9345   22.9747 N.3     1  UNL1       -0.2734
     10 C         -11.1807  -18.5833   21.5167 C.3     1  UNL1        0.0768
     11 C         -10.0970  -18.7408   20.4917 C.3     1  UNL1        0.0433
     12 C         -12.4056  -18.6530   23.7410 C.3     1  UNL1        0.0575
     13 C         -12.6141  -18.8824   25.2086 C.3     1  UNL1        0.0160
     14 C         -14.0138  -18.4639   25.5488 C.3     1  UNL1        0.0014
     15 C         -14.6703  -17.9758   24.2915 C.3     1  UNL1        0.0014
     16 C         -13.6764  -18.0927   23.1743 C.3     1  UNL1        0.0160
     17 O          -4.4779  -20.8075   20.5542 O.3     1  UNL1       -0.4707
     18 C          -3.4249  -20.0370   19.8142 C.3     1  UNL1        0.2320
     19 C          -1.6745  -16.3085   21.6264 C.ar    1  UNL1       -0.0000
     20 C          -2.6699  -17.1220   22.3992 C.ar    1  UNL1       -0.0002
     21 C          -3.2534  -18.3648   21.7952 C.ar    1  UNL1       -0.0007
     22 C          -2.8414  -18.7941   20.4183 C.ar    1  UNL1        0.0212
     23 C          -1.8461  -17.9807   19.6454 C.ar    1  UNL1       -0.0007
     24 C          -1.2626  -16.7378   20.2494 C.ar    1  UNL1       -0.0002
@<TRIPOS>BOND
     1    19    20   ar
     2    20    21   ar
     3    21    22   ar
     4    22    18    1
     5    18    17    1
     6    17     1    1
     7     1     2   ar
     8     2     3   ar
     9     3     4   ar
    10     4     5   ar
    11     5     6   ar
    12     5     7    1
    13     7     8    1
    14     8     9    1
    15     9    12    1
    16    12    13    1
    17    13    14    1
    18    14    15    1
    19    15    16    1
    20     9    10    1
    21    10    11    1
    22    22    23   ar
    23    23    24   ar
    24    24    19   ar
    25     6     1   ar
    26    16    12    1
    27    11     4    1
@<TRIPOS>MOLECULE
*****
 24 27 0 0 0
SMALL
GASTEIGER

@<TRIPOS>ATOM
      1 C          -3.8026  -17.7455   23.2002 C.ar    1  UNL1        0.1387
      2 C          -3.9831  -16.3877   23.8117 C.ar    1  UNL1        0.0366
      3 C          -5.3600  -15.8153   23.9741 C.ar    1  UNL1       -0.0014
      4 C          -6.5565  -16.6007   23.5249 C.ar    1  UNL1       -0.0245
      5 C          -6.3760  -17.9583   22.9134 C.ar    1  UNL1       -0.0217
      6 C          -4.9991  -18.5308   22.7510 C.ar    1  UNL1        0.0324
      7 C          -7.4251  -18.9010   22.4026 C.3     1  UNL1        0.0434
      8 C          -8.9138  -18.7187   22.3773 C.3     1  UNL1        0.0768
      9 N          -9.7210  -17.5488   22.8564 N.3     1  UNL1       -0.2734
     10 C          -9.2390  -16.2722   23.4792 C.3     1  UNL1        0.0768
     11 C          -7.8306  -15.8502   23.7767 C.3     1  UNL1        0.0433
     12 C         -11.2067  -17.6717   22.6908 C.3     1  UNL1        0.0575
     13 C         -11.9719  -17.4664   21.4171 C.3     1  UNL1        0.0160
     14 C         -13.4263  -17.6893   21.7090 C.3     1  UNL1        0.0014
     15 C         -13.5599  -18.0325   23.1631 C.3     1  UNL1        0.0014
     16 C         -12.1883  -18.0216   23.7698 C.3     1  UNL1        0.0160
     17 O          -2.4256  -18.3178   23.0379 O.3     1  UNL1       -0.4707
     18 C          -2.1202  -19.2198   21.8789 C.3     1  UNL1        0.2320
     19 C          -1.8124  -17.5188   17.7242 C.ar    1  UNL1       -0.0000
     20 C          -0.5810  -17.6640   18.5683 C.ar    1  UNL1       -0.0002
     21 C          -0.6836  -18.2310   19.9531 C.ar    1  UNL1       -0.0007
     22 C          -2.0176  -18.6528   20.4939 C.ar    1  UNL1        0.0212
     23 C          -3.2490  -18.5076   19.6499 C.ar    1  UNL1       -0.0007
     24 C          -3.1464  -17.9406   18.2650 C.ar    1  UNL1       -0.0002
@<TRIPOS>BOND
     1    19    20   ar
     2    20    21   ar
     3    21    22   ar
     4    22    18    1
     5    18    17    1
     6    17     1    1
     7     1     2   ar
     8     2     3   ar
     9     3     4   ar
    10     4     5   ar
    11     5     6   ar
    12     5     7    1
    13     7     8    1
    14     8     9    1
    15     9    12    1
    16    12    13    1
    17    13    14    1
    18    14    15    1
    19    15    16    1
    20     9    10    1
    21    10    11    1
    22    22    23   ar
    23    23    24   ar
    24    24    19   ar
    25     6     1   ar
    26    16    12    1
    27    11     4    1
@<TRIPOS>MOLECULE
*****
 24 27 0 0 0
SMALL
GASTEIGER

@<TRIPOS>ATOM
      1 C         -11.5304   -5.6616   18.8386 C.ar    1  UNL1        0.1387
      2 C         -11.1611   -6.7980   17.9317 C.ar    1  UNL1        0.0366
      3 C         -12.1859   -7.8314   17.5688 C.ar    1  UNL1       -0.0014
      4 C         -13.5801   -7.7285   18.1127 C.ar    1  UNL1       -0.0245
      5 C         -13.9493   -6.5922   19.0195 C.ar    1  UNL1       -0.0217
      6 C         -12.9245   -5.5588   19.3825 C.ar    1  UNL1        0.0324
      7 C         -15.2715   -6.3037   19.6666 C.3     1  UNL1        0.0434
      8 C         -16.5509   -7.0804   19.5666 C.3     1  UNL1        0.0768
      9 N         -16.8241   -8.3372   18.7950 N.3     1  UNL1       -0.2734
     10 C         -15.8854   -9.1280   17.9326 C.3     1  UNL1        0.0768
     11 C         -14.4417   -8.8571   17.6289 C.3     1  UNL1        0.0433
     12 C         -18.2207   -8.8745   18.8994 C.3     1  UNL1        0.0575
     13 C         -19.1875   -8.6061   20.0144 C.3     1  UNL1        0.0160
     14 C         -20.4600   -9.3402   19.7113 C.3     1  UNL1        0.0014
     15 C         -20.2796  -10.0623   18.4090 C.3     1  UNL1        0.0014
     16 C         -18.8957   -9.7745   17.9072 C.3     1  UNL1        0.0160
     17 O         -10.5055   -4.6282   19.2015 O.3     1  UNL1       -0.4707
     18 C         -10.0061   -3.6697   18.1614 C.3     1  UNL1        0.2320
     19 C         -12.2214    0.1711   17.3925 C.ar    1  UNL1       -0.0000
     20 C         -12.5397   -0.6479   18.6082 C.ar    1  UNL1       -0.0002
     21 C         -11.8013   -1.9281   18.8645 C.ar    1  UNL1       -0.0007
     22 C         -10.7446   -2.3894   17.9051 C.ar    1  UNL1        0.0212
     23 C         -10.4263   -1.5705   16.6894 C.ar    1  UNL1       -0.0007
     24 C         -11.1646   -0.2902   16.4331 C.ar    1  UNL1       -0.0002
@<TRIPOS>BOND
     1    19    20   ar
     2    20    21   ar
     3    21    22   ar
     4    22    18    1
     5    18    17    1
     6    17     1    1
     7     1     2   ar
     8     2     3   ar
     9     3     4   ar
    10     4     5   ar
    11     5     6   ar
    12     5     7    1
    13     7     8    1
    14     8     9    1
    15     9    12    1
    16    12    13    1
    17    13    14    1
    18    14    15    1
    19    15    16    1
    20     9    10    1
    21    10    11    1
    22    22    23   ar
    23    23    24   ar
    24    24    19   ar
    25     6     1   ar
    26    16    12    1
    27    11     4    1
@<TRIPOS>MOLECULE
*****
 24 27 0 0 0
SMALL
GASTEIGER

@<TRIPOS>ATOM
      1 C           4.8008    0.7311   35.8435 C.ar    1  UNL1        0.1387
      2 C           5.3569   -0.5252   35.2415 C.ar    1  UNL1        0.0366
      3 C           4.8798   -0.9875   33.8966 C.ar    1  UNL1       -0.0014
      4 C           3.8466   -0.1934   33.1537 C.ar    1  UNL1       -0.0245
      5 C           3.2905    1.0629   33.7556 C.ar    1  UNL1       -0.0217
      6 C           3.7675    1.5252   35.1005 C.ar    1  UNL1        0.0324
      7 C           2.2620    1.9960   33.1885 C.3     1  UNL1        0.0434
      8 C           1.5356    1.9031   31.8793 C.3     1  UNL1        0.0768
      9 N           1.6584    0.8544   30.8141 N.3     1  UNL1       -0.2734
     10 C           2.5378   -0.3607   30.7947 C.3     1  UNL1        0.0768
     11 C           3.5116   -0.8270   31.8359 C.3     1  UNL1        0.0433
     12 C           0.7864    1.0459   29.6087 C.3     1  UNL1        0.0575
     13 C           0.0652   -0.0363   28.8613 C.3     1  UNL1        0.0160
     14 C          -0.6844    0.6023   27.7297 C.3     1  UNL1        0.0014
     15 C          -0.4264    2.0792   27.7778 C.3     1  UNL1        0.0014
     16 C           0.4825    2.3533   28.9390 C.3     1  UNL1        0.0160
     17 O           5.2779    1.1934   37.1883 O.3     1  UNL1       -0.4707
     18 C           4.5234    2.2596   37.9259 C.3     1  UNL1        0.2320
     19 C           0.3757    1.4285   39.4607 C.ar    1  UNL1       -0.0000
     20 C           0.7256    2.7934   38.9465 C.ar    1  UNL1       -0.0002
     21 C           2.1082    3.0705   38.4349 C.ar    1  UNL1       -0.0007
     22 C           3.1408    1.9825   38.4375 C.ar    1  UNL1        0.0212
     23 C           2.7909    0.6176   38.9517 C.ar    1  UNL1       -0.0007
     24 C           1.4084    0.3405   39.4633 C.ar    1  UNL1       -0.0002
@<TRIPOS>BOND
     1    19    20   ar
     2    20    21   ar
     3    21    22   ar
     4    22    18    1
     5    18    17    1
     6    17     1    1
     7     1     2   ar
     8     2     3   ar
     9     3     4   ar
    10     4     5   ar
    11     5     6   ar
    12     5     7    1
    13     7     8    1
    14     8     9    1
    15     9    12    1
    16    12    13    1
    17    13    14    1
    18    14    15    1
    19    15    16    1
    20     9    10    1
    21    10    11    1
    22    22    23   ar
    23    23    24   ar
    24    24    19   ar
    25     6     1   ar
    26    16    12    1
    27    11     4    1
@<TRIPOS>MOLECULE
*****
 24 27 0 0 0
SMALL
GASTEIGER

@<TRIPOS>ATOM
      1 C         -12.5051   -5.8311   18.9545 C.ar    1  UNL1        0.1387
      2 C         -11.0953   -5.3242   18.8798 C.ar    1  UNL1        0.0366
      3 C         -10.8333   -3.8535   18.7437 C.ar    1  UNL1       -0.0014
      4 C         -11.9811   -2.8898   18.6824 C.ar    1  UNL1       -0.0245
      5 C         -13.3908   -3.3967   18.7572 C.ar    1  UNL1       -0.0217
      6 C         -13.6529   -4.8673   18.8932 C.ar    1  UNL1        0.0324
      7 C         -14.6697   -2.6138   18.7147 C.3     1  UNL1        0.0434
      8 C         -14.8545   -1.1307   18.5870 C.3     1  UNL1        0.0768
      9 N         -13.8063   -0.0643   18.4702 N.3     1  UNL1       -0.2734
     10 C         -12.3142   -0.2174   18.4523 C.3     1  UNL1        0.0768
     11 C         -11.5019   -1.4748   18.5467 C.3     1  UNL1        0.0433
     12 C         -14.3177    1.3413   18.3563 C.3     1  UNL1        0.0575
     13 C         -15.2875    2.0049   19.2885 C.3     1  UNL1        0.0160
     14 C         -15.5182    3.4037   18.7984 C.3     1  UNL1        0.0014
     15 C         -14.6910    3.6046   17.5634 C.3     1  UNL1        0.0014
     16 C         -13.9491    2.3300   17.2901 C.3     1  UNL1        0.0160
     17 O         -12.7670   -7.3018   19.0905 O.3     1  UNL1       -0.4707
     18 C         -13.6506   -8.0009   18.1003 C.3     1  UNL1        0.2320
     19 C         -17.5719   -9.7606   19.4333 C.ar    1  UNL1       -0.0000
     20 C         -17.1397   -8.4184   19.9447 C.ar    1  UNL1       -0.0002
     21 C         -15.8327   -7.8318   19.5004 C.ar    1  UNL1       -0.0007
     22 C         -14.9578   -8.5875   18.5447 C.ar    1  UNL1        0.0212
     23 C         -15.3900   -9.9296   18.0332 C.ar    1  UNL1       -0.0007
     24 C         -16.6970  -10.5162   18.4775 C.ar    1  UNL1       -0.0002
@<TRIPOS>BOND
     1    19    20   ar
     2    20    21   ar
     3    21    22   ar
     4    22    18    1
     5    18    17    1
     6    17     1    1
     7     1     2   ar
     8     2     3   ar
     9     3     4   ar
    10     4     5   ar
    11     5     6   ar
    12     5     7    1
    13     7     8    1
    14     8     9    1
    15     9    12    1
    16    12    13    1
    17    13    14    1
    18    14    15    1
    19    15    16    1
    20     9    10    1
    21    10    11    1
    22    22    23   ar
    23    23    24   ar
    24    24    19   ar
    25     6     1   ar
    26    16    12    1
    27    11     4    1
@<TRIPOS>MOLECULE
*****
 24 27 0 0 0
SMALL
GASTEIGER

@<TRIPOS>ATOM
      1 C         -12.1721   -5.4141   19.3327 C.ar    1  UNL1        0.1387
      2 C         -13.1114   -4.5220   20.0890 C.ar    1  UNL1        0.0366
      3 C         -14.5858   -4.7978   20.0706 C.ar    1  UNL1       -0.0014
      4 C         -15.1207   -5.9656   19.2959 C.ar    1  UNL1       -0.0245
      5 C         -14.1814   -6.8575   18.5397 C.ar    1  UNL1       -0.0217
      6 C         -12.7071   -6.5818   18.5580 C.ar    1  UNL1        0.0324
      7 C         -14.5027   -8.0653   17.7101 C.3     1  UNL1        0.0434
      8 C         -15.8428   -8.6793   17.4320 C.3     1  UNL1        0.0768
      9 N         -17.1924   -8.2372   17.9147 N.3     1  UNL1       -0.2734
     10 C         -17.5354   -7.0719   18.7948 C.3     1  UNL1        0.0768
     11 C         -16.6134   -6.0609   19.4095 C.3     1  UNL1        0.0433
     12 C         -18.3525   -9.0706   17.4569 C.3     1  UNL1        0.0575
     13 C         -19.1201  -10.0494   18.2951 C.3     1  UNL1        0.0160
     14 C         -20.1907  -10.6553   17.4366 C.3     1  UNL1        0.0014
     15 C         -20.0847  -10.0509   16.0679 C.3     1  UNL1        0.0014
     16 C         -18.9486   -9.0716   16.0804 C.3     1  UNL1        0.0160
     17 O         -10.6978   -5.1383   19.3511 O.3     1  UNL1       -0.4707
     18 C         -10.1385   -3.9961   18.5558 C.3     1  UNL1        0.2320
     19 C         -12.8798   -0.7895   16.9897 C.ar    1  UNL1       -0.0000
     20 C         -12.6296   -2.0250   16.1769 C.ar    1  UNL1       -0.0002
     21 C         -11.7158   -3.0939   16.6988 C.ar    1  UNL1       -0.0007
     22 C         -11.0523   -2.9272   18.0337 C.ar    1  UNL1        0.0212
     23 C         -11.3025   -1.6917   18.8466 C.ar    1  UNL1       -0.0007
     24 C         -12.2163   -0.6228   18.3246 C.ar    1  UNL1       -0.0002
@<TRIPOS>BOND
     1    19    20   ar
     2    20    21   ar
     3    21    22   ar
     4    22    18    1
     5    18    17    1
     6    17     1    1
     7     1     2   ar
     8     2     3   ar
     9     3     4   ar
    10     4     5   ar
    11     5     6   ar
    12     5     7    1
    13     7     8    1
    14     8     9    1
    15     9    12    1
    16    12    13    1
    17    13    14    1
    18    14    15    1
    19    15    16    1
    20     9    10    1
    21    10    11    1
    22    22    23   ar
    23    23    24   ar
    24    24    19   ar
    25     6     1   ar
    26    16    12    1
    27    11     4    1
@<TRIPOS>MOLECULE
*****
 24 27 0 0 0
SMALL
GASTEIGER

@<TRIPOS>ATOM
      1 C          -6.0987  -19.5344   20.6839 C.ar    1  UNL1        0.1387
      2 C          -5.5985  -18.5236   21.6729 C.ar    1  UNL1        0.0366
      3 C          -6.5420  -17.9200   22.6707 C.ar    1  UNL1       -0.0014
      4 C          -7.9857  -18.3273   22.6795 C.ar    1  UNL1       -0.0245
      5 C          -8.4858  -19.3381   21.6906 C.ar    1  UNL1       -0.0217
      6 C          -7.5424  -19.9417   20.6928 C.ar    1  UNL1        0.0324
      7 C          -9.8752  -19.8797   21.5283 C.3     1  UNL1        0.0434
      8 C         -11.1075  -19.5443   22.3151 C.3     1  UNL1        0.0768
      9 N         -11.2548  -18.5844   23.4582 N.3     1  UNL1       -0.2734
     10 C         -10.2062  -17.7228   24.0971 C.3     1  UNL1        0.0768
     11 C          -8.7513  -17.6084   23.7505 C.3     1  UNL1        0.0433
     12 C         -12.6330  -18.4711   24.0394 C.3     1  UNL1        0.0575
     13 C         -13.0040  -18.6855   25.4768 C.3     1  UNL1        0.0160
     14 C         -14.4825  -18.4703   25.6110 C.3     1  UNL1        0.0014
     15 C         -15.0251  -18.1229   24.2564 C.3     1  UNL1        0.0014
     16 C         -13.8821  -18.1233   23.2852 C.3     1  UNL1        0.0160
     17 O          -5.1552  -20.1380   19.6862 O.3     1  UNL1       -0.4707
     18 C          -3.7344  -20.4221   20.0742 C.3     1  UNL1        0.2320
     19 C          -0.7449  -17.0652   20.2836 C.ar    1  UNL1       -0.0000
     20 C          -1.2743  -17.5162   18.9546 C.ar    1  UNL1       -0.0002
     21 C          -2.2708  -18.6351   18.8847 C.ar    1  UNL1       -0.0007
     22 C          -2.7379  -19.3031   20.1440 C.ar    1  UNL1        0.0212
     23 C          -2.2085  -18.8521   21.4729 C.ar    1  UNL1       -0.0007
     24 C          -1.2120  -17.7332   21.5428 C.ar    1  UNL1       -0.0002
@<TRIPOS>BOND
     1    19    20   ar
     2    20    21   ar
     3    21    22   ar
     4    22    18    1
     5    18    17    1
     6    17     1    1
     7     1     2   ar
     8     2     3   ar
     9     3     4   ar
    10     4     5   ar
    11     5     6   ar
    12     5     7    1
    13     7     8    1
    14     8     9    1
    15     9    12    1
    16    12    13    1
    17    13    14    1
    18    14    15    1
    19    15    16    1
    20     9    10    1
    21    10    11    1
    22    22    23   ar
    23    23    24   ar
    24    24    19   ar
    25     6     1   ar
    26    16    12    1
    27    11     4    1
@<TRIPOS>MOLECULE
*****
 24 27 0 0 0
SMALL
GASTEIGER

@<TRIPOS>ATOM
      1 C          -0.8207    3.3033   19.8354 C.ar    1  UNL1        0.1387
      2 C           0.1125    3.9555   18.8587 C.ar    1  UNL1        0.0366
      3 C           1.3300    3.2216   18.3800 C.ar    1  UNL1       -0.0014
      4 C           1.6144    1.8355   18.8780 C.ar    1  UNL1       -0.0245
      5 C           0.6813    1.1834   19.8546 C.ar    1  UNL1       -0.0217
      6 C          -0.5362    1.9172   20.3334 C.ar    1  UNL1        0.0324
      7 C           0.7774   -0.1802   20.4723 C.3     1  UNL1        0.0434
      8 C           1.8305   -1.2283   20.2658 C.3     1  UNL1        0.0768
      9 N           3.0473   -1.1717   19.3907 N.3     1  UNL1       -0.2734
     10 C           3.5118   -0.0530   18.5059 C.3     1  UNL1        0.0768
     11 C           2.8741    1.2853   18.2777 C.3     1  UNL1        0.0433
     12 C           3.9144   -2.3956   19.4019 C.3     1  UNL1        0.0575
     13 C           5.3723   -2.4401   19.7521 C.3     1  UNL1        0.0160
     14 C           5.8348   -3.8620   19.6314 C.3     1  UNL1        0.0014
     15 C           4.6628   -4.6962   19.2065 C.3     1  UNL1        0.0014
     16 C           3.4760   -3.7900   19.0647 C.3     1  UNL1        0.0160
     17 O          -2.0381    4.0371   20.3140 O.3     1  UNL1       -0.4707
     18 C          -3.4030    3.4643   20.0710 C.3     1  UNL1        0.2320
     19 C          -6.7332    4.2692   22.9885 C.ar    1  UNL1       -0.0000
     20 C          -6.8746    4.6872   21.5550 C.ar    1  UNL1       -0.0002
     21 C          -5.7646    4.4189   20.5824 C.ar    1  UNL1       -0.0007
     22 C          -4.5131    3.7326   21.0436 C.ar    1  UNL1        0.0212
     23 C          -4.3716    3.3146   22.4771 C.ar    1  UNL1       -0.0007
     24 C          -5.4816    3.5829   23.4497 C.ar    1  UNL1       -0.0002
@<TRIPOS>BOND
     1    19    20   ar
     2    20    21   ar
     3    21    22   ar
     4    22    18    1
     5    18    17    1
     6    17     1    1
     7     1     2   ar
     8     2     3   ar
     9     3     4   ar
    10     4     5   ar
    11     5     6   ar
    12     5     7    1
    13     7     8    1
    14     8     9    1
    15     9    12    1
    16    12    13    1
    17    13    14    1
    18    14    15    1
    19    15    16    1
    20     9    10    1
    21    10    11    1
    22    22    23   ar
    23    23    24   ar
    24    24    19   ar
    25     6     1   ar
    26    16    12    1
    27    11     4    1
