@<TRIPOS>MOLECULE
*****
 29 33 0 0 0
SMALL
GASTEIGER

@<TRIPOS>ATOM
      1 O           4.2894   -0.9173   16.7908 O.2     1  UNL1       -0.2682
      2 C           3.8236   -1.3478   18.1500 C.2     1  UNL1        0.2690
      3 N           2.7219   -0.5972   18.8378 N.am    1  UNL1       -0.2673
      4 C           2.2560   -1.0276   20.1971 C.3     1  UNL1        0.1006
      5 C           1.1544   -0.2771   20.8849 C.3     1  UNL1        0.0703
      6 C           0.5187    0.9040   20.2134 C.ar    1  UNL1        0.0955
      7 N          -0.5792    1.8316   20.6424 N.ar    1  UNL1       -0.2136
      8 C          -0.7920    2.8353   19.5482 C.ar    1  UNL1        0.2500
      9 O           0.1745    2.5281   18.4430 O.2     1  UNL1       -0.4379
     10 C           0.9846    1.3344   18.8541 C.ar    1  UNL1        0.1580
     11 C           2.0862    0.5839   18.1663 C.3     1  UNL1        0.1598
     12 C           4.4594   -2.5288   18.8216 C.ar    1  UNL1        0.1591
     13 N           3.8724   -3.9053   18.9259 N.ar    1  UNL1       -0.1419
     14 N           4.8440   -4.7679   19.6755 N.ar    1  UNL1       -0.1302
     15 C           6.0315   -3.9246   20.0344 C.ar    1  UNL1        0.1637
     16 N           7.2985   -4.2380   20.7736 N.ar    1  UNL1       -0.3360
     17 C           8.3277   -3.1676   20.9850 C.ar    1  UNL1        0.0735
     18 C           8.0900   -1.7838   20.4572 C.ar    1  UNL1        0.0186
     19 C           6.8230   -1.4704   19.7180 C.ar    1  UNL1        0.0063
     20 C           5.7937   -2.5408   19.5066 C.ar    1  UNL1        0.0596
     21 H           7.4545   -5.1462   21.1200 H       1  UNL1        0.1675
     22 C          -1.7951    3.9506   19.5576 C.3     1  UNL1        0.2895
     23 O          -3.2400    3.6620   19.2765 O.3     1  UNL1       -0.4655
     24 C          -4.2536    3.7664   20.3772 C.ar    1  UNL1        0.1393
     25 C          -3.9373    3.2286   21.7414 C.ar    1  UNL1        0.0369
     26 C          -4.9510    3.3330   22.8421 C.ar    1  UNL1        0.0031
     27 C          -6.2808    3.9750   22.5788 C.ar    1  UNL1        0.0002
     28 C          -6.5970    4.5127   21.2147 C.ar    1  UNL1        0.0031
     29 C          -5.5834    4.4084   20.1139 C.ar    1  UNL1        0.0369
@<TRIPOS>BOND
     1     1     2    2
     2     2    12    1
     3    12    13   ar
     4    13    14   ar
     5    14    15   ar
     6    15    16   ar
     7    16    17   ar
     8    17    18   ar
     9    18    19   ar
    10    19    20   ar
    11     2     3   am
    12     3     4    1
    13     4     5    1
    14     5     6    1
    15     6     7   ar
    16     7     8   ar
    17     8    22    1
    18    22    23    1
    19    23    24    1
    20    24    25   ar
    21    25    26   ar
    22    26    27   ar
    23    27    28   ar
    24    28    29   ar
    25     8     9   ar
    26     9    10   ar
    27    10    11    1
    28    20    12   ar
    29    11     3    1
    30    20    15    1
    31    10     6   ar
    32    29    24   ar
    33    16    21    1
@<TRIPOS>MOLECULE
*****
 29 33 0 0 0
SMALL
GASTEIGER

@<TRIPOS>ATOM
      1 O           2.8973   -3.1726   19.6953 O.2     1  UNL1       -0.2682
      2 C           3.6031   -1.9012   19.3275 C.2     1  UNL1        0.2690
      3 N           2.8985   -0.5844   19.4688 N.am    1  UNL1       -0.2673
      4 C           3.6043    0.6870   19.1010 C.3     1  UNL1        0.1006
      5 C           2.8998    2.0037   19.2422 C.3     1  UNL1        0.0703
      6 C           1.4895    2.0489   19.7513 C.ar    1  UNL1        0.0955
      7 N           0.5464    3.1896   19.9947 N.ar    1  UNL1       -0.2136
      8 C          -0.7422    2.6232   20.5129 C.ar    1  UNL1        0.2500
      9 O          -0.5956    1.1323   20.5898 O.2     1  UNL1       -0.4379
     10 C           0.7838    0.7774   20.1190 C.ar    1  UNL1        0.1580
     11 C           1.4883   -0.5393   19.9778 C.3     1  UNL1        0.1598
     12 C           5.0134   -1.9464   18.8185 C.ar    1  UNL1        0.1591
     13 N           5.4302   -1.9780   17.3779 N.ar    1  UNL1       -0.1419
     14 N           6.9288   -2.0191   17.3298 N.ar    1  UNL1       -0.1302
     15 C           7.4383   -2.0128   18.7407 C.ar    1  UNL1        0.1637
     16 N           8.8271   -2.0422   19.3064 N.ar    1  UNL1       -0.3360
     17 C           9.0322   -2.0267   20.7922 C.ar    1  UNL1        0.0735
     18 C           7.8483   -1.9818   21.7123 C.ar    1  UNL1        0.0186
     19 C           6.4594   -1.9524   21.1465 C.ar    1  UNL1        0.0063
     20 C           6.2544   -1.9679   19.6607 C.ar    1  UNL1        0.0596
     21 H           9.6041   -2.0717   18.7025 H       1  UNL1        0.1675
     22 C          -1.9632    3.4095   20.8883 C.3     1  UNL1        0.2895
     23 O          -3.3050    2.7400   20.9234 O.3     1  UNL1       -0.4655
     24 C          -4.4038    3.3062   21.7731 C.ar    1  UNL1        0.1393
     25 C          -5.6455    3.8486   21.1299 C.ar    1  UNL1        0.0369
     26 C          -6.7443    4.4149   21.9797 C.ar    1  UNL1        0.0031
     27 C          -6.6013    4.4387   23.4726 C.ar    1  UNL1        0.0002
     28 C          -5.3596    3.8962   24.1158 C.ar    1  UNL1        0.0031
     29 C          -4.2608    3.3300   23.2661 C.ar    1  UNL1        0.0369
@<TRIPOS>BOND
     1     1     2    2
     2     2    12    1
     3    12    13   ar
     4    13    14   ar
     5    14    15   ar
     6    15    16   ar
     7    16    17   ar
     8    17    18   ar
     9    18    19   ar
    10    19    20   ar
    11     2     3   am
    12     3     4    1
    13     4     5    1
    14     5     6    1
    15     6     7   ar
    16     7     8   ar
    17     8    22    1
    18    22    23    1
    19    23    24    1
    20    24    25   ar
    21    25    26   ar
    22    26    27   ar
    23    27    28   ar
    24    28    29   ar
    25     8     9   ar
    26     9    10   ar
    27    10    11    1
    28    20    12   ar
    29    11     3    1
    30    20    15    1
    31    10     6   ar
    32    29    24   ar
    33    16    21    1
@<TRIPOS>MOLECULE
*****
 29 33 0 0 0
SMALL
GASTEIGER

@<TRIPOS>ATOM
      1 O         -10.3273   -1.8701   17.0770 O.2     1  UNL1       -0.2682
      2 C         -11.1177   -2.7680   17.9819 C.2     1  UNL1        0.2690
      3 N         -12.4190   -2.2944   18.5584 N.am    1  UNL1       -0.2673
      4 C         -13.2095   -3.1922   19.4633 C.3     1  UNL1        0.1006
      5 C         -14.5108   -2.7187   20.0397 C.3     1  UNL1        0.0703
      6 C         -15.0216   -1.3471   19.7112 C.ar    1  UNL1        0.0955
      7 N         -16.2609   -0.6114   20.1269 N.ar    1  UNL1       -0.2136
      8 C         -16.2364    0.7412   19.4789 C.ar    1  UNL1        0.2500
      9 O         -14.9819    0.8414   18.6627 O.2     1  UNL1       -0.4379
     10 C         -14.2312   -0.4492   18.8063 C.ar    1  UNL1        0.1580
     11 C         -12.9299   -0.9228   18.2298 C.3     1  UNL1        0.1598
     12 C         -10.6068   -4.1396   18.3105 C.ar    1  UNL1        0.1591
     13 N          -9.5867   -4.4729   19.3584 N.ar    1  UNL1       -0.1419
     14 N          -9.3759   -5.9579   19.3443 N.ar    1  UNL1       -0.1302
     15 C         -10.2658   -6.5424   18.2877 C.ar    1  UNL1        0.1637
     16 N         -10.4816   -7.9528   17.8248 N.ar    1  UNL1       -0.3360
     17 C         -11.4582   -8.2393   16.7230 C.ar    1  UNL1        0.0735
     18 C         -12.2190   -7.1155   16.0841 C.ar    1  UNL1        0.0186
     19 C         -12.0032   -5.7052   16.5469 C.ar    1  UNL1        0.0063
     20 C         -11.0266   -5.4186   17.6487 C.ar    1  UNL1        0.0596
     21 H          -9.9823   -8.6904   18.2442 H       1  UNL1        0.1675
     22 C         -17.2827    1.8065   19.6221 C.3     1  UNL1        0.2895
     23 O         -17.7603    2.2101   20.9855 O.3     1  UNL1       -0.4655
     24 C         -16.9042    3.0862   21.8512 C.ar    1  UNL1        0.1393
     25 C         -17.0902    3.0813   23.3396 C.ar    1  UNL1        0.0369
     26 C         -16.2340    3.9576   24.2052 C.ar    1  UNL1        0.0031
     27 C         -15.1920    4.8385   23.5825 C.ar    1  UNL1        0.0002
     28 C         -15.0060    4.8434   22.0941 C.ar    1  UNL1        0.0031
     29 C         -15.8621    3.9673   21.2284 C.ar    1  UNL1        0.0369
@<TRIPOS>BOND
     1     1     2    2
     2     2    12    1
     3    12    13   ar
     4    13    14   ar
     5    14    15   ar
     6    15    16   ar
     7    16    17   ar
     8    17    18   ar
     9    18    19   ar
    10    19    20   ar
    11     2     3   am
    12     3     4    1
    13     4     5    1
    14     5     6    1
    15     6     7   ar
    16     7     8   ar
    17     8    22    1
    18    22    23    1
    19    23    24    1
    20    24    25   ar
    21    25    26   ar
    22    26    27   ar
    23    27    28   ar
    24    28    29   ar
    25     8     9   ar
    26     9    10   ar
    27    10    11    1
    28    20    12   ar
    29    11     3    1
    30    20    15    1
    31    10     6   ar
    32    29    24   ar
    33    16    21    1
@<TRIPOS>MOLECULE
*****
 29 33 0 0 0
SMALL
GASTEIGER

@<TRIPOS>ATOM
      1 O          -9.5433  -19.9654   19.9163 O.2     1  UNL1       -0.2682
      2 C          -9.6849  -18.8576   20.9175 C.2     1  UNL1        0.2690
      3 N          -8.4790  -18.3532   21.6536 N.am    1  UNL1       -0.2673
      4 C          -8.6205  -17.2453   22.6548 C.3     1  UNL1        0.1006
      5 C          -7.4148  -16.7410   23.3908 C.3     1  UNL1        0.0703
      6 C          -6.0675  -17.3446   23.1256 C.ar    1  UNL1        0.0955
      7 N          -4.7093  -17.0567   23.6936 N.ar    1  UNL1       -0.2136
      8 C          -3.7284  -17.9868   23.0433 C.ar    1  UNL1        0.2500
      9 O          -4.4803  -18.8494   22.0735 O.2     1  UNL1       -0.4379
     10 C          -5.9259  -18.4525   22.1244 C.ar    1  UNL1        0.1580
     11 C          -7.1317  -18.9569   21.3884 C.3     1  UNL1        0.1598
     12 C         -11.0322  -18.2539   21.1827 C.ar    1  UNL1        0.1591
     13 N         -11.8451  -17.4505   20.2113 N.ar    1  UNL1       -0.1419
     14 N         -13.1184  -17.0478   20.8941 N.ar    1  UNL1       -0.1302
     15 C         -13.0926  -17.6023   22.2876 C.ar    1  UNL1        0.1637
     16 N         -14.0765  -17.5248   23.4171 N.ar    1  UNL1       -0.3360
     17 C         -13.7710  -18.1927   24.7250 C.ar    1  UNL1        0.0735
     18 C         -12.4817  -18.9382   24.9034 C.ar    1  UNL1        0.0186
     19 C         -11.4977  -19.0157   23.7739 C.ar    1  UNL1        0.0063
     20 C         -11.8032  -18.3478   22.4660 C.ar    1  UNL1        0.0596
     21 H         -14.9228  -17.0356   23.3001 H       1  UNL1        0.1675
     22 C          -2.2543  -18.0441   23.3152 C.3     1  UNL1        0.2895
     23 O          -1.3431  -18.7588   22.3618 O.3     1  UNL1       -0.4655
     24 C          -1.4079  -18.4572   20.8939 C.ar    1  UNL1        0.1393
     25 C          -0.3159  -17.6611   20.2429 C.ar    1  UNL1        0.0369
     26 C          -0.3807  -17.3596   18.7749 C.ar    1  UNL1        0.0031
     27 C          -1.5374  -17.8541   17.9580 C.ar    1  UNL1        0.0002
     28 C          -2.6294  -18.6501   18.6090 C.ar    1  UNL1        0.0031
     29 C          -2.5647  -18.9517   20.0770 C.ar    1  UNL1        0.0369
@<TRIPOS>BOND
     1     1     2    2
     2     2    12    1
     3    12    13   ar
     4    13    14   ar
     5    14    15   ar
     6    15    16   ar
     7    16    17   ar
     8    17    18   ar
     9    18    19   ar
    10    19    20   ar
    11     2     3   am
    12     3     4    1
    13     4     5    1
    14     5     6    1
    15     6     7   ar
    16     7     8   ar
    17     8    22    1
    18    22    23    1
    19    23    24    1
    20    24    25   ar
    21    25    26   ar
    22    26    27   ar
    23    27    28   ar
    24    28    29   ar
    25     8     9   ar
    26     9    10   ar
    27    10    11    1
    28    20    12   ar
    29    11     3    1
    30    20    15    1
    31    10     6   ar
    32    29    24   ar
    33    16    21    1
@<TRIPOS>MOLECULE
*****
 29 33 0 0 0
SMALL
GASTEIGER

@<TRIPOS>ATOM
      1 O           2.8246   -3.2863   19.4470 O.2     1  UNL1       -0.2682
      2 C           3.5807   -2.0081   19.2366 C.2     1  UNL1        0.2690
      3 N           2.9096   -0.6899   19.4868 N.am    1  UNL1       -0.2673
      4 C           3.6657    0.5884   19.2765 C.3     1  UNL1        0.1006
      5 C           2.9948    1.9064   19.5266 C.3     1  UNL1        0.0703
      6 C           1.5678    1.9461   19.9871 C.ar    1  UNL1        0.0955
      7 N           0.6494    3.0867   20.3123 N.ar    1  UNL1       -0.2136
      8 C          -0.6742    2.5132   20.7236 C.ar    1  UNL1        0.2500
      9 O          -0.5739    1.0183   20.6526 O.2     1  UNL1       -0.4379
     10 C           0.8117    0.6678   20.1974 C.ar    1  UNL1        0.1580
     11 C           1.4826   -0.6502   19.9473 C.3     1  UNL1        0.1598
     12 C           5.0077   -2.0477   18.7762 C.ar    1  UNL1        0.1591
     13 N           5.4983   -1.7221   17.3966 N.ar    1  UNL1       -0.1419
     14 N           6.9885   -1.8932   17.3823 N.ar    1  UNL1       -0.1302
     15 C           7.4188   -2.3245   18.7530 C.ar    1  UNL1        0.1637
     16 N           8.7672   -2.6426   19.3279 N.ar    1  UNL1       -0.3360
     17 C           8.8913   -3.0562   20.7644 C.ar    1  UNL1        0.0735
     18 C           7.6671   -3.1517   21.6259 C.ar    1  UNL1        0.0186
     19 C           6.3187   -2.8336   21.0509 C.ar    1  UNL1        0.0063
     20 C           6.1946   -2.4200   19.6145 C.ar    1  UNL1        0.0596
     21 H           9.5707   -2.5799   18.7625 H       1  UNL1        0.1675
     22 C          -1.8855    3.2972   21.1339 C.3     1  UNL1        0.2895
     23 O          -3.2573    2.7638   20.8449 O.3     1  UNL1       -0.4655
     24 C          -4.1133    3.4208   19.8029 C.ar    1  UNL1        0.1393
     25 C          -5.6063    3.4162   19.9469 C.ar    1  UNL1        0.0369
     26 C          -6.4623    4.0732   18.9048 C.ar    1  UNL1        0.0031
     27 C          -5.8252    4.7347   17.7190 C.ar    1  UNL1        0.0002
     28 C          -4.3321    4.7394   17.5750 C.ar    1  UNL1        0.0031
     29 C          -3.4762    4.0824   18.6170 C.ar    1  UNL1        0.0369
@<TRIPOS>BOND
     1     1     2    2
     2     2    12    1
     3    12    13   ar
     4    13    14   ar
     5    14    15   ar
     6    15    16   ar
     7    16    17   ar
     8    17    18   ar
     9    18    19   ar
    10    19    20   ar
    11     2     3   am
    12     3     4    1
    13     4     5    1
    14     5     6    1
    15     6     7   ar
    16     7     8   ar
    17     8    22    1
    18    22    23    1
    19    23    24    1
    20    24    25   ar
    21    25    26   ar
    22    26    27   ar
    23    27    28   ar
    24    28    29   ar
    25     8     9   ar
    26     9    10   ar
    27    10    11    1
    28    20    12   ar
    29    11     3    1
    30    20    15    1
    31    10     6   ar
    32    29    24   ar
    33    16    21    1
@<TRIPOS>MOLECULE
*****
 29 33 0 0 0
SMALL
GASTEIGER

@<TRIPOS>ATOM
      1 O           5.6031    2.2477   17.9969 O.2     1  UNL1       -0.2682
      2 C           4.9975    0.9589   18.4683 C.2     1  UNL1        0.2690
      3 N           3.5987    0.9415   19.0099 N.am    1  UNL1       -0.2673
      4 C           2.9930   -0.3473   19.4813 C.3     1  UNL1        0.1006
      5 C           1.5943   -0.3648   20.0229 C.3     1  UNL1        0.0703
      6 C           0.8013    0.9065   20.0930 C.ar    1  UNL1        0.0955
      7 N          -0.5893    1.1967   20.5745 N.ar    1  UNL1       -0.2136
      8 C          -0.8431    2.6648   20.4007 C.ar    1  UNL1        0.2500
      9 O           0.3907    3.2820   19.8118 O.2     1  UNL1       -0.4379
     10 C           1.4070    2.1952   19.6216 C.ar    1  UNL1        0.1580
     11 C           2.8057    2.2128   19.0800 C.3     1  UNL1        0.1598
     12 C           5.7905   -0.3124   18.3982 C.ar    1  UNL1        0.1591
     13 N           6.1255   -1.0749   17.1506 N.ar    1  UNL1       -0.1419
     14 N           6.9298   -2.2781   17.5447 N.ar    1  UNL1       -0.1302
     15 C           7.0918   -2.2593   19.0358 C.ar    1  UNL1        0.1637
     16 N           7.7896   -3.1914   19.9815 N.ar    1  UNL1       -0.3360
     17 C           7.7832   -2.9087   21.4545 C.ar    1  UNL1        0.0735
     18 C           7.0790   -1.6938   21.9820 C.ar    1  UNL1        0.0186
     19 C           6.3813   -0.7616   21.0364 C.ar    1  UNL1        0.0063
     20 C           6.3877   -1.0444   19.5633 C.ar    1  UNL1        0.0596
     21 H           8.2517   -3.9888   19.6353 H       1  UNL1        0.1675
     22 C          -2.1086    3.3887   20.7540 C.3     1  UNL1        0.2895
     23 O          -3.4087    2.6427   20.8093 O.3     1  UNL1       -0.4655
     24 C          -4.6161    3.2848   21.4257 C.ar    1  UNL1        0.1393
     25 C          -5.6126    3.9955   20.5586 C.ar    1  UNL1        0.0369
     26 C          -6.8200    4.6376   21.1751 C.ar    1  UNL1        0.0031
     27 C          -7.0309    4.5689   22.6585 C.ar    1  UNL1        0.0002
     28 C          -6.0344    3.8582   23.5256 C.ar    1  UNL1        0.0031
     29 C          -4.8270    3.2161   22.9092 C.ar    1  UNL1        0.0369
@<TRIPOS>BOND
     1     1     2    2
     2     2    12    1
     3    12    13   ar
     4    13    14   ar
     5    14    15   ar
     6    15    16   ar
     7    16    17   ar
     8    17    18   ar
     9    18    19   ar
    10    19    20   ar
    11     2     3   am
    12     3     4    1
    13     4     5    1
    14     5     6    1
    15     6     7   ar
    16     7     8   ar
    17     8    22    1
    18    22    23    1
    19    23    24    1
    20    24    25   ar
    21    25    26   ar
    22    26    27   ar
    23    27    28   ar
    24    28    29   ar
    25     8     9   ar
    26     9    10   ar
    27    10    11    1
    28    20    12   ar
    29    11     3    1
    30    20    15    1
    31    10     6   ar
    32    29    24   ar
    33    16    21    1
@<TRIPOS>MOLECULE
*****
 29 33 0 0 0
SMALL
GASTEIGER

@<TRIPOS>ATOM
      1 O           0.6601    5.0706   21.0492 O.2     1  UNL1       -0.2682
      2 C           0.0517    3.8278   20.4704 C.2     1  UNL1        0.2690
      3 N           0.9123    2.8444   19.7338 N.am    1  UNL1       -0.2673
      4 C           0.3040    1.6015   19.1549 C.3     1  UNL1        0.1006
      5 C           1.1645    0.6182   18.4183 C.3     1  UNL1        0.0703
      6 C           2.6334    0.8778   18.2607 C.ar    1  UNL1        0.0955
      7 N           3.7246    0.0963   17.5908 N.ar    1  UNL1       -0.2136
      8 C           5.0073    0.8563   17.7557 C.ar    1  UNL1        0.2500
      9 O           4.7089    2.1074   18.5275 O.2     1  UNL1       -0.4379
     10 C           3.2418    2.1207   18.8396 C.ar    1  UNL1        0.1580
     11 C           2.3813    3.1040   19.5761 C.3     1  UNL1        0.1598
     12 C          -1.4172    3.5682   20.6280 C.ar    1  UNL1        0.1591
     13 N          -2.1064    3.1396   21.8895 N.ar    1  UNL1       -0.1419
     14 N          -3.5700    2.9981   21.5929 N.ar    1  UNL1       -0.1302
     15 C          -3.7853    3.3392   20.1482 C.ar    1  UNL1        0.1637
     16 N          -5.0210    3.3746   19.2986 N.ar    1  UNL1       -0.3360
     17 C          -4.9262    3.7622   17.8527 C.ar    1  UNL1        0.0735
     18 C          -3.5957    4.1145   17.2564 C.ar    1  UNL1        0.0186
     19 C          -2.3600    4.0792   18.1059 C.ar    1  UNL1        0.0063
     20 C          -2.4548    3.6915   19.5518 C.ar    1  UNL1        0.0596
     21 H          -5.8943    3.1433   19.6900 H       1  UNL1        0.1675
     22 C           6.3522    0.4384   17.2394 C.3     1  UNL1        0.2895
     23 O           6.6513   -1.0143   17.0155 O.3     1  UNL1       -0.4655
     24 C           6.6302   -1.9710   18.1707 C.ar    1  UNL1        0.1393
     25 C           7.7722   -1.9983   19.1428 C.ar    1  UNL1        0.0369
     26 C           7.7511   -2.9551   20.2979 C.ar    1  UNL1        0.0031
     27 C           6.5881   -3.8844   20.4809 C.ar    1  UNL1        0.0002
     28 C           5.4461   -3.8571   19.5087 C.ar    1  UNL1        0.0031
     29 C           5.4672   -2.9004   18.3536 C.ar    1  UNL1        0.0369
@<TRIPOS>BOND
     1     1     2    2
     2     2    12    1
     3    12    13   ar
     4    13    14   ar
     5    14    15   ar
     6    15    16   ar
     7    16    17   ar
     8    17    18   ar
     9    18    19   ar
    10    19    20   ar
    11     2     3   am
    12     3     4    1
    13     4     5    1
    14     5     6    1
    15     6     7   ar
    16     7     8   ar
    17     8    22    1
    18    22    23    1
    19    23    24    1
    20    24    25   ar
    21    25    26   ar
    22    26    27   ar
    23    27    28   ar
    24    28    29   ar
    25     8     9   ar
    26     9    10   ar
    27    10    11    1
    28    20    12   ar
    29    11     3    1
    30    20    15    1
    31    10     6   ar
    32    29    24   ar
    33    16    21    1
@<TRIPOS>MOLECULE
*****
 29 33 0 0 0
SMALL
GASTEIGER

@<TRIPOS>ATOM
      1 O           4.6111    2.1933   31.0817 O.2     1  UNL1       -0.2682
      2 C           3.7365    0.9814   30.9548 C.2     1  UNL1        0.2690
      3 N           2.5149    1.0259   30.0853 N.am    1  UNL1       -0.2673
      4 C           1.6402   -0.1860   29.9583 C.3     1  UNL1        0.1006
      5 C           0.4186   -0.1415   29.0889 C.3     1  UNL1        0.0703
      6 C           0.0719    1.1149   28.3465 C.ar    1  UNL1        0.0955
      7 N          -1.0596    1.4547   27.4222 N.ar    1  UNL1       -0.2136
      8 C          -0.8841    2.8766   26.9780 C.ar    1  UNL1        0.2500
      9 O           0.3557    3.4156   27.6277 O.2     1  UNL1       -0.4379
     10 C           0.9466    2.3268   28.4735 C.ar    1  UNL1        0.1580
     11 C           2.1681    2.2824   29.3429 C.3     1  UNL1        0.1598
     12 C           4.0833   -0.2750   31.6972 C.ar    1  UNL1        0.1591
     13 N           3.5680   -0.6710   33.0491 N.ar    1  UNL1       -0.1419
     14 N           4.1725   -1.9967   33.4054 N.ar    1  UNL1       -0.1302
     15 C           5.0614   -2.4201   32.2738 C.ar    1  UNL1        0.1637
     16 N           5.9139   -3.6370   32.0683 N.ar    1  UNL1       -0.3360
     17 C           6.7112   -3.7898   30.8070 C.ar    1  UNL1        0.0735
     18 C           6.6561   -2.7257   29.7512 C.ar    1  UNL1        0.0186
     19 C           5.8036   -1.5088   29.9567 C.ar    1  UNL1        0.0063
     20 C           5.0062   -1.3559   31.2180 C.ar    1  UNL1        0.0596
     21 H           5.9501   -4.3354   32.7612 H       1  UNL1        0.1675
     22 C          -1.7897    3.6277   26.0473 C.3     1  UNL1        0.2895
     23 O          -3.2590    3.7126   26.3368 O.3     1  UNL1       -0.4655
     24 C          -4.2399    3.8344   25.2086 C.ar    1  UNL1        0.1393
     25 C          -5.5837    4.4569   25.4470 C.ar    1  UNL1        0.0369
     26 C          -6.5646    4.5786   24.3186 C.ar    1  UNL1        0.0031
     27 C          -6.2017    4.0780   22.9521 C.ar    1  UNL1        0.0002
     28 C          -4.8580    3.4555   22.7137 C.ar    1  UNL1        0.0031
     29 C          -3.8771    3.3338   23.8420 C.ar    1  UNL1        0.0369
@<TRIPOS>BOND
     1     1     2    2
     2     2    12    1
     3    12    13   ar
     4    13    14   ar
     5    14    15   ar
     6    15    16   ar
     7    16    17   ar
     8    17    18   ar
     9    18    19   ar
    10    19    20   ar
    11     2     3   am
    12     3     4    1
    13     4     5    1
    14     5     6    1
    15     6     7   ar
    16     7     8   ar
    17     8    22    1
    18    22    23    1
    19    23    24    1
    20    24    25   ar
    21    25    26   ar
    22    26    27   ar
    23    27    28   ar
    24    28    29   ar
    25     8     9   ar
    26     9    10   ar
    27    10    11    1
    28    20    12   ar
    29    11     3    1
    30    20    15    1
    31    10     6   ar
    32    29    24   ar
    33    16    21    1
@<TRIPOS>MOLECULE
*****
 29 33 0 0 0
SMALL
GASTEIGER

@<TRIPOS>ATOM
      1 O           9.1235   -2.2070   32.2819 O.2     1  UNL1       -0.2682
      2 C           7.6906   -2.5993   32.0751 C.2     1  UNL1        0.2690
      3 N           6.5911   -1.7462   32.6352 N.am    1  UNL1       -0.2673
      4 C           5.1582   -2.1384   32.4284 C.3     1  UNL1        0.1006
      5 C           4.0588   -1.2855   32.9885 C.3     1  UNL1        0.0703
      6 C           4.3924   -0.0403   33.7554 C.ar    1  UNL1        0.0955
      7 N           3.5291    0.9906   34.4202 N.ar    1  UNL1       -0.2136
      8 C           4.4285    2.0200   35.0378 C.ar    1  UNL1        0.2500
      9 O           5.8477    1.6253   34.7548 O.2     1  UNL1       -0.4379
     10 C           5.8253    0.3519   33.9622 C.ar    1  UNL1        0.1580
     11 C           6.9248   -0.5010   33.4021 C.3     1  UNL1        0.1598
     12 C           7.3570   -3.8445   31.3082 C.ar    1  UNL1        0.1591
     13 N           7.1861   -5.2175   31.8874 N.ar    1  UNL1       -0.1419
     14 N           6.8592   -6.1569   30.7646 N.ar    1  UNL1       -0.1302
     15 C           6.8281   -5.3644   29.4914 C.ar    1  UNL1        0.1637
     16 N           6.5593   -5.7595   28.0695 N.ar    1  UNL1       -0.3360
     17 C           6.5983   -4.7254   26.9837 C.ar    1  UNL1        0.0735
     18 C           6.9059   -3.2963   27.3196 C.ar    1  UNL1        0.0186
     19 C           7.1747   -2.9012   28.7415 C.ar    1  UNL1        0.0063
     20 C           7.1357   -3.9352   29.8273 C.ar    1  UNL1        0.0596
     21 H           6.3574   -6.6975   27.8490 H       1  UNL1        0.1675
     22 C           3.9863    3.2315   35.8040 C.3     1  UNL1        0.2895
     23 O           3.9656    3.2041   37.3036 O.3     1  UNL1       -0.4655
     24 C           2.8492    2.5098   38.0257 C.ar    1  UNL1        0.1393
     25 C           1.5936    3.2583   38.3621 C.ar    1  UNL1        0.0369
     26 C           0.4771    2.5640   39.0842 C.ar    1  UNL1        0.0031
     27 C           0.6163    1.1212   39.4700 C.ar    1  UNL1        0.0002
     28 C           1.8719    0.3726   39.1336 C.ar    1  UNL1        0.0031
     29 C           2.9883    1.0669   38.4115 C.ar    1  UNL1        0.0369
@<TRIPOS>BOND
     1     1     2    2
     2     2    12    1
     3    12    13   ar
     4    13    14   ar
     5    14    15   ar
     6    15    16   ar
     7    16    17   ar
     8    17    18   ar
     9    18    19   ar
    10    19    20   ar
    11     2     3   am
    12     3     4    1
    13     4     5    1
    14     5     6    1
    15     6     7   ar
    16     7     8   ar
    17     8    22    1
    18    22    23    1
    19    23    24    1
    20    24    25   ar
    21    25    26   ar
    22    26    27   ar
    23    27    28   ar
    24    28    29   ar
    25     8     9   ar
    26     9    10   ar
    27    10    11    1
    28    20    12   ar
    29    11     3    1
    30    20    15    1
    31    10     6   ar
    32    29    24   ar
    33    16    21    1
