@<TRIPOS>MOLECULE
*****
 32 36 0 0 0
SMALL
GASTEIGER

@<TRIPOS>ATOM
      1 C           4.5073    0.3200   22.1110 C.2     1  UNL1        0.2257
      2 O           5.6215    0.8101   21.2346 O.2     1  UNL1       -0.2749
      3 N           4.8124   -0.2431   23.4675 N.am    1  UNL1       -0.2760
      4 C           6.2316   -0.3161   23.9474 C.3     1  UNL1        0.1149
      5 C           6.5366   -0.8792   25.3038 C.3     1  UNL1        0.1141
      6 N           5.4224   -1.3693   26.1803 N.pl3   1  UNL1       -0.2846
      7 C           4.0032   -1.2964   25.7004 C.3     1  UNL1        0.1141
      8 C           3.6981   -0.7332   24.3439 C.3     1  UNL1        0.1149
      9 C           5.7274   -1.9325   27.5367 C.ar    1  UNL1        0.1648
     10 N           6.2427   -3.3117   27.8233 N.ar    1  UNL1       -0.2052
     11 C           6.4045   -3.4469   29.3084 C.ar    1  UNL1        0.1702
     12 N           6.8763   -4.5824   30.1674 N.ar    1  UNL1       -0.2246
     13 C           6.9328   -4.4222   31.6577 C.ar    1  UNL1        0.1006
     14 C           6.5175   -3.1264   32.2890 C.ar    1  UNL1        0.0213
     15 C           6.0457   -1.9909   31.4300 C.ar    1  UNL1        0.0112
     16 C           5.9892   -2.1511   29.9397 C.ar    1  UNL1        0.0679
     17 S           5.5707   -1.2152   28.8447 S.2     1  UNL1       -0.0499
     18 C           2.5066   -0.7374   20.8347 C.3     1  UNL1        0.0851
     19 C           1.0873   -0.6643   20.3548 C.3     1  UNL1        0.0096
     20 C           0.2495    0.5390   20.6712 C.3     1  UNL1        0.0005
     21 C           0.8310    1.6693   21.4676 C.3     1  UNL1        0.0005
     22 C           2.2503    1.5963   21.9475 C.3     1  UNL1        0.0096
     23 C           3.0881    0.3930   21.6311 C.3     1  UNL1        0.0853
     24 N           3.5141   -2.3831   19.0952 N.am    1  UNL1       -0.2959
     25 C           3.3443   -1.9407   20.5183 C.2     1  UNL1        0.2231
     26 O           4.0122   -2.7015   21.6251 O.2     1  UNL1       -0.2751
     27 H           3.0757   -1.8837   18.3688 H       1  UNL1        0.1502
     28 C           4.3519   -3.5865   18.7787 C.3     1  UNL1        0.1364
     29 C           4.7695   -5.0226   18.6641 C.3     1  UNL1        0.0353
     30 C           3.4333   -4.6746   19.2499 C.3     1  UNL1        0.0353
     31 N           6.7710   -2.2460   17.6166 N.1     1  UNL1       -0.1943
     32 C           5.5615   -2.9162   18.1976 C.1     1  UNL1        0.0896
@<TRIPOS>BOND
     1    31    32    3
     2    32    28    1
     3    28    24    1
     4    24    25   am
     5    25    26    2
     6    18    25    1
     7    18    19    1
     8    19    20    1
     9    20    21    1
    10    21    22    1
    11    22    23    1
    12    23     1    1
    13     1     2    2
    14     1     3   am
    15     3     4    1
    16     4     5    1
    17     5     6    1
    18     6     9    1
    19     9    10   ar
    20    10    11   ar
    21    11    12   ar
    22    12    13   ar
    23    13    14   ar
    24    14    15   ar
    25    15    16   ar
    26    16    17   ar
    27     6     7    1
    28     7     8    1
    29    28    29    1
    30    29    30    1
    31    30    28    1
    32    23    18    1
    33     8     3    1
    34    17     9   ar
    35    16    11   ar
    36    24    27    1
@<TRIPOS>MOLECULE
*****
 32 36 0 0 0
SMALL
GASTEIGER

@<TRIPOS>ATOM
      1 C          -9.9392  -19.5215   22.8991 C.2     1  UNL1        0.2257
      2 O         -10.2937  -20.8102   23.5800 O.2     1  UNL1       -0.2749
      3 N          -8.5436  -19.2980   22.3965 N.am    1  UNL1       -0.2760
      4 C          -7.5026  -20.3631   22.5748 C.3     1  UNL1        0.1149
      5 C          -6.1071  -20.1395   22.0723 C.3     1  UNL1        0.1141
      6 N          -5.7526  -18.8508   21.3914 N.pl3   1  UNL1       -0.2846
      7 C          -6.7936  -17.7857   21.2131 C.3     1  UNL1        0.1141
      8 C          -8.1891  -18.0093   21.7157 C.3     1  UNL1        0.1149
      9 C          -4.3571  -18.6273   20.8889 C.ar    1  UNL1        0.1648
     10 N          -3.9438  -18.5242   19.4506 N.ar    1  UNL1       -0.2052
     11 C          -2.4612  -18.3007   19.4092 C.ar    1  UNL1        0.1702
     12 N          -1.5042  -18.1246   18.2676 N.ar    1  UNL1       -0.2246
     13 C          -0.0441  -17.9135   18.5388 C.ar    1  UNL1        0.1006
     14 C           0.4590  -17.8785   19.9514 C.ar    1  UNL1        0.0213
     15 C          -0.4979  -18.0546   21.0930 C.ar    1  UNL1        0.0112
     16 C          -1.9580  -18.2657   20.8219 C.ar    1  UNL1        0.0679
     17 S          -3.1298  -18.4675   21.7363 S.2     1  UNL1       -0.0499
     18 C         -10.9048  -17.1920   23.5243 C.3     1  UNL1        0.0851
     19 C         -11.9459  -16.1269   23.3460 C.3     1  UNL1        0.0096
     20 C         -13.0622  -16.3262   22.3642 C.3     1  UNL1        0.0005
     21 C         -13.1376  -17.5906   21.5606 C.3     1  UNL1        0.0005
     22 C         -12.0966  -18.6557   21.7389 C.3     1  UNL1        0.0096
     23 C         -10.9801  -18.4564   22.7208 C.3     1  UNL1        0.0853
     24 N          -8.9570  -15.7454   24.4534 N.am    1  UNL1       -0.2959
     25 C          -9.7885  -16.9927   24.5061 C.2     1  UNL1        0.2231
     26 O          -9.5035  -18.0408   25.5406 O.2     1  UNL1       -0.2751
     27 H          -9.1441  -15.0574   23.7744 H       1  UNL1        0.1502
     28 C          -7.8407  -15.5461   25.4352 C.3     1  UNL1        0.1364
     29 C          -7.1312  -15.3504   26.7423 C.3     1  UNL1        0.0353
     30 C          -8.6246  -15.4874   26.7127 C.3     1  UNL1        0.0353
     31 N          -5.4973  -15.5251   23.5623 N.1     1  UNL1       -0.1943
     32 C          -6.6690  -15.5355   24.4987 C.1     1  UNL1        0.0896
@<TRIPOS>BOND
     1    31    32    3
     2    32    28    1
     3    28    24    1
     4    24    25   am
     5    25    26    2
     6    18    25    1
     7    18    19    1
     8    19    20    1
     9    20    21    1
    10    21    22    1
    11    22    23    1
    12    23     1    1
    13     1     2    2
    14     1     3   am
    15     3     4    1
    16     4     5    1
    17     5     6    1
    18     6     9    1
    19     9    10   ar
    20    10    11   ar
    21    11    12   ar
    22    12    13   ar
    23    13    14   ar
    24    14    15   ar
    25    15    16   ar
    26    16    17   ar
    27     6     7    1
    28     7     8    1
    29    28    29    1
    30    29    30    1
    31    30    28    1
    32    23    18    1
    33     8     3    1
    34    17     9   ar
    35    16    11   ar
    36    24    27    1
@<TRIPOS>MOLECULE
*****
 32 36 0 0 0
SMALL
GASTEIGER

@<TRIPOS>ATOM
      1 C           5.0154   -0.6814   17.3355 C.2     1  UNL1        0.2257
      2 O           3.9322   -1.1807   16.4260 O.2     1  UNL1       -0.2749
      3 N           5.5680   -1.5759   18.4053 N.am    1  UNL1       -0.2760
      4 C           5.0374   -2.9697   18.5656 C.3     1  UNL1        0.1149
      5 C           5.5900   -3.8642   19.6354 C.3     1  UNL1        0.1141
      6 N           6.6733   -3.3649   20.5449 N.pl3   1  UNL1       -0.2846
      7 C           7.2039   -1.9711   20.3846 C.3     1  UNL1        0.1141
      8 C           6.6513   -1.0766   19.3148 C.3     1  UNL1        0.1149
      9 C           7.2259   -4.2594   21.6147 C.ar    1  UNL1        0.1648
     10 N           8.1535   -5.4188   21.4024 N.ar    1  UNL1       -0.2052
     11 C           8.4489   -6.0275   22.7411 C.ar    1  UNL1        0.1702
     12 N           9.3000   -7.1938   23.1477 N.ar    1  UNL1       -0.2246
     13 C           9.4060   -7.5768   24.5940 C.ar    1  UNL1        0.1006
     14 C           8.6608   -6.7935   25.6339 C.ar    1  UNL1        0.0213
     15 C           7.8096   -5.6273   25.2273 C.ar    1  UNL1        0.0112
     16 C           7.7037   -5.2443   23.7809 C.ar    1  UNL1        0.0679
     17 S           6.9478   -4.1515   23.0848 S.2     1  UNL1       -0.0499
     18 C           4.9289    1.8429   17.9439 C.3     1  UNL1        0.0851
     19 C           5.4596    3.2368   17.7835 C.3     1  UNL1        0.0096
     20 C           6.6074    3.5000   16.8545 C.3     1  UNL1        0.0005
     21 C           7.2246    2.3694   16.0858 C.3     1  UNL1        0.0005
     22 C           6.6940    0.9757   16.2461 C.3     1  UNL1        0.0096
     23 C           5.5461    0.7124   17.1752 C.3     1  UNL1        0.0853
     24 N           2.5228    0.9515   18.3512 N.am    1  UNL1       -0.2959
     25 C           3.7810    1.5797   18.8729 C.2     1  UNL1        0.2231
     26 O           3.8915    1.9446   20.3236 O.2     1  UNL1       -0.2751
     27 H           2.4503    0.7120   17.3991 H       1  UNL1        0.1502
     28 C           1.3749    0.6883   19.2803 C.3     1  UNL1        0.1364
     29 C           0.5010   -0.0127   20.2778 C.3     1  UNL1        0.0353
     30 C           1.7652   -0.6635   19.8000 C.3     1  UNL1        0.0353
     31 N          -0.2030    3.2092   18.8861 N.1     1  UNL1       -0.1943
     32 C           0.5860    1.9488   19.0832 C.1     1  UNL1        0.0896
@<TRIPOS>BOND
     1    31    32    3
     2    32    28    1
     3    28    24    1
     4    24    25   am
     5    25    26    2
     6    18    25    1
     7    18    19    1
     8    19    20    1
     9    20    21    1
    10    21    22    1
    11    22    23    1
    12    23     1    1
    13     1     2    2
    14     1     3   am
    15     3     4    1
    16     4     5    1
    17     5     6    1
    18     6     9    1
    19     9    10   ar
    20    10    11   ar
    21    11    12   ar
    22    12    13   ar
    23    13    14   ar
    24    14    15   ar
    25    15    16   ar
    26    16    17   ar
    27     6     7    1
    28     7     8    1
    29    28    29    1
    30    29    30    1
    31    30    28    1
    32    23    18    1
    33     8     3    1
    34    17     9   ar
    35    16    11   ar
    36    24    27    1
@<TRIPOS>MOLECULE
*****
 32 36 0 0 0
SMALL
GASTEIGER

@<TRIPOS>ATOM
      1 C           4.5689    0.3665   21.5065 C.2     1  UNL1        0.2257
      2 O           5.5973    1.0632   20.6657 O.2     1  UNL1       -0.2749
      3 N           4.9992   -0.5012   22.6519 N.am    1  UNL1       -0.2760
      4 C           6.4579   -0.6723   22.9564 C.3     1  UNL1        0.1149
      5 C           6.8883   -1.5401   24.1017 C.3     1  UNL1        0.1141
      6 N           5.8599   -2.2368   24.9425 N.pl3   1  UNL1       -0.2846
      7 C           4.4011   -2.0657   24.6380 C.3     1  UNL1        0.1141
      8 C           3.9708   -1.1979   23.4927 C.3     1  UNL1        0.1149
      9 C           6.2902   -3.1045   26.0879 C.ar    1  UNL1        0.1648
     10 N           5.9586   -2.8842   27.5341 N.ar    1  UNL1       -0.2052
     11 C           6.5911   -3.9885   28.3281 C.ar    1  UNL1        0.1702
     12 N           6.6025   -4.2886   29.7977 N.ar    1  UNL1       -0.2246
     13 C           7.3365   -5.4915   30.3119 C.ar    1  UNL1        0.1006
     14 C           8.0590   -6.3942   29.3564 C.ar    1  UNL1        0.0213
     15 C           8.0476   -6.0942   27.8868 C.ar    1  UNL1        0.0112
     16 C           7.3137   -4.8913   27.3727 C.ar    1  UNL1        0.0679
     17 S           7.1277   -4.3449   25.9881 S.2     1  UNL1       -0.0499
     18 C           2.4381   -0.3715   20.2162 C.3     1  UNL1        0.0851
     19 C           0.9793   -0.2004   19.9117 C.3     1  UNL1        0.0096
     20 C           0.1926    0.8799   20.5929 C.3     1  UNL1        0.0005
     21 C           0.8647    1.7891   21.5787 C.3     1  UNL1        0.0005
     22 C           2.3234    1.6180   21.8832 C.3     1  UNL1        0.0096
     23 C           3.1101    0.5376   21.2020 C.3     1  UNL1        0.0853
     24 N           3.5674   -2.7106   20.2753 N.am    1  UNL1       -0.2959
     25 C           3.2247   -1.4518   19.5350 C.2     1  UNL1        0.2231
     26 O           3.6687   -1.2733   18.1134 O.2     1  UNL1       -0.2751
     27 H           3.2760   -2.8277   21.2084 H       1  UNL1        0.1502
     28 C           4.3541   -3.7908   19.5941 C.3     1  UNL1        0.1364
     29 C           4.6566   -5.0378   18.8172 C.3     1  UNL1        0.0353
     30 C           3.2331   -4.6460   19.0822 C.3     1  UNL1        0.0353
     31 N           7.1424   -2.8308   20.1448 N.1     1  UNL1       -0.1943
     32 C           5.7483   -3.3108   19.8694 C.1     1  UNL1        0.0896
@<TRIPOS>BOND
     1    31    32    3
     2    32    28    1
     3    28    24    1
     4    24    25   am
     5    25    26    2
     6    18    25    1
     7    18    19    1
     8    19    20    1
     9    20    21    1
    10    21    22    1
    11    22    23    1
    12    23     1    1
    13     1     2    2
    14     1     3   am
    15     3     4    1
    16     4     5    1
    17     5     6    1
    18     6     9    1
    19     9    10   ar
    20    10    11   ar
    21    11    12   ar
    22    12    13   ar
    23    13    14   ar
    24    14    15   ar
    25    15    16   ar
    26    16    17   ar
    27     6     7    1
    28     7     8    1
    29    28    29    1
    30    29    30    1
    31    30    28    1
    32    23    18    1
    33     8     3    1
    34    17     9   ar
    35    16    11   ar
    36    24    27    1
@<TRIPOS>MOLECULE
*****
 32 36 0 0 0
SMALL
GASTEIGER

@<TRIPOS>ATOM
      1 C           3.2693   -1.8211   20.0772 C.2     1  UNL1        0.2257
      2 O           3.4267   -2.6794   18.8572 O.2     1  UNL1       -0.2749
      3 N           3.9744   -2.1889   21.3491 N.am    1  UNL1       -0.2760
      4 C           4.8369   -3.4150   21.4009 C.3     1  UNL1        0.1149
      5 C           5.5419   -3.7828   22.6728 C.3     1  UNL1        0.1141
      6 N           5.3845   -2.9245   23.8928 N.pl3   1  UNL1       -0.2846
      7 C           4.5220   -1.6984   23.8409 C.3     1  UNL1        0.1141
      8 C           3.8170   -1.3306   22.5691 C.3     1  UNL1        0.1149
      9 C           6.0896   -3.2923   25.1646 C.ar    1  UNL1        0.1648
     10 N           6.8007   -4.5847   25.4365 N.ar    1  UNL1       -0.2052
     11 C           7.3580   -4.5234   26.8278 C.ar    1  UNL1        0.1702
     12 N           8.1519   -5.5071   27.6352 N.ar    1  UNL1       -0.2246
     13 C           8.5792   -5.1604   29.0307 C.ar    1  UNL1        0.1006
     14 C           8.2125   -3.8301   29.6186 C.ar    1  UNL1        0.0213
     15 C           7.4185   -2.8464   28.8112 C.ar    1  UNL1        0.0112
     16 C           6.9913   -3.1931   27.4158 C.ar    1  UNL1        0.0679
     17 S           6.2074   -2.4322   26.3879 S.2     1  UNL1       -0.0499
     18 C           2.9790    0.7047   19.5422 C.3     1  UNL1        0.0851
     19 C           2.1165    1.9308   19.4904 C.3     1  UNL1        0.0096
     20 C           0.6817    1.8572   19.9217 C.3     1  UNL1        0.0005
     21 C           0.1095    0.5576   20.4049 C.3     1  UNL1        0.0005
     22 C           0.9720   -0.6685   20.4567 C.3     1  UNL1        0.0096
     23 C           2.4068   -0.5950   20.0254 C.3     1  UNL1        0.0853
     24 N           4.7691    0.6366   17.6605 N.am    1  UNL1       -0.2959
     25 C           4.4138    0.7782   19.1109 C.2     1  UNL1        0.2231
     26 O           5.4932    0.9933   20.1300 O.2     1  UNL1       -0.2751
     27 H           4.0607    0.4954   16.9917 H       1  UNL1        0.1502
     28 C           6.2039    0.7102   17.2292 C.3     1  UNL1        0.1364
     29 C           7.4997    1.2819   16.7353 C.3     1  UNL1        0.0353
     30 C           6.3021    2.1700   16.8991 C.3     1  UNL1        0.0353
     31 N           7.0040   -2.1586   17.5900 N.1     1  UNL1       -0.1943
     32 C           6.6039   -0.7242   17.4096 C.1     1  UNL1        0.0896
@<TRIPOS>BOND
     1    31    32    3
     2    32    28    1
     3    28    24    1
     4    24    25   am
     5    25    26    2
     6    18    25    1
     7    18    19    1
     8    19    20    1
     9    20    21    1
    10    21    22    1
    11    22    23    1
    12    23     1    1
    13     1     2    2
    14     1     3   am
    15     3     4    1
    16     4     5    1
    17     5     6    1
    18     6     9    1
    19     9    10   ar
    20    10    11   ar
    21    11    12   ar
    22    12    13   ar
    23    13    14   ar
    24    14    15   ar
    25    15    16   ar
    26    16    17   ar
    27     6     7    1
    28     7     8    1
    29    28    29    1
    30    29    30    1
    31    30    28    1
    32    23    18    1
    33     8     3    1
    34    17     9   ar
    35    16    11   ar
    36    24    27    1
@<TRIPOS>MOLECULE
*****
 32 36 0 0 0
SMALL
GASTEIGER

@<TRIPOS>ATOM
      1 C           4.2460   -0.3365   19.5812 C.2     1  UNL1        0.2257
      2 O           5.5441    0.3487   19.2725 O.2     1  UNL1       -0.2749
      3 N           2.9775    0.4602   19.6599 N.am    1  UNL1       -0.2760
      4 C           3.0072    1.9422   19.4299 C.3     1  UNL1        0.1149
      5 C           1.7387    2.7389   19.5086 C.3     1  UNL1        0.1141
      6 N           0.4406    2.0537   19.8173 N.pl3   1  UNL1       -0.2846
      7 C           0.4109    0.5718   20.0474 C.3     1  UNL1        0.1141
      8 C           1.6794   -0.2249   19.9687 C.3     1  UNL1        0.1149
      9 C          -0.8279    2.8505   19.8960 C.ar    1  UNL1        0.1648
     10 N          -1.9728    2.5952   20.8309 N.ar    1  UNL1       -0.2052
     11 C          -3.0267    3.6294   20.5663 C.ar    1  UNL1        0.1702
     12 N          -4.3720    3.8721   21.1837 N.ar    1  UNL1       -0.2246
     13 C          -5.2237    5.0093   20.7026 C.ar    1  UNL1        0.1006
     14 C          -4.7301    5.9037   19.6042 C.ar    1  UNL1        0.0213
     15 C          -3.3847    5.6609   18.9869 C.ar    1  UNL1        0.0112
     16 C          -2.5331    4.5237   19.4679 C.ar    1  UNL1        0.0679
     17 S          -1.1741    4.0423   19.0537 S.2     1  UNL1       -0.0499
     18 C           4.2939   -2.3624   21.2070 C.3     1  UNL1        0.0851
     19 C           4.2642   -3.8444   21.4371 C.3     1  UNL1        0.0096
     20 C           4.1571   -4.7824   20.2714 C.3     1  UNL1        0.0005
     21 C           4.0795   -4.2384   18.8757 C.3     1  UNL1        0.0005
     22 C           4.1092   -2.7564   18.6456 C.3     1  UNL1        0.0096
     23 C           4.2164   -1.8184   19.8113 C.3     1  UNL1        0.0853
     24 N           3.1915   -1.1244   23.2075 N.am    1  UNL1       -0.2959
     25 C           4.4011   -1.4245   22.3727 C.2     1  UNL1        0.2231
     26 O           5.7178   -0.7868   22.7035 O.2     1  UNL1       -0.2751
     27 H           2.3273   -1.5430   22.9904 H       1  UNL1        0.1502
     28 C           3.2987   -0.1864   24.3732 C.3     1  UNL1        0.1364
     29 C           3.5481    0.3058   25.7680 C.3     1  UNL1        0.0353
     30 C           3.7454   -1.1440   25.4378 C.3     1  UNL1        0.0353
     31 N           2.4797    2.3802   23.0535 N.1     1  UNL1       -0.1943
     32 C           2.8892    1.0969   23.7133 C.1     1  UNL1        0.0896
@<TRIPOS>BOND
     1    31    32    3
     2    32    28    1
     3    28    24    1
     4    24    25   am
     5    25    26    2
     6    18    25    1
     7    18    19    1
     8    19    20    1
     9    20    21    1
    10    21    22    1
    11    22    23    1
    12    23     1    1
    13     1     2    2
    14     1     3   am
    15     3     4    1
    16     4     5    1
    17     5     6    1
    18     6     9    1
    19     9    10   ar
    20    10    11   ar
    21    11    12   ar
    22    12    13   ar
    23    13    14   ar
    24    14    15   ar
    25    15    16   ar
    26    16    17   ar
    27     6     7    1
    28     7     8    1
    29    28    29    1
    30    29    30    1
    31    30    28    1
    32    23    18    1
    33     8     3    1
    34    17     9   ar
    35    16    11   ar
    36    24    27    1
@<TRIPOS>MOLECULE
*****
 32 36 0 0 0
SMALL
GASTEIGER

@<TRIPOS>ATOM
      1 C           3.4888   -2.5026   20.1856 C.2     1  UNL1        0.2257
      2 O           3.4145   -3.7793   19.4018 O.2     1  UNL1       -0.2749
      3 N           4.1494   -2.4866   21.5321 N.am    1  UNL1       -0.2760
      4 C           4.7358   -3.7473   22.0949 C.3     1  UNL1        0.1149
      5 C           5.3964   -3.7313   23.4415 C.3     1  UNL1        0.1141
      6 N           5.4707   -2.4546   24.2253 N.pl3   1  UNL1       -0.2846
      7 C           4.8844   -1.1938   23.6625 C.3     1  UNL1        0.1141
      8 C           4.2238   -1.2099   22.3159 C.3     1  UNL1        0.1149
      9 C           6.1314   -2.4385   25.5719 C.ar    1  UNL1        0.1648
     10 N           6.1181   -1.2988   26.5470 N.ar    1  UNL1       -0.2052
     11 C           6.8998   -1.7153   27.7576 C.ar    1  UNL1        0.1702
     12 N           7.2237   -1.0029   29.0372 N.ar    1  UNL1       -0.2246
     13 C           8.0441   -1.6876   30.0898 C.ar    1  UNL1        0.1006
     14 C           8.5406   -3.0847   29.8629 C.ar    1  UNL1        0.0213
     15 C           8.2167   -3.7972   28.5833 C.ar    1  UNL1        0.0112
     16 C           7.3963   -3.1125   27.5306 C.ar    1  UNL1        0.0679
     17 S           6.9214   -3.5594   26.1798 S.2     1  UNL1       -0.0499
     18 C           3.7407   -0.3441   18.7618 C.3     1  UNL1        0.0851
     19 C           3.1543    0.9167   18.1990 C.3     1  UNL1        0.0096
     20 C           1.7297    1.2796   18.4972 C.3     1  UNL1        0.0005
     21 C           0.8915    0.3817   19.3582 C.3     1  UNL1        0.0005
     22 C           1.4778   -0.8790   19.9210 C.3     1  UNL1        0.0096
     23 C           2.9025   -1.2419   19.6228 C.3     1  UNL1        0.0853
     24 N           6.2453   -0.3787   19.4513 N.am    1  UNL1       -0.2959
     25 C           5.1652   -0.7069   18.4636 C.2     1  UNL1        0.2231
     26 O           5.5096   -1.3981   17.1777 O.2     1  UNL1       -0.2751
     27 H           6.0192    0.0750   20.2953 H       1  UNL1        0.1502
     28 C           7.6699   -0.7415   19.1531 C.3     1  UNL1        0.1364
     29 C           8.9462   -1.5288   19.1182 C.3     1  UNL1        0.0353
     30 C           7.7378   -2.0894   19.8077 C.3     1  UNL1        0.0353
     31 N           8.5235    1.7023   17.6368 N.1     1  UNL1       -0.1943
     32 C           8.0967    0.4804   18.3950 C.1     1  UNL1        0.0896
@<TRIPOS>BOND
     1    31    32    3
     2    32    28    1
     3    28    24    1
     4    24    25   am
     5    25    26    2
     6    18    25    1
     7    18    19    1
     8    19    20    1
     9    20    21    1
    10    21    22    1
    11    22    23    1
    12    23     1    1
    13     1     2    2
    14     1     3   am
    15     3     4    1
    16     4     5    1
    17     5     6    1
    18     6     9    1
    19     9    10   ar
    20    10    11   ar
    21    11    12   ar
    22    12    13   ar
    23    13    14   ar
    24    14    15   ar
    25    15    16   ar
    26    16    17   ar
    27     6     7    1
    28     7     8    1
    29    28    29    1
    30    29    30    1
    31    30    28    1
    32    23    18    1
    33     8     3    1
    34    17     9   ar
    35    16    11   ar
    36    24    27    1
@<TRIPOS>MOLECULE
*****
 32 36 0 0 0
SMALL
GASTEIGER

@<TRIPOS>ATOM
      1 C          -0.7406    4.7877   23.1361 C.2     1  UNL1        0.2257
      2 O          -0.4976    6.2281   22.7956 O.2     1  UNL1       -0.2749
      3 N           0.0839    3.7146   22.4890 N.am    1  UNL1       -0.2760
      4 C           1.1514    4.0820   21.5014 C.3     1  UNL1        0.1149
      5 C           1.9759    3.0089   20.8544 C.3     1  UNL1        0.1141
      6 N           1.7329    1.5685   21.1948 N.pl3   1  UNL1       -0.2846
      7 C           0.6653    1.2011   22.1824 C.3     1  UNL1        0.1141
      8 C          -0.1592    2.2741   22.8295 C.3     1  UNL1        0.1149
      9 C           2.5574    0.4954   20.5478 C.ar    1  UNL1        0.1648
     10 N           3.8563    0.6967   19.8251 N.ar    1  UNL1       -0.2052
     11 C           4.3295   -0.6417   19.3405 C.ar    1  UNL1        0.1702
     12 N           5.5468   -1.0567   18.5686 N.ar    1  UNL1       -0.2246
     13 C           5.7575   -2.5002   18.2197 C.ar    1  UNL1        0.1006
     14 C           4.7509   -3.5287   18.6428 C.ar    1  UNL1        0.0213
     15 C           3.5336   -3.1137   19.4147 C.ar    1  UNL1        0.0112
     16 C           3.3229   -1.6702   19.7635 C.ar    1  UNL1        0.0679
     17 S           2.2277   -0.9674   20.5097 S.2     1  UNL1       -0.0499
     18 C          -3.2291    4.2648   23.6689 C.3     1  UNL1        0.0851
     19 C          -4.2967    3.8974   24.6566 C.3     1  UNL1        0.0096
     20 C          -3.9433    3.6855   26.0988 C.3     1  UNL1        0.0005
     21 C          -2.5224    3.8410   26.5535 C.3     1  UNL1        0.0005
     22 C          -1.4548    4.2084   25.5660 C.3     1  UNL1        0.0096
     23 C          -1.8082    4.4203   24.1236 C.3     1  UNL1        0.0853
     24 N          -3.5885    3.3152   21.2775 N.am    1  UNL1       -0.2959
     25 C          -3.5825    4.4767   22.2267 C.2     1  UNL1        0.2231
     26 O          -3.9300    5.8500   21.7336 O.2     1  UNL1       -0.2751
     27 H          -3.3604    2.4139   21.6011 H       1  UNL1        0.1502
     28 C          -3.9419    3.5271   19.8352 C.3     1  UNL1        0.1364
     29 C          -4.7690    3.6482   18.5897 C.3     1  UNL1        0.0353
     30 C          -5.4285    3.3390   19.9009 C.3     1  UNL1        0.0353
     31 N          -1.2139    4.0506   18.7019 N.1     1  UNL1       -0.1943
     32 C          -2.5778    3.7889   19.2686 C.1     1  UNL1        0.0896
@<TRIPOS>BOND
     1    31    32    3
     2    32    28    1
     3    28    24    1
     4    24    25   am
     5    25    26    2
     6    18    25    1
     7    18    19    1
     8    19    20    1
     9    20    21    1
    10    21    22    1
    11    22    23    1
    12    23     1    1
    13     1     2    2
    14     1     3   am
    15     3     4    1
    16     4     5    1
    17     5     6    1
    18     6     9    1
    19     9    10   ar
    20    10    11   ar
    21    11    12   ar
    22    12    13   ar
    23    13    14   ar
    24    14    15   ar
    25    15    16   ar
    26    16    17   ar
    27     6     7    1
    28     7     8    1
    29    28    29    1
    30    29    30    1
    31    30    28    1
    32    23    18    1
    33     8     3    1
    34    17     9   ar
    35    16    11   ar
    36    24    27    1
@<TRIPOS>MOLECULE
*****
 32 36 0 0 0
SMALL
GASTEIGER

@<TRIPOS>ATOM
      1 C           7.9077   -2.2436   28.4637 C.2     1  UNL1        0.2257
      2 O           9.3330   -1.7863   28.3678 O.2     1  UNL1       -0.2749
      3 N           6.9368   -1.9067   27.3711 N.am    1  UNL1       -0.2760
      4 C           7.3913   -1.1126   26.1825 C.3     1  UNL1        0.1149
      5 C           6.4204   -0.7757   25.0898 C.3     1  UNL1        0.1141
      6 N           4.9951   -1.2330   25.1857 N.pl3   1  UNL1       -0.2846
      7 C           4.5406   -2.0271   26.3743 C.3     1  UNL1        0.1141
      8 C           5.5115   -2.3640   27.4670 C.3     1  UNL1        0.1149
      9 C           4.0242   -0.8961   24.0931 C.ar    1  UNL1        0.1648
     10 N           2.9502    0.1489   24.1592 N.ar    1  UNL1       -0.2052
     11 C           2.2191    0.1458   22.8494 C.ar    1  UNL1        0.1702
     12 N           1.0672    0.9610   22.3410 N.ar    1  UNL1       -0.2246
     13 C           0.5375    0.7293   20.9569 C.ar    1  UNL1        0.1006
     14 C           1.1597   -0.3176   20.0813 C.ar    1  UNL1        0.0213
     15 C           2.3116   -1.1329   20.5897 C.ar    1  UNL1        0.0112
     16 C           2.8413   -0.9011   21.9738 C.ar    1  UNL1        0.0679
     17 S           3.9569   -1.5450   22.7424 S.2     1  UNL1       -0.0499
     18 C           7.4633   -4.5369   29.6010 C.3     1  UNL1        0.0851
     19 C           7.0088   -5.3310   30.7897 C.3     1  UNL1        0.0096
     20 C           6.5443   -4.6261   32.0295 C.3     1  UNL1        0.0005
     21 C           6.5341   -3.1270   32.0807 C.3     1  UNL1        0.0005
     22 C           6.9886   -2.3328   30.8922 C.3     1  UNL1        0.0096
     23 C           7.4532   -3.0378   29.6523 C.3     1  UNL1        0.0853
     24 N           6.9276   -5.8652   27.4334 N.am    1  UNL1       -0.2959
     25 C           7.9279   -5.2418   28.3612 C.2     1  UNL1        0.2231
     26 O           9.3928   -5.3233   28.0492 O.2     1  UNL1       -0.2751
     27 H           5.9661   -5.8117   27.6383 H       1  UNL1        0.1502
     28 C           7.3922   -6.5701   26.1936 C.3     1  UNL1        0.1364
     29 C           7.8941   -7.6640   25.2983 C.3     1  UNL1        0.0353
     30 C           7.6610   -7.9348   26.7551 C.3     1  UNL1        0.0353
     31 N           7.1772   -4.3303   24.2094 N.1     1  UNL1       -0.1943
     32 C           7.2847   -5.4502   25.2015 C.1     1  UNL1        0.0896
@<TRIPOS>BOND
     1    31    32    3
     2    32    28    1
     3    28    24    1
     4    24    25   am
     5    25    26    2
     6    18    25    1
     7    18    19    1
     8    19    20    1
     9    20    21    1
    10    21    22    1
    11    22    23    1
    12    23     1    1
    13     1     2    2
    14     1     3   am
    15     3     4    1
    16     4     5    1
    17     5     6    1
    18     6     9    1
    19     9    10   ar
    20    10    11   ar
    21    11    12   ar
    22    12    13   ar
    23    13    14   ar
    24    14    15   ar
    25    15    16   ar
    26    16    17   ar
    27     6     7    1
    28     7     8    1
    29    28    29    1
    30    29    30    1
    31    30    28    1
    32    23    18    1
    33     8     3    1
    34    17     9   ar
    35    16    11   ar
    36    24    27    1
