@<TRIPOS>MOLECULE
*****
 29 32 0 0 0
SMALL
GASTEIGER

@<TRIPOS>ATOM
      1 C         -12.1234  -18.0334   22.7678 C.3     1  UNL1        0.0646
      2 C         -11.3358  -19.3033   22.6373 C.3     1  UNL1        0.2068
      3 O         -10.7534  -19.6917   21.3107 O.3     1  UNL1       -0.4754
      4 C          -6.3250  -19.3215   20.6021 C.ar    1  UNL1        0.0360
      5 C          -6.8633  -19.3190   22.0022 C.ar    1  UNL1        0.0062
      6 C          -8.3395  -19.4424   22.2384 C.ar    1  UNL1        0.0370
      7 C          -9.2773  -19.5683   21.0745 C.ar    1  UNL1        0.1386
      8 C          -8.7390  -19.5708   19.6745 C.ar    1  UNL1        0.0370
      9 C          -7.2629  -19.4474   19.4383 C.ar    1  UNL1        0.0062
     10 C          -1.8966  -18.9512   19.8936 C.ar    1  UNL1        0.0414
     11 C          -2.8507  -18.0531   19.1634 C.ar    1  UNL1        0.1022
     12 N          -4.3268  -18.1766   19.3996 N.ar    1  UNL1       -0.2250
     13 C          -4.8489  -19.1981   20.3660 C.ar    1  UNL1        0.1623
     14 N          -3.8949  -20.0962   21.0961 N.ar    1  UNL1       -0.2250
     15 C          -2.4187  -19.9727   20.8599 C.ar    1  UNL1        0.1022
     16 C         -11.4810  -16.7162   22.4475 C.3     1  UNL1        0.0759
     17 N         -10.1055  -16.4082   22.9603 N.3     1  UNL1       -0.2726
     18 C          -9.7773  -16.6300   24.4070 C.3     1  UNL1        0.0721
     19 C          -8.4018  -16.3219   24.9199 C.3     1  UNL1        0.0178
     20 C          -7.3544  -15.7921   23.9860 C.3     1  UNL1        0.0087
     21 C          -7.6825  -15.5703   22.5391 C.3     1  UNL1        0.0178
     22 C          -9.0581  -15.8783   22.0263 C.3     1  UNL1        0.0721
     23 C          -5.9788  -15.4841   24.4988 C.3     1  UNL1        0.0453
     24 C          -4.7761  -16.0609   23.8128 C.ar    1  UNL1        0.0541
     25 C          -4.2297  -17.4444   24.0063 C.ar    1  UNL1        0.1131
     26 N          -3.0244  -17.5941   23.1260 N.ar    1  UNL1       -0.2229
     27 C          -2.8260  -16.3031   22.3885 C.ar    1  UNL1        0.1748
     28 N          -3.9085  -15.3556   22.8129 N.ar    1  UNL1       -0.3382
     29 H          -4.0286  -14.4328   22.4917 H       1  UNL1        0.1672
@<TRIPOS>BOND
     1    10    11   ar
     2    11    12   ar
     3    12    13   ar
     4    13     4    1
     5     4     5   ar
     6     5     6   ar
     7     6     7   ar
     8     7     3    1
     9     3     2    1
    10     2     1    1
    11     1    16    1
    12    16    17    1
    13    17    18    1
    14    18    19    1
    15    19    20    1
    16    20    23    1
    17    23    24    1
    18    24    25   ar
    19    25    26   ar
    20    26    27   ar
    21    27    28   ar
    22    20    21    1
    23    21    22    1
    24     7     8   ar
    25     8     9   ar
    26    13    14   ar
    27    14    15   ar
    28    15    10   ar
    29     9     4   ar
    30    22    17    1
    31    28    24   ar
    32    28    29    1
@<TRIPOS>MOLECULE
*****
 29 32 0 0 0
SMALL
GASTEIGER

@<TRIPOS>ATOM
      1 C         -12.6818  -18.3631   21.2485 C.3     1  UNL1        0.0646
      2 C         -11.6566  -19.4451   21.4170 C.3     1  UNL1        0.2068
      3 O         -10.6479  -19.6974   20.3359 O.3     1  UNL1       -0.4754
      4 C          -6.2603  -19.1699   21.1848 C.ar    1  UNL1        0.0360
      5 C          -6.7453  -19.2535   19.7679 C.ar    1  UNL1        0.0062
      6 C          -8.2078  -19.4294   19.4849 C.ar    1  UNL1        0.0370
      7 C          -9.1854  -19.5216   20.6189 C.ar    1  UNL1        0.1386
      8 C          -8.7003  -19.4380   22.0358 C.ar    1  UNL1        0.0370
      9 C          -7.2378  -19.2622   22.3188 C.ar    1  UNL1        0.0062
     10 C          -1.8727  -18.6425   22.0337 C.ar    1  UNL1        0.0414
     11 C          -2.3310  -19.7199   21.0962 C.ar    1  UNL1        0.1022
     12 N          -3.7935  -19.8958   20.8132 N.ar    1  UNL1       -0.2250
     13 C          -4.7977  -18.9941   21.4678 C.ar    1  UNL1        0.1623
     14 N          -4.3394  -17.9167   22.4053 N.ar    1  UNL1       -0.2250
     15 C          -2.8769  -17.7408   22.6882 C.ar    1  UNL1        0.1022
     16 C         -12.4804  -17.0300   21.9062 C.3     1  UNL1        0.0759
     17 N         -11.0980  -16.5730   22.2670 N.3     1  UNL1       -0.2726
     18 C         -10.6115  -16.6986   23.6803 C.3     1  UNL1        0.0721
     19 C          -9.2291  -16.2416   24.0411 C.3     1  UNL1        0.0178
     20 C          -8.3332  -15.6589   22.9885 C.3     1  UNL1        0.0087
     21 C          -8.8198  -15.5332   21.5751 C.3     1  UNL1        0.0178
     22 C         -10.2021  -15.9903   21.2144 C.3     1  UNL1        0.0721
     23 C          -6.9509  -15.2018   23.3493 C.3     1  UNL1        0.0453
     24 C          -6.4540  -15.3538   24.7564 C.ar    1  UNL1        0.0541
     25 C          -5.1917  -16.0472   25.1757 C.ar    1  UNL1        0.1131
     26 N          -5.0898  -15.9610   26.6697 N.ar    1  UNL1       -0.2229
     27 C          -6.2891  -15.2142   27.1738 C.ar    1  UNL1        0.1748
     28 N          -7.1322  -14.8390   25.9913 N.ar    1  UNL1       -0.3382
     29 H          -7.9816  -14.3420   26.0205 H       1  UNL1        0.1672
@<TRIPOS>BOND
     1    10    11   ar
     2    11    12   ar
     3    12    13   ar
     4    13     4    1
     5     4     5   ar
     6     5     6   ar
     7     6     7   ar
     8     7     3    1
     9     3     2    1
    10     2     1    1
    11     1    16    1
    12    16    17    1
    13    17    18    1
    14    18    19    1
    15    19    20    1
    16    20    23    1
    17    23    24    1
    18    24    25   ar
    19    25    26   ar
    20    26    27   ar
    21    27    28   ar
    22    20    21    1
    23    21    22    1
    24     7     8   ar
    25     8     9   ar
    26    13    14   ar
    27    14    15   ar
    28    15    10   ar
    29     9     4   ar
    30    22    17    1
    31    28    24   ar
    32    28    29    1
@<TRIPOS>MOLECULE
*****
 29 32 0 0 0
SMALL
GASTEIGER

@<TRIPOS>ATOM
      1 C          -0.3607    3.9222   19.4644 C.3     1  UNL1        0.0646
      2 C          -0.6466    3.1539   20.7206 C.3     1  UNL1        0.2068
      3 O          -0.7143    1.6559   20.6846 O.3     1  UNL1       -0.4754
      4 C           2.7574   -0.7899   22.1729 C.ar    1  UNL1        0.0360
      5 C           2.1206   -1.1161   20.8546 C.ar    1  UNL1        0.0062
      6 C           0.9633   -0.3009   20.3585 C.ar    1  UNL1        0.0370
      7 C           0.4429    0.8406   21.1807 C.ar    1  UNL1        0.1386
      8 C           1.0797    1.1669   22.4990 C.ar    1  UNL1        0.0370
      9 C           2.2370    0.3516   22.9951 C.ar    1  UNL1        0.0062
     10 C           6.2291   -3.2357   23.6612 C.ar    1  UNL1        0.0414
     11 C           5.4324   -3.7053   22.4802 C.ar    1  UNL1        0.1022
     12 N           4.2752   -2.8901   21.9841 N.ar    1  UNL1       -0.2250
     13 C           3.9146   -1.6052   22.6690 C.ar    1  UNL1        0.1623
     14 N           4.7113   -1.1356   23.8499 N.ar    1  UNL1       -0.2250
     15 C           5.8686   -1.9509   24.3461 C.ar    1  UNL1        0.1022
     16 C           1.0373    4.3760   19.1646 C.3     1  UNL1        0.0759
     17 N           2.1930    3.4483   19.3967 N.3     1  UNL1       -0.2726
     18 C           3.0479    3.6064   20.6189 C.3     1  UNL1        0.0721
     19 C           4.2036    2.6787   20.8510 C.3     1  UNL1        0.0178
     20 C           4.5043    1.5930   19.8608 C.3     1  UNL1        0.0087
     21 C           3.6493    1.4348   18.6384 C.3     1  UNL1        0.0178
     22 C           2.4937    2.3625   18.4063 C.3     1  UNL1        0.0721
     23 C           5.6599    0.6653   20.0928 C.3     1  UNL1        0.0453
     24 C           5.8802   -0.5021   19.1771 C.ar    1  UNL1        0.0541
     25 C           6.7756   -0.5221   17.9737 C.ar    1  UNL1        0.1131
     26 N           6.6926   -1.8867   17.3568 N.ar    1  UNL1       -0.2229
     27 C           5.7459   -2.7102   18.1788 C.ar    1  UNL1        0.1748
     28 N           5.2438   -1.8545   19.3038 N.ar    1  UNL1       -0.3382
     29 H           4.6082   -2.1317   20.0026 H       1  UNL1        0.1672
@<TRIPOS>BOND
     1    10    11   ar
     2    11    12   ar
     3    12    13   ar
     4    13     4    1
     5     4     5   ar
     6     5     6   ar
     7     6     7   ar
     8     7     3    1
     9     3     2    1
    10     2     1    1
    11     1    16    1
    12    16    17    1
    13    17    18    1
    14    18    19    1
    15    19    20    1
    16    20    23    1
    17    23    24    1
    18    24    25   ar
    19    25    26   ar
    20    26    27   ar
    21    27    28   ar
    22    20    21    1
    23    21    22    1
    24     7     8   ar
    25     8     9   ar
    26    13    14   ar
    27    14    15   ar
    28    15    10   ar
    29     9     4   ar
    30    22    17    1
    31    28    24   ar
    32    28    29    1
@<TRIPOS>MOLECULE
*****
 29 32 0 0 0
SMALL
GASTEIGER

@<TRIPOS>ATOM
      1 C           3.2041    0.0984   17.9366 C.3     1  UNL1        0.0646
      2 C           4.0624   -0.5663   16.9014 C.3     1  UNL1        0.2068
      3 O           4.4816   -1.9954   17.0799 O.3     1  UNL1       -0.4754
      4 C           6.6333   -3.2583   20.8249 C.ar    1  UNL1        0.0360
      5 C           7.3082   -2.3467   19.8434 C.ar    1  UNL1        0.0062
      6 C           6.5910   -1.9257   18.5950 C.ar    1  UNL1        0.0370
      7 C           5.1988   -2.4164   18.3282 C.ar    1  UNL1        0.1386
      8 C           4.5239   -3.3279   19.3098 C.ar    1  UNL1        0.0370
      9 C           5.2411   -3.7489   20.5581 C.ar    1  UNL1        0.0062
     10 C           8.7849   -4.5211   24.5700 C.ar    1  UNL1        0.0414
     11 C           7.7773   -5.4359   23.9393 C.ar    1  UNL1        0.1022
     12 N           7.0601   -5.0149   22.6909 N.ar    1  UNL1       -0.2250
     13 C           7.3505   -3.6792   22.0733 C.ar    1  UNL1        0.1623
     14 N           8.3581   -2.7645   22.7040 N.ar    1  UNL1       -0.2250
     15 C           9.0753   -3.1854   23.9524 C.ar    1  UNL1        0.1022
     16 C           3.8401    0.8527   19.0664 C.3     1  UNL1        0.0759
     17 N           4.0086    0.1970   20.4050 N.3     1  UNL1       -0.2726
     18 C           2.9072   -0.6507   20.9689 C.3     1  UNL1        0.0721
     19 C           3.0757   -1.3064   22.3074 C.3     1  UNL1        0.0178
     20 C           4.3457   -1.1143   23.0821 C.3     1  UNL1        0.0087
     21 C           5.4473   -0.2665   22.5182 C.3     1  UNL1        0.0178
     22 C           5.2788    0.3892   21.1796 C.3     1  UNL1        0.0721
     23 C           4.5143   -1.7699   24.4206 C.3     1  UNL1        0.0453
     24 C           3.8831   -1.1623   25.6382 C.ar    1  UNL1        0.0541
     25 C           3.4166    0.2568   25.7744 C.ar    1  UNL1        0.1131
     26 N           2.8528    0.4290   27.1537 N.ar    1  UNL1       -0.2229
     27 C           2.9710   -0.8837   27.8699 C.ar    1  UNL1        0.1748
     28 N           3.6077   -1.8672   26.9333 N.ar    1  UNL1       -0.3382
     29 H           3.8095   -2.8098   27.1334 H       1  UNL1        0.1672
@<TRIPOS>BOND
     1    10    11   ar
     2    11    12   ar
     3    12    13   ar
     4    13     4    1
     5     4     5   ar
     6     5     6   ar
     7     6     7   ar
     8     7     3    1
     9     3     2    1
    10     2     1    1
    11     1    16    1
    12    16    17    1
    13    17    18    1
    14    18    19    1
    15    19    20    1
    16    20    23    1
    17    23    24    1
    18    24    25   ar
    19    25    26   ar
    20    26    27   ar
    21    27    28   ar
    22    20    21    1
    23    21    22    1
    24     7     8   ar
    25     8     9   ar
    26    13    14   ar
    27    14    15   ar
    28    15    10   ar
    29     9     4   ar
    30    22    17    1
    31    28    24   ar
    32    28    29    1
@<TRIPOS>MOLECULE
*****
 29 32 0 0 0
SMALL
GASTEIGER

@<TRIPOS>ATOM
      1 C          -1.3165    3.4224   22.7188 C.3     1  UNL1        0.0646
      2 C          -0.9265    3.3002   21.2756 C.3     1  UNL1        0.2068
      3 O          -1.0209    1.9731   20.5829 O.3     1  UNL1       -0.4754
      4 C           2.7203   -0.1313   19.2322 C.ar    1  UNL1        0.0360
      5 C           1.6963   -0.8686   20.0431 C.ar    1  UNL1        0.0062
      6 C           0.4492   -0.1672   20.4933 C.ar    1  UNL1        0.0370
      7 C           0.2262    1.2716   20.1327 C.ar    1  UNL1        0.1386
      8 C           1.2502    2.0089   19.3218 C.ar    1  UNL1        0.0370
      9 C           2.4973    1.3075   18.8715 C.ar    1  UNL1        0.0062
     10 C           6.4616   -2.2357   17.8815 C.ar    1  UNL1        0.0414
     11 C           5.3243   -3.0247   18.4594 C.ar    1  UNL1        0.1022
     12 N           4.0773   -2.3233   18.9096 N.ar    1  UNL1       -0.2250
     13 C           3.9674   -0.8328   18.7820 C.ar    1  UNL1        0.1623
     14 N           5.1047   -0.0438   18.2040 N.ar    1  UNL1       -0.2250
     15 C           6.3518   -0.7452   17.7538 C.ar    1  UNL1        0.1022
     16 C          -0.3063    3.1518   23.7942 C.3     1  UNL1        0.0759
     17 N           0.9624    2.4224   23.4650 N.3     1  UNL1       -0.2726
     18 C           1.1291    0.9876   23.8695 C.3     1  UNL1        0.0721
     19 C           2.3978    0.2582   23.5404 C.3     1  UNL1        0.0178
     20 C           3.4997    0.9635   22.8067 C.3     1  UNL1        0.0087
     21 C           3.3330    2.3983   22.4022 C.3     1  UNL1        0.0178
     22 C           2.0643    3.1278   22.7314 C.3     1  UNL1        0.0721
     23 C           4.7684    0.2340   22.4776 C.3     1  UNL1        0.0453
     24 C           4.8922   -1.2298   22.7807 C.ar    1  UNL1        0.0541
     25 C           5.5758   -1.8284   23.9741 C.ar    1  UNL1        0.1131
     26 N           5.4602   -3.3206   23.8746 N.ar    1  UNL1       -0.2229
     27 C           4.7050   -3.6442   22.6195 C.ar    1  UNL1        0.1748
     28 N           4.3539   -2.3520   21.9435 N.ar    1  UNL1       -0.3382
     29 H           3.8575   -2.2572   21.0987 H       1  UNL1        0.1672
@<TRIPOS>BOND
     1    10    11   ar
     2    11    12   ar
     3    12    13   ar
     4    13     4    1
     5     4     5   ar
     6     5     6   ar
     7     6     7   ar
     8     7     3    1
     9     3     2    1
    10     2     1    1
    11     1    16    1
    12    16    17    1
    13    17    18    1
    14    18    19    1
    15    19    20    1
    16    20    23    1
    17    23    24    1
    18    24    25   ar
    19    25    26   ar
    20    26    27   ar
    21    27    28   ar
    22    20    21    1
    23    21    22    1
    24     7     8   ar
    25     8     9   ar
    26    13    14   ar
    27    14    15   ar
    28    15    10   ar
    29     9     4   ar
    30    22    17    1
    31    28    24   ar
    32    28    29    1
@<TRIPOS>MOLECULE
*****
 29 32 0 0 0
SMALL
GASTEIGER

@<TRIPOS>ATOM
      1 C           0.7311    4.2791   20.8710 C.3     1  UNL1        0.0646
      2 C          -0.4486    3.4829   20.3974 C.3     1  UNL1        0.2068
      3 O          -0.2885    2.5002   19.2755 O.3     1  UNL1       -0.4754
      4 C           2.7629   -0.7925   19.5868 C.ar    1  UNL1        0.0360
      5 C           1.4889   -0.8738   20.3742 C.ar    1  UNL1        0.0062
      6 C           0.4717    0.2238   20.2704 C.ar    1  UNL1        0.0370
      7 C           0.7286    1.4026   19.3793 C.ar    1  UNL1        0.1386
      8 C           2.0027    1.4839   18.5919 C.ar    1  UNL1        0.0370
      9 C           3.0199    0.3864   18.6956 C.ar    1  UNL1        0.0062
     10 C           5.8144   -4.0851   19.8981 C.ar    1  UNL1        0.0414
     11 C           6.0096   -2.8073   20.6590 C.ar    1  UNL1        0.1022
     12 N           4.9924   -1.7098   20.5553 N.ar    1  UNL1       -0.2250
     13 C           3.7801   -1.8900   19.6906 C.ar    1  UNL1        0.1623
     14 N           3.5849   -3.1678   18.9296 N.ar    1  UNL1       -0.2250
     15 C           4.6021   -4.2654   19.0334 C.ar    1  UNL1        0.1022
     16 C           1.2526    4.0903   22.2648 C.3     1  UNL1        0.0759
     17 N           1.8463    2.7742   22.6715 N.3     1  UNL1       -0.2726
     18 C           1.0885    1.8609   23.5888 C.3     1  UNL1        0.0721
     19 C           1.6822    0.5448   23.9955 C.3     1  UNL1        0.0178
     20 C           3.0339    0.1421   23.4849 C.3     1  UNL1        0.0087
     21 C           3.7918    1.0554   22.5675 C.3     1  UNL1        0.0178
     22 C           3.1981    2.3714   22.1608 C.3     1  UNL1        0.0721
     23 C           3.6276   -1.1740   23.8916 C.3     1  UNL1        0.0453
     24 C           4.2757   -1.3209   25.2363 C.ar    1  UNL1        0.0541
     25 C           5.7265   -1.0977   25.5451 C.ar    1  UNL1        0.1131
     26 N           5.9342   -1.3556   27.0080 N.ar    1  UNL1       -0.2229
     27 C           4.6116   -1.7383   27.6035 C.ar    1  UNL1        0.1748
     28 N           3.5866   -1.7168   26.5085 N.ar    1  UNL1       -0.3382
     29 H           2.6297   -1.9258   26.6075 H       1  UNL1        0.1672
@<TRIPOS>BOND
     1    10    11   ar
     2    11    12   ar
     3    12    13   ar
     4    13     4    1
     5     4     5   ar
     6     5     6   ar
     7     6     7   ar
     8     7     3    1
     9     3     2    1
    10     2     1    1
    11     1    16    1
    12    16    17    1
    13    17    18    1
    14    18    19    1
    15    19    20    1
    16    20    23    1
    17    23    24    1
    18    24    25   ar
    19    25    26   ar
    20    26    27   ar
    21    27    28   ar
    22    20    21    1
    23    21    22    1
    24     7     8   ar
    25     8     9   ar
    26    13    14   ar
    27    14    15   ar
    28    15    10   ar
    29     9     4   ar
    30    22    17    1
    31    28    24   ar
    32    28    29    1
@<TRIPOS>MOLECULE
*****
 29 32 0 0 0
SMALL
GASTEIGER

@<TRIPOS>ATOM
      1 C           4.1333   -0.4795   17.0794 C.3     1  UNL1        0.0646
      2 C           5.5939   -0.1953   17.2692 C.3     1  UNL1        0.2068
      3 O           6.5939   -1.3086   17.1677 O.3     1  UNL1       -0.4754
      4 C           7.4734   -3.8774   20.7563 C.ar    1  UNL1        0.0360
      5 C           8.5361   -2.9768   20.2000 C.ar    1  UNL1        0.0062
      6 C           8.2430   -2.1205   19.0038 C.ar    1  UNL1        0.0370
      7 C           6.8871   -2.1649   18.3639 C.ar    1  UNL1        0.1386
      8 C           5.8243   -3.0655   18.9201 C.ar    1  UNL1        0.0370
      9 C           6.1175   -3.9217   20.1163 C.ar    1  UNL1        0.0062
     10 C           8.3528   -6.4462   24.3449 C.ar    1  UNL1        0.0414
     11 C           8.8608   -6.8483   22.9920 C.ar    1  UNL1        0.1022
     12 N           8.5677   -5.9920   21.7958 N.ar    1  UNL1       -0.2250
     13 C           7.7665   -4.7336   21.9525 C.ar    1  UNL1        0.1623
     14 N           7.2585   -4.3316   23.3053 N.ar    1  UNL1       -0.2250
     15 C           7.5516   -5.1878   24.5015 C.ar    1  UNL1        0.1022
     16 C           3.1144    0.2444   17.9089 C.3     1  UNL1        0.0759
     17 N           3.0798    0.0465   19.3954 N.3     1  UNL1       -0.2726
     18 C           3.1488    1.2321   20.3116 C.3     1  UNL1        0.0721
     19 C           3.1141    1.0343   21.7981 C.3     1  UNL1        0.0178
     20 C           3.0105   -0.3492   22.3683 C.3     1  UNL1        0.0087
     21 C           2.9415   -1.5349   21.4521 C.3     1  UNL1        0.0178
     22 C           2.9761   -1.3370   19.9656 C.3     1  UNL1        0.0721
     23 C           2.9758   -0.5471   23.8548 C.3     1  UNL1        0.0453
     24 C           4.2001   -1.0271   24.5763 C.ar    1  UNL1        0.0541
     25 C           5.6208   -0.7433   24.1875 C.ar    1  UNL1        0.1131
     26 N           6.5174   -1.4160   25.1841 N.ar    1  UNL1       -0.2229
     27 C           5.6509   -2.1158   26.1889 C.ar    1  UNL1        0.1748
     28 N           4.2188   -1.8754   25.8132 N.ar    1  UNL1       -0.3382
     29 H           3.4296   -2.2148   26.2941 H       1  UNL1        0.1672
@<TRIPOS>BOND
     1    10    11   ar
     2    11    12   ar
     3    12    13   ar
     4    13     4    1
     5     4     5   ar
     6     5     6   ar
     7     6     7   ar
     8     7     3    1
     9     3     2    1
    10     2     1    1
    11     1    16    1
    12    16    17    1
    13    17    18    1
    14    18    19    1
    15    19    20    1
    16    20    23    1
    17    23    24    1
    18    24    25   ar
    19    25    26   ar
    20    26    27   ar
    21    27    28   ar
    22    20    21    1
    23    21    22    1
    24     7     8   ar
    25     8     9   ar
    26    13    14   ar
    27    14    15   ar
    28    15    10   ar
    29     9     4   ar
    30    22    17    1
    31    28    24   ar
    32    28    29    1
@<TRIPOS>MOLECULE
*****
 29 32 0 0 0
SMALL
GASTEIGER

@<TRIPOS>ATOM
      1 C          -1.4123    3.8231   22.0673 C.3     1  UNL1        0.0646
      2 C          -1.0572    3.2967   20.7083 C.3     1  UNL1        0.2068
      3 O          -1.0643    1.8189   20.4511 O.3     1  UNL1       -0.4754
      4 C           2.7149   -0.2597   19.1677 C.ar    1  UNL1        0.0360
      5 C           1.8428   -0.8730   20.2228 C.ar    1  UNL1        0.0062
      6 C           0.5831   -0.1801   20.6506 C.ar    1  UNL1        0.0370
      7 C           0.1954    1.1261   20.0233 C.ar    1  UNL1        0.1386
      8 C           1.0675    1.7393   18.9681 C.ar    1  UNL1        0.0370
      9 C           2.3272    1.0465   18.5404 C.ar    1  UNL1        0.0062
     10 C           6.4941   -2.3383   17.8843 C.ar    1  UNL1        0.0414
     11 C           5.3398   -3.1384   18.4109 C.ar    1  UNL1        0.1022
     12 N           4.0800   -2.4455   18.8387 N.ar    1  UNL1       -0.2250
     13 C           3.9746   -0.9525   18.7399 C.ar    1  UNL1        0.1623
     14 N           5.1289   -0.1524   18.2134 N.ar    1  UNL1       -0.2250
     15 C           6.3887   -0.8453   17.7856 C.ar    1  UNL1        0.1022
     16 C          -0.3617    3.9148   23.1340 C.3     1  UNL1        0.0759
     17 N          -0.5231    3.1487   24.4135 N.3     1  UNL1       -0.2726
     18 C          -1.3958    3.6900   25.5068 C.3     1  UNL1        0.0721
     19 C          -1.5573    2.9239   26.7862 C.3     1  UNL1        0.0178
     20 C          -0.8461    1.6165   26.9724 C.3     1  UNL1        0.0087
     21 C           0.0266    1.0750   25.8791 C.3     1  UNL1        0.0178
     22 C           0.1881    1.8411   24.5996 C.3     1  UNL1        0.0721
     23 C          -1.0076    0.8504   28.2519 C.3     1  UNL1        0.0453
     24 C           0.0794    0.8783   29.2851 C.ar    1  UNL1        0.0541
     25 C           1.1497   -0.1568   29.4671 C.ar    1  UNL1        0.1131
     26 N           2.0188    0.2714   30.6122 N.ar    1  UNL1       -0.2229
     27 C           1.4856    1.5712   31.1379 C.ar    1  UNL1        0.1748
     28 N           0.2870    1.9462   30.3177 N.ar    1  UNL1       -0.3382
     29 H          -0.2663    2.7519   30.4363 H       1  UNL1        0.1672
@<TRIPOS>BOND
     1    10    11   ar
     2    11    12   ar
     3    12    13   ar
     4    13     4    1
     5     4     5   ar
     6     5     6   ar
     7     6     7   ar
     8     7     3    1
     9     3     2    1
    10     2     1    1
    11     1    16    1
    12    16    17    1
    13    17    18    1
    14    18    19    1
    15    19    20    1
    16    20    23    1
    17    23    24    1
    18    24    25   ar
    19    25    26   ar
    20    26    27   ar
    21    27    28   ar
    22    20    21    1
    23    21    22    1
    24     7     8   ar
    25     8     9   ar
    26    13    14   ar
    27    14    15   ar
    28    15    10   ar
    29     9     4   ar
    30    22    17    1
    31    28    24   ar
    32    28    29    1
@<TRIPOS>MOLECULE
*****
 29 32 0 0 0
SMALL
GASTEIGER

@<TRIPOS>ATOM
      1 C           7.2827   -2.6123   19.2688 C.3     1  UNL1        0.0646
      2 C           6.2436   -2.5806   18.1875 C.3     1  UNL1        0.2068
      3 O           4.8227   -2.9441   18.5018 O.3     1  UNL1       -0.4754
      4 C           1.7540    0.2910   19.1081 C.ar    1  UNL1        0.0360
      5 C           1.7649   -0.9103   20.0062 C.ar    1  UNL1        0.0062
      6 C           2.7878   -1.9886   19.8042 C.ar    1  UNL1        0.0370
      7 C           3.7998   -1.8657   18.7039 C.ar    1  UNL1        0.1386
      8 C           3.7889   -0.6645   17.8057 C.ar    1  UNL1        0.0370
      9 C           2.7661    0.4139   18.0078 C.ar    1  UNL1        0.0062
     10 C          -1.3146    3.5261   19.7143 C.ar    1  UNL1        0.0414
     11 C          -0.4918    3.4983   18.4604 C.ar    1  UNL1        0.1022
     12 N           0.5310    2.4199   18.2583 N.ar    1  UNL1       -0.2250
     13 C           0.7312    1.3694   19.3101 C.ar    1  UNL1        0.1623
     14 N          -0.0916    1.3972   20.5640 N.ar    1  UNL1       -0.2250
     15 C          -1.1145    2.4756   20.7661 C.ar    1  UNL1        0.1022
     16 C           7.3717   -1.4869   20.2566 C.3     1  UNL1        0.0759
     17 N           6.2319   -1.2202   21.1945 N.3     1  UNL1       -0.2726
     18 C           5.6422    0.1559   21.2861 C.3     1  UNL1        0.0721
     19 C           4.5024    0.4226   22.2240 C.3     1  UNL1        0.0178
     20 C           3.9522   -0.6869   23.0703 C.3     1  UNL1        0.0087
     21 C           4.5419   -2.0631   22.9787 C.3     1  UNL1        0.0178
     22 C           5.6817   -2.3298   22.0408 C.3     1  UNL1        0.0721
     23 C           2.8124   -0.4202   24.0082 C.3     1  UNL1        0.0453
     24 C           3.0864   -0.0606   25.4384 C.ar    1  UNL1        0.0541
     25 C           3.1604    1.3285   25.9997 C.ar    1  UNL1        0.1131
     26 N           3.4542    1.2207   27.4666 N.ar    1  UNL1       -0.2229
     27 C           3.5619   -0.2350   27.8120 C.ar    1  UNL1        0.1748
     28 N           3.3346   -1.0269   26.5585 N.ar    1  UNL1       -0.3382
     29 H           3.3462   -2.0085   26.4840 H       1  UNL1        0.1672
@<TRIPOS>BOND
     1    10    11   ar
     2    11    12   ar
     3    12    13   ar
     4    13     4    1
     5     4     5   ar
     6     5     6   ar
     7     6     7   ar
     8     7     3    1
     9     3     2    1
    10     2     1    1
    11     1    16    1
    12    16    17    1
    13    17    18    1
    14    18    19    1
    15    19    20    1
    16    20    23    1
    17    23    24    1
    18    24    25   ar
    19    25    26   ar
    20    26    27   ar
    21    27    28   ar
    22    20    21    1
    23    21    22    1
    24     7     8   ar
    25     8     9   ar
    26    13    14   ar
    27    14    15   ar
    28    15    10   ar
    29     9     4   ar
    30    22    17    1
    31    28    24   ar
    32    28    29    1
