@<TRIPOS>MOLECULE
*****
 25 27 0 0 0
SMALL
GASTEIGER

@<TRIPOS>ATOM
      1 N          -6.7711  -15.8829   24.5079 N.am    1  UNL1       -0.2606
      2 C          -7.6795  -15.3146   25.5576 C.3     1  UNL1        0.1169
      3 C          -9.0954  -15.5319   25.1124 C.3     1  UNL1        0.1213
      4 N          -9.0620  -16.2345   23.7876 N.am    1  UNL1       -0.2391
      5 C          -7.6256  -16.4514   23.4139 C.2     1  UNL1        0.3111
      6 O          -7.1305  -17.1195   22.1656 O.2     1  UNL1       -0.2520
      7 C         -10.2556  -16.6476   22.9784 C.ar    1  UNL1        0.0836
      8 C         -11.2221  -17.6546   23.5278 C.ar    1  UNL1        0.0173
      9 C         -12.4156  -18.0677   22.7186 C.ar    1  UNL1        0.0023
     10 C         -12.6426  -17.4739   21.3600 C.ar    1  UNL1        0.0138
     11 C         -11.6760  -16.4669   20.8106 C.ar    1  UNL1        0.0863
     12 CL        -11.9031  -15.8731   19.4519 Cl      1  UNL1       -0.0799
     13 C         -10.4825  -16.0538   21.6198 C.ar    1  UNL1        0.1642
     14 F          -9.5160  -15.0468   21.0704 F       1  UNL1       -0.2020
     15 C          -5.2716  -15.8827   24.5455 C.3     1  UNL1        0.1123
     16 C          -4.5161  -17.1627   24.3439 C.3     1  UNL1        0.0940
     17 N          -1.9490  -17.7083   20.6885 N.3     1  UNL1       -0.2716
     18 C          -2.7564  -18.8570   21.2161 C.3     1  UNL1        0.0896
     19 C          -3.6122  -18.6751   22.4346 C.3     1  UNL1        0.0897
     20 N          -3.6604  -17.3446   23.1254 N.3     1  UNL1       -0.2688
     21 C          -2.8530  -16.1959   22.5977 C.3     1  UNL1        0.0897
     22 C          -1.9972  -16.3777   21.3793 C.3     1  UNL1        0.0896
     23 C          -1.7194  -17.8902   18.1070 C.3     1  UNL1        0.0173
     24 C          -1.0933  -17.8902   19.4700 C.3     1  UNL1        0.0577
     25 C           0.3886  -18.0719   19.6145 C.3     1  UNL1        0.0173
@<TRIPOS>BOND
     1    23    24    1
     2    24    25    1
     3    24    17    1
     4    17    18    1
     5    18    19    1
     6    19    20    1
     7    20    16    1
     8    16    15    1
     9    15     1    1
    10     1     2    1
    11     2     3    1
    12     3     4    1
    13     4     7    1
    14     7     8   ar
    15     8     9   ar
    16     9    10   ar
    17    10    11   ar
    18    11    12    1
    19    11    13   ar
    20    13    14    1
    21     4     5   am
    22     5     6    2
    23    20    21    1
    24    21    22    1
    25    22    17    1
    26     5     1   am
    27    13     7   ar
@<TRIPOS>MOLECULE
*****
 25 27 0 0 0
SMALL
GASTEIGER

@<TRIPOS>ATOM
      1 N          -9.7682  -19.6649   21.0910 N.am    1  UNL1       -0.2606
      2 C          -9.5617  -19.3567   19.6377 C.3     1  UNL1        0.1169
      3 C          -8.0850  -19.3163   19.3776 C.3     1  UNL1        0.1213
      4 N          -7.3788  -19.5996   20.6703 N.am    1  UNL1       -0.2391
      5 C          -8.4191  -19.8151   21.7293 C.2     1  UNL1        0.3111
      6 O          -8.1564  -20.1261   23.1729 O.2     1  UNL1       -0.2520
      7 C          -5.8932  -19.6574   20.8691 C.ar    1  UNL1        0.0836
      8 C          -5.0610  -20.5892   20.0389 C.ar    1  UNL1        0.0173
      9 C          -3.5753  -20.6469   20.2378 C.ar    1  UNL1        0.0023
     10 C          -2.9219  -19.7728   21.2668 C.ar    1  UNL1        0.0138
     11 C          -3.7541  -18.8410   22.0970 C.ar    1  UNL1        0.0863
     12 CL         -3.1006  -17.9668   23.1261 Cl      1  UNL1       -0.0799
     13 C          -5.2397  -18.7833   21.8981 C.ar    1  UNL1        0.1642
     14 F          -6.0719  -17.8514   22.7283 F       1  UNL1       -0.2020
     15 C         -11.0915  -19.7994   21.7845 C.3     1  UNL1        0.1123
     16 C         -11.6000  -18.6867   22.6523 C.3     1  UNL1        0.0940
     17 N          -8.7724  -16.4822   25.3716 N.3     1  UNL1       -0.2716
     18 C          -9.0974  -15.9256   24.0172 C.3     1  UNL1        0.0896
     19 C         -10.0400  -16.6604   23.1108 C.3     1  UNL1        0.0897
     20 N         -10.6575  -17.9519   23.5587 N.3     1  UNL1       -0.2688
     21 C         -10.3324  -18.5085   24.9131 C.3     1  UNL1        0.0897
     22 C          -9.3899  -17.7737   25.8196 C.3     1  UNL1        0.0896
     23 C          -8.3224  -15.1927   27.5817 C.3     1  UNL1        0.0173
     24 C          -7.8298  -15.7474   26.2781 C.3     1  UNL1        0.0577
     25 C          -6.3947  -15.5673   25.8808 C.3     1  UNL1        0.0173
@<TRIPOS>BOND
     1    23    24    1
     2    24    25    1
     3    24    17    1
     4    17    18    1
     5    18    19    1
     6    19    20    1
     7    20    16    1
     8    16    15    1
     9    15     1    1
    10     1     2    1
    11     2     3    1
    12     3     4    1
    13     4     7    1
    14     7     8   ar
    15     8     9   ar
    16     9    10   ar
    17    10    11   ar
    18    11    12    1
    19    11    13   ar
    20    13    14    1
    21     4     5   am
    22     5     6    2
    23    20    21    1
    24    21    22    1
    25    22    17    1
    26     5     1   am
    27    13     7   ar
@<TRIPOS>MOLECULE
*****
 25 27 0 0 0
SMALL
GASTEIGER

@<TRIPOS>ATOM
      1 N          -7.8712  -20.0084   19.7554 N.am    1  UNL1       -0.2606
      2 C          -7.1395  -21.3036   19.5627 C.3     1  UNL1        0.1169
      3 C          -5.7436  -21.1294   20.0836 C.3     1  UNL1        0.1213
      4 N          -5.6126  -19.7265   20.5981 N.am    1  UNL1       -0.2391
      5 C          -6.9275  -19.0336   20.3953 C.2     1  UNL1        0.3111
      6 O          -7.2432  -17.6153   20.7671 O.2     1  UNL1       -0.2520
      7 C          -4.3827  -19.1225   21.2084 C.ar    1  UNL1        0.0836
      8 C          -4.3938  -18.6876   22.6439 C.ar    1  UNL1        0.0173
      9 C          -3.1639  -18.0835   23.2542 C.ar    1  UNL1        0.0023
     10 C          -1.9228  -17.9144   22.4289 C.ar    1  UNL1        0.0138
     11 C          -1.9117  -18.3493   20.9933 C.ar    1  UNL1        0.0863
     12 CL         -0.6705  -18.1802   20.1680 Cl      1  UNL1       -0.0799
     13 C          -3.1416  -18.9534   20.3831 C.ar    1  UNL1        0.1642
     14 F          -3.1305  -19.3883   18.9475 F       1  UNL1       -0.2020
     15 C          -9.2963  -19.7358   19.3749 C.3     1  UNL1        0.1123
     16 C         -10.3396  -19.5757   20.4407 C.3     1  UNL1        0.0940
     17 N          -9.3485  -17.3952   24.2503 N.3     1  UNL1       -0.2716
     18 C          -9.2207  -18.8884   24.1857 C.3     1  UNL1        0.0896
     19 C          -9.5511  -19.6152   22.9159 C.3     1  UNL1        0.0897
     20 N         -10.0092  -18.8489   21.7105 N.3     1  UNL1       -0.2688
     21 C         -10.1370  -17.3558   21.7751 C.3     1  UNL1        0.0897
     22 C          -9.8066  -16.6289   23.0450 C.3     1  UNL1        0.0896
     23 C          -8.6803  -15.2075   25.4820 C.3     1  UNL1        0.0173
     24 C          -9.0181  -16.6684   25.5202 C.3     1  UNL1        0.0577
     25 C          -9.0256  -17.4025   26.8282 C.3     1  UNL1        0.0173
@<TRIPOS>BOND
     1    23    24    1
     2    24    25    1
     3    24    17    1
     4    17    18    1
     5    18    19    1
     6    19    20    1
     7    20    16    1
     8    16    15    1
     9    15     1    1
    10     1     2    1
    11     2     3    1
    12     3     4    1
    13     4     7    1
    14     7     8   ar
    15     8     9   ar
    16     9    10   ar
    17    10    11   ar
    18    11    12    1
    19    11    13   ar
    20    13    14    1
    21     4     5   am
    22     5     6    2
    23    20    21    1
    24    21    22    1
    25    22    17    1
    26     5     1   am
    27    13     7   ar
@<TRIPOS>MOLECULE
*****
 25 27 0 0 0
SMALL
GASTEIGER

@<TRIPOS>ATOM
      1 N          -8.0798  -20.4129   19.6762 N.am    1  UNL1       -0.2606
      2 C          -9.0502  -20.2779   18.5404 C.3     1  UNL1        0.1169
      3 C         -10.2014  -19.4395   19.0114 C.3     1  UNL1        0.1213
      4 N          -9.9424  -19.0563   20.4383 N.am    1  UNL1       -0.2391
      5 C          -8.6312  -19.6579   20.8493 C.2     1  UNL1        0.3111
      6 O          -7.9850  -19.5274   22.1965 O.2     1  UNL1       -0.2520
      7 C         -10.8375  -18.2186   21.3027 C.ar    1  UNL1        0.0836
      8 C         -11.1097  -16.7894   20.9374 C.ar    1  UNL1        0.0173
      9 C         -12.0048  -15.9517   21.8017 C.ar    1  UNL1        0.0023
     10 C         -12.6277  -16.5432   23.0313 C.ar    1  UNL1        0.0138
     11 C         -12.3556  -17.9724   23.3966 C.ar    1  UNL1        0.0863
     12 CL        -12.9786  -18.5639   24.6263 Cl      1  UNL1       -0.0799
     13 C         -11.4605  -18.8101   22.5323 C.ar    1  UNL1        0.1642
     14 F         -11.1884  -20.2393   22.8976 F       1  UNL1       -0.2020
     15 C          -6.7852  -21.1700   19.6446 C.3     1  UNL1        0.1123
     16 C          -5.8461  -21.0989   20.8120 C.3     1  UNL1        0.0940
     17 N          -2.5223  -18.0656   20.8445 N.3     1  UNL1       -0.2716
     18 C          -2.8131  -18.8462   19.5972 C.3     1  UNL1        0.0896
     19 C          -3.9210  -19.8573   19.5863 C.3     1  UNL1        0.0897
     20 N          -4.7382  -20.0878   20.8229 N.3     1  UNL1       -0.2688
     21 C          -4.4474  -19.3071   22.0702 C.3     1  UNL1        0.0897
     22 C          -3.3394  -18.2960   22.0811 C.3     1  UNL1        0.0896
     23 C          -1.5510  -15.8007   21.6673 C.3     1  UNL1        0.0173
     24 C          -1.4143  -17.0545   20.8553 C.3     1  UNL1        0.0577
     25 C          -0.1697  -17.2971   20.0542 C.3     1  UNL1        0.0173
@<TRIPOS>BOND
     1    23    24    1
     2    24    25    1
     3    24    17    1
     4    17    18    1
     5    18    19    1
     6    19    20    1
     7    20    16    1
     8    16    15    1
     9    15     1    1
    10     1     2    1
    11     2     3    1
    12     3     4    1
    13     4     7    1
    14     7     8   ar
    15     8     9   ar
    16     9    10   ar
    17    10    11   ar
    18    11    12    1
    19    11    13   ar
    20    13    14    1
    21     4     5   am
    22     5     6    2
    23    20    21    1
    24    21    22    1
    25    22    17    1
    26     5     1   am
    27    13     7   ar
@<TRIPOS>MOLECULE
*****
 25 27 0 0 0
SMALL
GASTEIGER

@<TRIPOS>ATOM
      1 N          -7.8521  -16.0773   24.8469 N.am    1  UNL1       -0.2606
      2 C          -8.8042  -16.9342   25.6275 C.3     1  UNL1        0.1169
      3 C          -9.6407  -17.7062   24.6506 C.3     1  UNL1        0.1213
      4 N          -9.2056  -17.3264   23.2662 N.am    1  UNL1       -0.2391
      5 C          -8.1002  -16.3197   23.3875 C.2     1  UNL1        0.3111
      6 O          -7.3709  -15.6696   22.2494 O.2     1  UNL1       -0.2520
      7 C          -9.7757  -17.8597   21.9854 C.ar    1  UNL1        0.0836
      8 C         -11.1810  -17.5157   21.5893 C.ar    1  UNL1        0.0173
      9 C         -11.7512  -18.0489   20.3085 C.ar    1  UNL1        0.0023
     10 C         -10.9160  -18.9262   19.4237 C.ar    1  UNL1        0.0138
     11 C          -9.5107  -19.2702   19.8197 C.ar    1  UNL1        0.0863
     12 CL         -8.6755  -20.1475   18.9348 Cl      1  UNL1       -0.0799
     13 C          -8.9406  -18.7369   21.1006 C.ar    1  UNL1        0.1642
     14 F          -7.5353  -19.0809   21.4966 F       1  UNL1       -0.2020
     15 C          -6.8312  -15.1422   25.4243 C.3     1  UNL1        0.1123
     16 C          -5.4105  -15.5933   25.5912 C.3     1  UNL1        0.0940
     17 N          -3.1420  -17.2337   22.0680 N.3     1  UNL1       -0.2716
     18 C          -3.4336  -15.7649   22.1542 C.3     1  UNL1        0.0896
     19 C          -4.1898  -15.2181   23.3287 C.3     1  UNL1        0.0897
     20 N          -4.6543  -16.1401   24.4168 N.3     1  UNL1       -0.2688
     21 C          -4.3627  -17.6089   24.3305 C.3     1  UNL1        0.0897
     22 C          -3.6065  -18.1557   23.1561 C.3     1  UNL1        0.0896
     23 C          -1.1486  -17.0851   20.4085 C.3     1  UNL1        0.0173
     24 C          -2.3858  -17.7806   20.8936 C.3     1  UNL1        0.0577
     25 C          -2.8669  -19.0229   20.2043 C.3     1  UNL1        0.0173
@<TRIPOS>BOND
     1    23    24    1
     2    24    25    1
     3    24    17    1
     4    17    18    1
     5    18    19    1
     6    19    20    1
     7    20    16    1
     8    16    15    1
     9    15     1    1
    10     1     2    1
    11     2     3    1
    12     3     4    1
    13     4     7    1
    14     7     8   ar
    15     8     9   ar
    16     9    10   ar
    17    10    11   ar
    18    11    12    1
    19    11    13   ar
    20    13    14    1
    21     4     5   am
    22     5     6    2
    23    20    21    1
    24    21    22    1
    25    22    17    1
    26     5     1   am
    27    13     7   ar
@<TRIPOS>MOLECULE
*****
 25 27 0 0 0
SMALL
GASTEIGER

@<TRIPOS>ATOM
      1 N         -15.5625   -3.1792   18.8993 N.am    1  UNL1       -0.2606
      2 C         -14.8878   -2.3772   19.9724 C.3     1  UNL1        0.1169
      3 C         -13.4165   -2.6624   19.9086 C.3     1  UNL1        0.1213
      4 N         -13.1819   -3.6407   18.7960 N.am    1  UNL1       -0.2391
      5 C         -14.5081   -3.9602   18.1722 C.2     1  UNL1        0.3111
      6 O         -14.7395   -4.8961   17.0232 O.2     1  UNL1       -0.2520
      7 C         -11.8542   -4.2012   18.3801 C.ar    1  UNL1        0.0836
      8 C         -10.9339   -3.3888   17.5180 C.ar    1  UNL1        0.0173
      9 C          -9.6062   -3.9493   17.1021 C.ar    1  UNL1        0.0023
     10 C          -9.1987   -5.3222   17.5484 C.ar    1  UNL1        0.0138
     11 C         -10.1189   -6.1346   18.4105 C.ar    1  UNL1        0.0863
     12 CL         -9.7114   -7.5075   18.8567 Cl      1  UNL1       -0.0799
     13 C         -11.4467   -5.5741   18.8263 C.ar    1  UNL1        0.1642
     14 F         -12.3669   -6.3864   19.6885 F       1  UNL1       -0.2020
     15 C         -17.0332   -3.1972   18.6050 C.3     1  UNL1        0.1123
     16 C         -17.9428   -4.1009   19.3834 C.3     1  UNL1        0.0940
     17 N         -18.1880   -8.4749   18.3547 N.3     1  UNL1       -0.2716
     18 C         -19.2565   -7.5329   17.8848 C.3     1  UNL1        0.0896
     19 C         -19.1748   -6.0749   18.2277 C.3     1  UNL1        0.0897
     20 N         -18.0246   -5.5589   19.0405 N.3     1  UNL1       -0.2688
     21 C         -16.9560   -6.5009   19.5103 C.3     1  UNL1        0.0897
     22 C         -17.0378   -7.9589   19.1674 C.3     1  UNL1        0.0896
     23 C         -19.4243  -10.4503   17.2060 C.3     1  UNL1        0.0173
     24 C         -18.2698   -9.9329   18.0118 C.3     1  UNL1        0.0577
     25 C         -17.1970  -10.8735   18.4747 C.3     1  UNL1        0.0173
@<TRIPOS>BOND
     1    23    24    1
     2    24    25    1
     3    24    17    1
     4    17    18    1
     5    18    19    1
     6    19    20    1
     7    20    16    1
     8    16    15    1
     9    15     1    1
    10     1     2    1
    11     2     3    1
    12     3     4    1
    13     4     7    1
    14     7     8   ar
    15     8     9   ar
    16     9    10   ar
    17    10    11   ar
    18    11    12    1
    19    11    13   ar
    20    13    14    1
    21     4     5   am
    22     5     6    2
    23    20    21    1
    24    21    22    1
    25    22    17    1
    26     5     1   am
    27    13     7   ar
@<TRIPOS>MOLECULE
*****
 25 27 0 0 0
SMALL
GASTEIGER

@<TRIPOS>ATOM
      1 N          -8.0167  -20.4576   19.6234 N.am    1  UNL1       -0.2606
      2 C          -9.0847  -20.2220   18.5969 C.3     1  UNL1        0.1169
      3 C         -10.2512  -19.5738   19.2818 C.3     1  UNL1        0.1213
      4 N          -9.9041  -19.4087   20.7317 N.am    1  UNL1       -0.2391
      5 C          -8.5231  -19.9549   20.9430 C.2     1  UNL1        0.3111
      6 O          -7.7792  -19.9920   22.2449 O.2     1  UNL1       -0.2520
      7 C         -10.7836  -18.8037   21.7855 C.ar    1  UNL1        0.0836
      8 C         -11.1427  -19.5953   23.0080 C.ar    1  UNL1        0.0173
      9 C         -12.0222  -18.9903   24.0617 C.ar    1  UNL1        0.0023
     10 C         -12.5425  -17.5936   23.8931 C.ar    1  UNL1        0.0138
     11 C         -12.1833  -16.8019   22.6707 C.ar    1  UNL1        0.0863
     12 CL        -12.7037  -15.4051   22.5020 Cl      1  UNL1       -0.0799
     13 C         -11.3039  -17.4070   21.6169 C.ar    1  UNL1        0.1642
     14 F         -10.9447  -16.6153   20.3944 F       1  UNL1       -0.2020
     15 C          -6.6775  -21.0856   19.3743 C.3     1  UNL1        0.1123
     16 C          -5.6666  -21.1598   20.4801 C.3     1  UNL1        0.0940
     17 N          -2.4120  -18.0653   20.7649 N.3     1  UNL1       -0.2716
     18 C          -2.6484  -18.7883   19.4721 C.3     1  UNL1        0.0896
     19 C          -3.7333  -19.8198   19.3772 C.3     1  UNL1        0.0897
     20 N          -4.5818  -20.1283   20.5750 N.3     1  UNL1       -0.2688
     21 C          -4.3453  -19.4054   21.8678 C.3     1  UNL1        0.0897
     22 C          -3.2604  -18.3739   21.9628 C.3     1  UNL1        0.0896
     23 C          -0.0287  -17.2424   20.1384 C.3     1  UNL1        0.0173
     24 C          -1.3271  -17.0338   20.8599 C.3     1  UNL1        0.0577
     25 C          -1.5407  -15.7937   21.6763 C.3     1  UNL1        0.0173
@<TRIPOS>BOND
     1    23    24    1
     2    24    25    1
     3    24    17    1
     4    17    18    1
     5    18    19    1
     6    19    20    1
     7    20    16    1
     8    16    15    1
     9    15     1    1
    10     1     2    1
    11     2     3    1
    12     3     4    1
    13     4     7    1
    14     7     8   ar
    15     8     9   ar
    16     9    10   ar
    17    10    11   ar
    18    11    12    1
    19    11    13   ar
    20    13    14    1
    21     4     5   am
    22     5     6    2
    23    20    21    1
    24    21    22    1
    25    22    17    1
    26     5     1   am
    27    13     7   ar
@<TRIPOS>MOLECULE
*****
 25 27 0 0 0
SMALL
GASTEIGER

@<TRIPOS>ATOM
      1 N           0.5503    2.5668   21.4487 N.am    1  UNL1       -0.2606
      2 C           1.8227    3.3598   21.4028 C.3     1  UNL1        0.1169
      3 C           2.8458    2.5520   20.6607 C.3     1  UNL1        0.1213
      4 N           2.2057    1.2598   20.2478 N.am    1  UNL1       -0.2391
      5 C           0.7869    1.2689   20.7348 C.2     1  UNL1        0.3111
      6 O          -0.2185    0.1728   20.5418 O.2     1  UNL1       -0.2520
      7 C           2.8679    0.1528   19.4824 C.ar    1  UNL1        0.0836
      8 C           3.2774    0.3681   18.0554 C.ar    1  UNL1        0.0173
      9 C           3.9396   -0.7389   17.2900 C.ar    1  UNL1        0.0023
     10 C           4.1924   -2.0612   17.9514 C.ar    1  UNL1        0.0138
     11 C           3.7830   -2.2765   19.3784 C.ar    1  UNL1        0.0863
     12 CL          4.0359   -3.5989   20.0398 Cl      1  UNL1       -0.0799
     13 C           3.1208   -1.1695   20.1438 C.ar    1  UNL1        0.1642
     14 F           2.7113   -1.3848   21.5707 F       1  UNL1       -0.2020
     15 C          -0.7335    2.9963   22.0949 C.3     1  UNL1        0.1123
     16 C          -0.7045    3.7616   23.3846 C.3     1  UNL1        0.0940
     17 N          -0.6153    1.5578   27.3070 N.3     1  UNL1       -0.2716
     18 C           0.3668    1.2089   26.2282 C.3     1  UNL1        0.0896
     19 C           0.3370    1.9435   24.9207 C.3     1  UNL1        0.0897
     20 N          -0.6748    3.0270   24.6921 N.3     1  UNL1       -0.2688
     21 C          -1.6568    3.3759   25.7709 C.3     1  UNL1        0.0897
     22 C          -1.6270    2.6413   27.0783 C.3     1  UNL1        0.0896
     23 C          -1.3784   -0.4387   28.7840 C.3     1  UNL1        0.0173
     24 C          -0.5855    0.8232   28.6145 C.3     1  UNL1        0.0577
     25 C           0.2372    1.3505   29.7525 C.3     1  UNL1        0.0173
@<TRIPOS>BOND
     1    23    24    1
     2    24    25    1
     3    24    17    1
     4    17    18    1
     5    18    19    1
     6    19    20    1
     7    20    16    1
     8    16    15    1
     9    15     1    1
    10     1     2    1
    11     2     3    1
    12     3     4    1
    13     4     7    1
    14     7     8   ar
    15     8     9   ar
    16     9    10   ar
    17    10    11   ar
    18    11    12    1
    19    11    13   ar
    20    13    14    1
    21     4     5   am
    22     5     6    2
    23    20    21    1
    24    21    22    1
    25    22    17    1
    26     5     1   am
    27    13     7   ar
@<TRIPOS>MOLECULE
*****
 25 27 0 0 0
SMALL
GASTEIGER

@<TRIPOS>ATOM
      1 N           1.3608    1.3773   19.0863 N.am    1  UNL1       -0.2606
      2 C           0.4198    0.5211   19.8809 C.3     1  UNL1        0.1169
      3 C           1.1244   -0.7622   20.2078 C.3     1  UNL1        0.1213
      4 N           2.5009   -0.6991   19.6151 N.am    1  UNL1       -0.2391
      5 C           2.6470    0.6231   18.9219 C.2     1  UNL1        0.3111
      6 O           3.8654    1.1063   18.1926 O.2     1  UNL1       -0.2520
      7 C           3.5475   -1.7702   19.7005 C.ar    1  UNL1        0.0836
      8 C           4.1599   -2.3221   18.4473 C.ar    1  UNL1        0.0173
      9 C           5.2065   -3.3932   18.5328 C.ar    1  UNL1        0.0023
     10 C           5.6408   -3.9123   19.8713 C.ar    1  UNL1        0.0138
     11 C           5.0285   -3.3604   21.1245 C.ar    1  UNL1        0.0863
     12 CL          5.4628   -3.8796   22.4632 Cl      1  UNL1       -0.0799
     13 C           3.9818   -2.2893   21.0391 C.ar    1  UNL1        0.1642
     14 F           3.3695   -1.7374   22.2923 F       1  UNL1       -0.2020
     15 C           1.0672    2.7470   18.5500 C.3     1  UNL1        0.1123
     16 C           0.3767    3.7591   19.4154 C.3     1  UNL1        0.0940
     17 N          -4.1118    3.7566   19.7371 N.3     1  UNL1       -0.2716
     18 C          -3.2759    3.3244   20.9052 C.3     1  UNL1        0.0896
     19 C          -1.7798    3.3253   20.7980 C.3     1  UNL1        0.0897
     20 N          -1.1195    3.7582   19.5226 N.3     1  UNL1       -0.2688
     21 C          -1.9554    4.1904   18.3545 C.3     1  UNL1        0.0897
     22 C          -3.4515    4.1895   18.4618 C.3     1  UNL1        0.0896
     23 C          -6.4378    3.1483   18.7524 C.3     1  UNL1        0.0173
     24 C          -5.6080    3.7557   19.8443 C.3     1  UNL1        0.0577
     25 C          -6.2743    4.3623   21.0435 C.3     1  UNL1        0.0173
@<TRIPOS>BOND
     1    23    24    1
     2    24    25    1
     3    24    17    1
     4    17    18    1
     5    18    19    1
     6    19    20    1
     7    20    16    1
     8    16    15    1
     9    15     1    1
    10     1     2    1
    11     2     3    1
    12     3     4    1
    13     4     7    1
    14     7     8   ar
    15     8     9   ar
    16     9    10   ar
    17    10    11   ar
    18    11    12    1
    19    11    13   ar
    20    13    14    1
    21     4     5   am
    22     5     6    2
    23    20    21    1
    24    21    22    1
    25    22    17    1
    26     5     1   am
    27    13     7   ar
