@<TRIPOS>MOLECULE
*****
 25 28 0 0 0
SMALL
GASTEIGER

@<TRIPOS>ATOM
      1 C          -8.0370  -18.0524   22.5726 C.3     1  UNL1        0.2026
      2 C          -9.0682  -18.2256   21.4972 C.ar    1  UNL1        0.0146
      3 C          -9.2677  -19.2907   20.4600 C.ar    1  UNL1       -0.0011
      4 C         -10.4137  -19.1945   19.4970 C.ar    1  UNL1       -0.0002
      5 C         -11.3602  -18.0332   19.5712 C.ar    1  UNL1       -0.0003
      6 C         -11.1608  -16.9681   20.6084 C.ar    1  UNL1       -0.0044
      7 C         -10.0148  -17.0643   21.5714 C.ar    1  UNL1       -0.0213
      8 C          -9.5684  -16.1735   22.6926 C.3     1  UNL1        0.0461
      9 C          -8.3461  -16.7841   23.3114 C.3     1  UNL1        0.1066
     10 N          -7.5692  -16.2247   24.4662 N.3     1  UNL1       -0.2703
     11 C          -6.1792  -15.6644   24.4049 C.3     1  UNL1        0.0722
     12 C          -5.7969  -15.2208   25.7859 C.3     1  UNL1        0.0188
     13 C          -6.9507  -15.5070   26.7007 C.3     1  UNL1        0.0188
     14 C          -8.0460  -16.1275   25.8851 C.3     1  UNL1        0.0722
     15 O          -6.8967  -18.9840   22.8588 O.3     1  UNL1       -0.4734
     16 C          -2.9585  -18.4345   20.7520 C.ar    1  UNL1        0.1059
     17 C          -4.1341  -18.9973   20.0097 C.ar    1  UNL1        0.0215
     18 C          -5.4469  -19.1805   20.7119 C.ar    1  UNL1        0.0382
     19 C          -5.5841  -18.8009   22.1566 C.ar    1  UNL1        0.1390
     20 C          -4.4084  -18.2379   22.8989 C.ar    1  UNL1        0.0382
     21 C          -3.0956  -18.0547   22.1967 C.ar    1  UNL1        0.0215
     22 C          -0.3331  -18.0680   19.3475 C.3     1  UNL1        0.1816
     23 S          -1.6458  -18.2512   20.0498 S.O2    1  UNL1        0.0105
     24 O          -2.3650  -17.7288   18.8415 O.2     1  UNL1       -0.1686
     25 O          -0.9266  -18.7736   21.2580 O.2     1  UNL1       -0.1686
@<TRIPOS>BOND
     1    22    23    1
     2    23    24    2
     3    23    25    2
     4    23    16    1
     5    16    17   ar
     6    17    18   ar
     7    18    19   ar
     8    19    15    1
     9     1    15    1
    10     1     2    1
    11     2     3   ar
    12     3     4   ar
    13     4     5   ar
    14     5     6   ar
    15     6     7   ar
    16     7     8    1
    17     8     9    1
    18     9    10    1
    19    10    11    1
    20    11    12    1
    21    12    13    1
    22    13    14    1
    23    19    20   ar
    24    20    21   ar
    25    21    16   ar
    26     9     1    1
    27    14    10    1
    28     7     2   ar
@<TRIPOS>MOLECULE
*****
 25 28 0 0 0
SMALL
GASTEIGER

@<TRIPOS>ATOM
      1 C          -6.2543  -17.4003   22.7287 C.3     1  UNL1        0.2026
      2 C          -6.4324  -16.6157   23.9947 C.ar    1  UNL1        0.0146
      3 C          -7.6453  -16.0144   24.6406 C.ar    1  UNL1       -0.0011
      4 C          -7.5134  -15.2682   25.9351 C.ar    1  UNL1       -0.0002
      5 C          -6.1686  -15.1233   26.5837 C.ar    1  UNL1       -0.0003
      6 C          -4.9557  -15.7246   25.9377 C.ar    1  UNL1       -0.0044
      7 C          -5.0876  -16.4708   24.6432 C.ar    1  UNL1       -0.0213
      8 C          -4.0785  -17.1659   23.7781 C.3     1  UNL1        0.0461
      9 C          -4.7995  -17.7404   22.5949 C.3     1  UNL1        0.1066
     10 N          -4.1754  -18.5184   21.4745 N.3     1  UNL1       -0.2703
     11 C          -2.9246  -18.1483   20.7338 C.3     1  UNL1        0.0722
     12 C          -2.6686  -19.2042   19.6996 C.3     1  UNL1        0.0188
     13 C          -3.7612  -20.2270   19.8012 C.3     1  UNL1        0.0188
     14 C          -4.6924  -19.8031   20.8981 C.3     1  UNL1        0.0722
     15 O          -7.3404  -17.7785   21.7657 O.3     1  UNL1       -0.4734
     16 C         -11.6049  -18.0489   23.1766 C.ar    1  UNL1        0.1059
     17 C         -11.1537  -16.8637   22.3756 C.ar    1  UNL1        0.0215
     18 C          -9.7322  -16.7736   21.9053 C.ar    1  UNL1        0.0382
     19 C          -8.7619  -17.8686   22.2360 C.ar    1  UNL1        0.1390
     20 C          -9.2132  -19.0539   23.0370 C.ar    1  UNL1        0.0382
     21 C         -10.6347  -19.1440   23.5074 C.ar    1  UNL1        0.0215
     22 C         -14.4479  -18.2293   24.1172 C.3     1  UNL1        0.1816
     23 S         -13.0264  -18.1391   23.6469 S.O2    1  UNL1        0.0105
     24 O         -12.5523  -18.6103   24.9898 O.2     1  UNL1       -0.1686
     25 O         -13.5006  -17.6680   22.3041 O.2     1  UNL1       -0.1686
@<TRIPOS>BOND
     1    22    23    1
     2    23    24    2
     3    23    25    2
     4    23    16    1
     5    16    17   ar
     6    17    18   ar
     7    18    19   ar
     8    19    15    1
     9     1    15    1
    10     1     2    1
    11     2     3   ar
    12     3     4   ar
    13     4     5   ar
    14     5     6   ar
    15     6     7   ar
    16     7     8    1
    17     8     9    1
    18     9    10    1
    19    10    11    1
    20    11    12    1
    21    12    13    1
    22    13    14    1
    23    19    20   ar
    24    20    21   ar
    25    21    16   ar
    26     9     1    1
    27    14    10    1
    28     7     2   ar
@<TRIPOS>MOLECULE
*****
 25 28 0 0 0
SMALL
GASTEIGER

@<TRIPOS>ATOM
      1 C          -6.4208  -18.2542   21.9995 C.3     1  UNL1        0.2026
      2 C          -4.9375  -18.4721   22.0472 C.ar    1  UNL1        0.0146
      3 C          -3.8419  -17.7613   22.7849 C.ar    1  UNL1       -0.0011
      4 C          -2.4198  -18.2141   22.6341 C.ar    1  UNL1       -0.0002
      5 C          -2.0935  -19.3777   21.7456 C.ar    1  UNL1       -0.0003
      6 C          -3.1891  -20.0886   21.0079 C.ar    1  UNL1       -0.0044
      7 C          -4.6111  -19.6358   21.1587 C.ar    1  UNL1       -0.0213
      8 C          -5.8928  -20.1370   20.5619 C.3     1  UNL1        0.0461
      9 C          -7.0112  -19.2832   21.0815 C.3     1  UNL1        0.1066
     10 N          -8.4648  -19.4322   20.7427 N.3     1  UNL1       -0.2703
     11 C          -9.1530  -18.8586   19.5396 C.3     1  UNL1        0.0722
     12 C         -10.5990  -19.2528   19.6008 C.3     1  UNL1        0.0188
     13 C         -10.8045  -20.0701   20.8417 C.3     1  UNL1        0.0188
     14 C          -9.4855  -20.1810   21.5474 C.3     1  UNL1        0.0722
     15 O          -7.1804  -17.1936   22.7397 O.3     1  UNL1       -0.4734
     16 C         -11.5447  -17.7824   23.6649 C.ar    1  UNL1        0.1059
     17 C         -10.5052  -18.5342   24.4421 C.ar    1  UNL1        0.0215
     18 C          -9.0504  -18.3380   24.1337 C.ar    1  UNL1        0.0382
     19 C          -8.6351  -17.3898   23.0481 C.ar    1  UNL1        0.1390
     20 C          -9.6747  -16.6379   22.2709 C.ar    1  UNL1        0.0382
     21 C         -11.1295  -16.8341   22.5793 C.ar    1  UNL1        0.0215
     22 C         -14.4543  -18.1748   24.2816 C.3     1  UNL1        0.1816
     23 S         -12.9995  -17.9786   23.9733 S.O2    1  UNL1        0.0105
     24 O         -13.3639  -17.0973   22.8153 O.2     1  UNL1       -0.1686
     25 O         -12.6352  -18.8598   25.1312 O.2     1  UNL1       -0.1686
@<TRIPOS>BOND
     1    22    23    1
     2    23    24    2
     3    23    25    2
     4    23    16    1
     5    16    17   ar
     6    17    18   ar
     7    18    19   ar
     8    19    15    1
     9     1    15    1
    10     1     2    1
    11     2     3   ar
    12     3     4   ar
    13     4     5   ar
    14     5     6   ar
    15     6     7   ar
    16     7     8    1
    17     8     9    1
    18     9    10    1
    19    10    11    1
    20    11    12    1
    21    12    13    1
    22    13    14    1
    23    19    20   ar
    24    20    21   ar
    25    21    16   ar
    26     9     1    1
    27    14    10    1
    28     7     2   ar
@<TRIPOS>MOLECULE
*****
 25 28 0 0 0
SMALL
GASTEIGER

@<TRIPOS>ATOM
      1 C          -6.9960  -18.1216   22.3186 C.3     1  UNL1        0.2026
      2 C          -6.8598  -17.0444   23.3535 C.ar    1  UNL1        0.0146
      3 C          -5.7735  -16.7312   24.3393 C.ar    1  UNL1       -0.0011
      4 C          -5.9188  -15.5636   25.2696 C.ar    1  UNL1       -0.0002
      5 C          -7.1504  -14.7091   25.2141 C.ar    1  UNL1       -0.0003
      6 C          -8.2367  -15.0223   24.2283 C.ar    1  UNL1       -0.0044
      7 C          -8.0914  -16.1900   23.2980 C.ar    1  UNL1       -0.0213
      8 C          -8.9887  -16.7391   22.2288 C.3     1  UNL1        0.0461
      9 C          -8.3117  -17.9329   21.6234 C.3     1  UNL1        0.1066
     10 N          -8.8550  -18.7879   20.5171 N.3     1  UNL1       -0.2703
     11 C         -10.3053  -19.0064   20.2028 C.3     1  UNL1        0.0722
     12 C         -10.3901  -19.9281   19.0224 C.3     1  UNL1        0.0188
     13 C          -8.9921  -20.2792   18.6072 C.3     1  UNL1        0.0188
     14 C          -8.0434  -19.5745   19.5310 C.3     1  UNL1        0.0722
     15 O          -5.9925  -19.1984   22.0295 O.3     1  UNL1       -0.4734
     16 C          -1.8430  -18.1029   20.6762 C.ar    1  UNL1        0.1059
     17 C          -2.1884  -18.0729   22.1356 C.ar    1  UNL1        0.0215
     18 C          -3.5715  -18.4381   22.5867 C.ar    1  UNL1        0.0382
     19 C          -4.6094  -18.8333   21.5785 C.ar    1  UNL1        0.1390
     20 C          -4.2640  -18.8633   20.1190 C.ar    1  UNL1        0.0382
     21 C          -2.8809  -18.4981   19.6679 C.ar    1  UNL1        0.0215
     22 C           0.9233  -17.3726   19.7740 C.3     1  UNL1        0.1816
     23 S          -0.4599  -17.7378   20.2251 S.O2    1  UNL1        0.0105
     24 O          -0.7175  -16.3066   20.5934 O.2     1  UNL1       -0.1686
     25 O          -0.2022  -19.1688   19.8568 O.2     1  UNL1       -0.1686
@<TRIPOS>BOND
     1    22    23    1
     2    23    24    2
     3    23    25    2
     4    23    16    1
     5    16    17   ar
     6    17    18   ar
     7    18    19   ar
     8    19    15    1
     9     1    15    1
    10     1     2    1
    11     2     3   ar
    12     3     4   ar
    13     4     5   ar
    14     5     6   ar
    15     6     7   ar
    16     7     8    1
    17     8     9    1
    18     9    10    1
    19    10    11    1
    20    11    12    1
    21    12    13    1
    22    13    14    1
    23    19    20   ar
    24    20    21   ar
    25    21    16   ar
    26     9     1    1
    27    14    10    1
    28     7     2   ar
@<TRIPOS>MOLECULE
*****
 25 28 0 0 0
SMALL
GASTEIGER

@<TRIPOS>ATOM
      1 C          -8.3072  -19.2945   21.3315 C.3     1  UNL1        0.2026
      2 C          -8.8621  -18.1853   22.1752 C.ar    1  UNL1        0.0146
      3 C          -8.4244  -17.6080   23.4886 C.ar    1  UNL1       -0.0011
      4 C          -9.1935  -16.4770   24.1043 C.ar    1  UNL1       -0.0002
      5 C         -10.4004  -15.9233   23.4066 C.ar    1  UNL1       -0.0003
      6 C         -10.8382  -16.5006   22.0932 C.ar    1  UNL1       -0.0044
      7 C         -10.0690  -17.6316   21.4775 C.ar    1  UNL1       -0.0213
      8 C         -10.2599  -18.3986   20.2026 C.3     1  UNL1        0.0461
      9 C          -9.1711  -19.4263   20.1124 C.3     1  UNL1        0.1066
     10 N          -8.9797  -20.4127   18.9986 N.3     1  UNL1       -0.2703
     11 C          -9.7062  -20.4126   17.6863 C.3     1  UNL1        0.0722
     12 C          -9.2038  -21.5721   16.8782 C.3     1  UNL1        0.0188
     13 C          -8.1667  -22.2889   17.6911 C.3     1  UNL1        0.0188
     14 C          -8.0283  -21.5723   19.0016 C.3     1  UNL1        0.0722
     15 O          -7.1002  -20.1259   21.6510 O.3     1  UNL1       -0.4734
     16 C          -2.9875  -18.6017   20.6449 C.ar    1  UNL1        0.1059
     17 C          -3.9692  -18.8909   19.5483 C.ar    1  UNL1        0.0215
     18 C          -5.3401  -19.3990   19.8836 C.ar    1  UNL1        0.0382
     19 C          -5.7294  -19.6179   21.3156 C.ar    1  UNL1        0.1390
     20 C          -4.7476  -19.3286   22.4123 C.ar    1  UNL1        0.0382
     21 C          -3.3767  -18.8206   22.0769 C.ar    1  UNL1        0.0215
     22 C          -0.2456  -17.5856   19.9743 C.3     1  UNL1        0.1816
     23 S          -1.6166  -18.0937   20.3096 S.O2    1  UNL1        0.0105
     24 O          -2.1692  -17.4010   19.0992 O.2     1  UNL1       -0.1686
     25 O          -1.0639  -18.7862   21.5199 O.2     1  UNL1       -0.1686
@<TRIPOS>BOND
     1    22    23    1
     2    23    24    2
     3    23    25    2
     4    23    16    1
     5    16    17   ar
     6    17    18   ar
     7    18    19   ar
     8    19    15    1
     9     1    15    1
    10     1     2    1
    11     2     3   ar
    12     3     4   ar
    13     4     5   ar
    14     5     6   ar
    15     6     7   ar
    16     7     8    1
    17     8     9    1
    18     9    10    1
    19    10    11    1
    20    11    12    1
    21    12    13    1
    22    13    14    1
    23    19    20   ar
    24    20    21   ar
    25    21    16   ar
    26     9     1    1
    27    14    10    1
    28     7     2   ar
@<TRIPOS>MOLECULE
*****
 25 28 0 0 0
SMALL
GASTEIGER

@<TRIPOS>ATOM
      1 C         -13.4993   -5.6442   19.5968 C.3     1  UNL1        0.2026
      2 C         -12.1070   -5.9007   19.1011 C.ar    1  UNL1        0.0146
      3 C         -10.8223   -5.1482   19.2829 C.ar    1  UNL1       -0.0011
      4 C          -9.5593   -5.6577   18.6543 C.ar    1  UNL1       -0.0002
      5 C          -9.5810   -6.9197   17.8439 C.ar    1  UNL1       -0.0003
      6 C         -10.8658   -7.6723   17.6620 C.ar    1  UNL1       -0.0044
      7 C         -12.1288   -7.1628   18.2906 C.ar    1  UNL1       -0.0213
      8 C         -13.5345   -7.6862   18.2855 C.3     1  UNL1        0.0461
      9 C         -14.3816   -6.7477   19.0928 C.3     1  UNL1        0.1066
     10 N         -15.8525   -6.8880   19.3507 N.3     1  UNL1       -0.2703
     11 C         -16.5506   -8.1291   19.8222 C.3     1  UNL1        0.0722
     12 C         -18.0132   -7.8200   19.9453 C.3     1  UNL1        0.0188
     13 C         -18.2191   -6.3878   19.5499 C.3     1  UNL1        0.0188
     14 C         -16.8838   -5.8118   19.1824 C.3     1  UNL1        0.0722
     15 O         -13.9332   -4.4873   20.4473 O.3     1  UNL1       -0.4734
     16 C         -14.2821   -0.3776   18.6476 C.ar    1  UNL1        0.1059
     17 C         -15.5018   -1.0690   19.1806 C.ar    1  UNL1        0.0215
     18 C         -15.3856   -2.4389   19.7805 C.ar    1  UNL1        0.0382
     19 C         -14.0495   -3.1175   19.8474 C.ar    1  UNL1        0.1390
     20 C         -12.8297   -2.4260   19.3144 C.ar    1  UNL1        0.0382
     21 C         -12.9459   -1.0561   18.7145 C.ar    1  UNL1        0.0215
     22 C         -14.5146    2.3621   17.4479 C.3     1  UNL1        0.1816
     23 S         -14.3983    0.9922   18.0478 S.O2    1  UNL1        0.0105
     24 O         -15.8126    0.6960   17.6451 O.2     1  UNL1       -0.1686
     25 O         -12.9841    1.2886   18.4504 O.2     1  UNL1       -0.1686
@<TRIPOS>BOND
     1    22    23    1
     2    23    24    2
     3    23    25    2
     4    23    16    1
     5    16    17   ar
     6    17    18   ar
     7    18    19   ar
     8    19    15    1
     9     1    15    1
    10     1     2    1
    11     2     3   ar
    12     3     4   ar
    13     4     5   ar
    14     5     6   ar
    15     6     7   ar
    16     7     8    1
    17     8     9    1
    18     9    10    1
    19    10    11    1
    20    11    12    1
    21    12    13    1
    22    13    14    1
    23    19    20   ar
    24    20    21   ar
    25    21    16   ar
    26     9     1    1
    27    14    10    1
    28     7     2   ar
@<TRIPOS>MOLECULE
*****
 25 28 0 0 0
SMALL
GASTEIGER

@<TRIPOS>ATOM
      1 C         -14.7590   -6.6719   19.2249 C.3     1  UNL1        0.2026
      2 C         -15.8591   -7.6915   19.2398 C.ar    1  UNL1        0.0146
      3 C         -17.1807   -7.7319   19.9480 C.ar    1  UNL1       -0.0011
      4 C         -18.0928   -8.9088   19.7672 C.ar    1  UNL1       -0.0002
      5 C         -17.6834  -10.0454   18.8781 C.ar    1  UNL1       -0.0003
      6 C         -16.3618  -10.0051   18.1699 C.ar    1  UNL1       -0.0044
      7 C         -15.4496   -8.8282   18.3507 C.ar    1  UNL1       -0.0213
      8 C         -14.0965   -8.5109   17.7863 C.3     1  UNL1        0.0461
      9 C         -13.6697   -7.1783   18.3266 C.3     1  UNL1        0.1066
     10 N         -12.3800   -6.4755   18.0221 N.3     1  UNL1       -0.2703
     11 C         -12.0945   -5.6444   16.8065 C.3     1  UNL1        0.0722
     12 C         -10.6874   -5.1356   16.9128 C.3     1  UNL1        0.0188
     13 C         -10.1032   -5.6523   18.1941 C.3     1  UNL1        0.0188
     14 C         -11.1493   -6.4804   18.8797 C.3     1  UNL1        0.0722
     15 O         -14.7499   -5.3738   19.9764 O.3     1  UNL1       -0.4734
     16 C         -13.0474   -1.6757   18.0591 C.ar    1  UNL1        0.1059
     17 C         -14.2591   -2.3356   17.4707 C.ar    1  UNL1        0.0215
     18 C         -14.8266   -3.5683   18.1097 C.ar    1  UNL1        0.0382
     19 C         -14.1825   -4.1411   19.3373 C.ar    1  UNL1        0.1390
     20 C         -12.9707   -3.4812   19.9258 C.ar    1  UNL1        0.0382
     21 C         -12.4032   -2.2485   19.2867 C.ar    1  UNL1        0.0215
     22 C         -11.9123    0.7897   16.7811 C.3     1  UNL1        0.1816
     23 S         -12.4799   -0.4430   17.4201 S.O2    1  UNL1        0.0105
     24 O         -11.6063   -1.2966   16.5492 O.2     1  UNL1       -0.1686
     25 O         -13.3533    0.4106   18.2909 O.2     1  UNL1       -0.1686
@<TRIPOS>BOND
     1    22    23    1
     2    23    24    2
     3    23    25    2
     4    23    16    1
     5    16    17   ar
     6    17    18   ar
     7    18    19   ar
     8    19    15    1
     9     1    15    1
    10     1     2    1
    11     2     3   ar
    12     3     4   ar
    13     4     5   ar
    14     5     6   ar
    15     6     7   ar
    16     7     8    1
    17     8     9    1
    18     9    10    1
    19    10    11    1
    20    11    12    1
    21    12    13    1
    22    13    14    1
    23    19    20   ar
    24    20    21   ar
    25    21    16   ar
    26     9     1    1
    27    14    10    1
    28     7     2   ar
@<TRIPOS>MOLECULE
*****
 25 28 0 0 0
SMALL
GASTEIGER

@<TRIPOS>ATOM
      1 C         -12.5035   -3.1675   18.9132 C.3     1  UNL1        0.2026
      2 C         -11.2859   -3.5670   18.1336 C.ar    1  UNL1        0.0146
      3 C         -10.4171   -4.7887   18.1855 C.ar    1  UNL1       -0.0011
      4 C          -9.2412   -4.9125   17.2625 C.ar    1  UNL1       -0.0002
      5 C          -8.9342   -3.8146   16.2876 C.ar    1  UNL1       -0.0003
      6 C          -9.8029   -2.5929   16.2358 C.ar    1  UNL1       -0.0044
      7 C         -10.9788   -2.4692   17.1588 C.ar    1  UNL1       -0.0213
      8 C         -12.0067   -1.3911   17.3359 C.3     1  UNL1        0.0461
      9 C         -12.9490   -1.8227   18.4202 C.3     1  UNL1        0.1066
     10 N         -14.1295   -1.0459   18.9232 N.3     1  UNL1       -0.2703
     11 C         -14.4532    0.3804   18.5901 C.3     1  UNL1        0.0722
     12 C         -15.7173    0.7488   19.3086 C.3     1  UNL1        0.0188
     13 C         -16.1749   -0.4498   20.0857 C.3     1  UNL1        0.0188
     14 C         -15.1936   -1.5590   19.8475 C.3     1  UNL1        0.0722
     15 O         -13.1603   -3.9716   19.9958 O.3     1  UNL1       -0.4734
     16 C         -15.7014   -7.5291   18.9295 C.ar    1  UNL1        0.1059
     17 C         -14.2097   -7.6045   18.7914 C.ar    1  UNL1        0.0215
     18 C         -13.3627   -6.4187   19.1468 C.ar    1  UNL1        0.0382
     19 C         -14.0073   -5.1574   19.6403 C.ar    1  UNL1        0.1390
     20 C         -15.4991   -5.0820   19.7784 C.ar    1  UNL1        0.0382
     21 C         -16.3462   -6.2678   19.4230 C.ar    1  UNL1        0.0215
     22 C         -17.3955   -9.9007   18.2186 C.3     1  UNL1        0.1816
     23 S         -16.5485   -8.7149   18.5740 S.O2    1  UNL1        0.0105
     24 O         -15.5479   -9.1172   17.5313 O.2     1  UNL1       -0.1686
     25 O         -17.5490   -8.3127   19.6167 O.2     1  UNL1       -0.1686
@<TRIPOS>BOND
     1    22    23    1
     2    23    24    2
     3    23    25    2
     4    23    16    1
     5    16    17   ar
     6    17    18   ar
     7    18    19   ar
     8    19    15    1
     9     1    15    1
    10     1     2    1
    11     2     3   ar
    12     3     4   ar
    13     4     5   ar
    14     5     6   ar
    15     6     7   ar
    16     7     8    1
    17     8     9    1
    18     9    10    1
    19    10    11    1
    20    11    12    1
    21    12    13    1
    22    13    14    1
    23    19    20   ar
    24    20    21   ar
    25    21    16   ar
    26     9     1    1
    27    14    10    1
    28     7     2   ar
@<TRIPOS>MOLECULE
*****
 25 28 0 0 0
SMALL
GASTEIGER

@<TRIPOS>ATOM
      1 C          -4.1569    3.1751   20.7458 C.3     1  UNL1        0.2026
      2 C          -5.0120    3.7990   19.6830 C.ar    1  UNL1        0.0146
      3 C          -6.4991    3.9372   19.5440 C.ar    1  UNL1       -0.0011
      4 C          -7.0794    4.6256   18.3443 C.ar    1  UNL1       -0.0002
      5 C          -6.1726    5.1758   17.2836 C.ar    1  UNL1       -0.0003
      6 C          -4.6855    5.0376   17.4227 C.ar    1  UNL1       -0.0044
      7 C          -4.1052    4.3492   18.6223 C.ar    1  UNL1       -0.0213
      8 C          -2.6898    4.0653   19.0297 C.3     1  UNL1        0.0461
      9 C          -2.7217    3.3397   20.3421 C.3     1  UNL1        0.1066
     10 N          -1.5280    2.8624   21.1150 N.3     1  UNL1       -0.2703
     11 C          -0.4800    1.9104   20.6197 C.3     1  UNL1        0.0722
     12 C           0.5229    1.7130   21.7175 C.3     1  UNL1        0.0188
     13 C           0.0947    2.5430   22.8913 C.3     1  UNL1        0.0188
     14 C          -1.1728    3.2533   22.5189 C.3     1  UNL1        0.0722
     15 O          -4.6505    2.5043   21.9934 O.3     1  UNL1       -0.4734
     16 C          -5.8423    4.9789   25.5579 C.ar    1  UNL1        0.1059
     17 C          -6.6918    4.9866   24.3218 C.ar    1  UNL1        0.0215
     18 C          -6.2946    4.1617   23.1336 C.ar    1  UNL1        0.0382
     19 C          -5.0478    3.3291   23.1815 C.ar    1  UNL1        0.1390
     20 C          -4.1982    3.3215   24.4178 C.ar    1  UNL1        0.0382
     21 C          -4.5954    4.1464   25.6060 C.ar    1  UNL1        0.0215
     22 C          -6.6367    6.6286   27.9343 C.3     1  UNL1        0.1816
     23 S          -6.2395    5.8038   26.7461 S.O2    1  UNL1        0.0105
     24 O          -7.3598    6.4079   25.9523 O.2     1  UNL1       -0.1686
     25 O          -5.1193    5.1997   27.5400 O.2     1  UNL1       -0.1686
@<TRIPOS>BOND
     1    22    23    1
     2    23    24    2
     3    23    25    2
     4    23    16    1
     5    16    17   ar
     6    17    18   ar
     7    18    19   ar
     8    19    15    1
     9     1    15    1
    10     1     2    1
    11     2     3   ar
    12     3     4   ar
    13     4     5   ar
    14     5     6   ar
    15     6     7   ar
    16     7     8    1
    17     8     9    1
    18     9    10    1
    19    10    11    1
    20    11    12    1
    21    12    13    1
    22    13    14    1
    23    19    20   ar
    24    20    21   ar
    25    21    16   ar
    26     9     1    1
    27    14    10    1
    28     7     2   ar
