@<TRIPOS>MOLECULE
*****
 33 37 0 0 0
SMALL
GASTEIGER

@<TRIPOS>ATOM
      1 C           1.1207   -0.1686   28.9919 C.3     1  UNL1        0.0334
      2 C           1.8349    0.3924   30.1857 C.ar    1  UNL1        0.0057
      3 C           3.0517   -0.2989   30.7252 C.ar    1  UNL1       -0.0008
      4 C           3.7659    0.2622   31.9190 C.ar    1  UNL1        0.0139
      5 C           4.9816   -0.1965   32.6685 C.ar    1  UNL1        0.0086
      6 C           5.2301    0.7726   33.7861 C.ar    1  UNL1        0.0710
      7 N           4.1680    1.8302   33.7273 N.ar    1  UNL1       -0.3221
      8 C           3.2631    1.5147   32.5734 C.ar    1  UNL1        0.0621
      9 C           2.0461    2.2062   32.0340 C.ar    1  UNL1        0.0465
     10 C           1.3320    1.6451   30.8401 C.ar    1  UNL1        0.1376
     11 F           0.1151    2.3365   30.3007 F       1  UNL1       -0.2045
     12 C           5.8043   -1.4110   32.3554 C.3     1  UNL1        0.1241
     13 C           7.0889   -1.2707   31.5938 C.2     1  UNL1       -0.0115
     14 C           7.9116   -2.4852   31.2807 C.2     1  UNL1        0.0141
     15 C           7.4497   -3.8401   31.7291 C.2     1  UNL1        0.0883
     16 N           6.1651   -3.9804   32.4907 N.am    1  UNL1       -0.1774
     17 C           5.3424   -2.7659   32.8039 C.2     1  UNL1        0.2534
     18 O           4.0577   -2.9061   33.5655 O.2     1  UNL1       -0.2723
     19 C           6.3450    0.6974   34.7868 C.2     1  UNL1        0.0884
     20 O           7.5589    1.5632   34.6237 O.co2   1  UNL1       -0.5431
     21 O           6.2460   -0.2438   35.9506 O.co2   1  UNL1       -0.5431
     22 C           4.0343    2.9982   34.6589 C.3     1  UNL1        0.1351
     23 C           3.1308    2.9058   35.8527 C.ar    1  UNL1        0.0289
     24 C           3.2006    1.7099   36.7553 C.ar    1  UNL1        0.0015
     25 C           2.2971    1.6175   37.9491 C.ar    1  UNL1        0.0175
     26 C           2.3669    0.4216   38.8518 C.ar    1  UNL1        0.0015
     27 C           1.4634    0.3292   40.0456 C.ar    1  UNL1        0.0001
     28 C           0.4901    1.4328   40.3367 C.ar    1  UNL1        0.0015
     29 C           0.4203    2.6287   39.4341 C.ar    1  UNL1        0.0191
     30 C           1.3238    2.7211   38.2403 C.ar    1  UNL1        0.0822
     31 N           1.2540    3.9171   37.3376 N.ar    1  UNL1       -0.2342
     32 C           2.1575    4.0095   36.1438 C.ar    1  UNL1        0.1361
     33 CL          2.0877    5.2054   35.2412 Cl      1  UNL1       -0.0616
@<TRIPOS>UNITY_ATOM_ATTR
20 1
charge -1
@<TRIPOS>BOND
     1     1     2    1
     2     2     3   ar
     3     3     4   ar
     4     4     5   ar
     5     5    12    1
     6    12    13    1
     7    13    14    2
     8    14    15    1
     9    15    16    2
    10    16    17    1
    11    17    18    2
    12     5     6   ar
    13     6    19    1
    14    19    20   ar
    15    19    21   ar
    16     6     7   ar
    17     7    22    1
    18    22    23    1
    19    23    24   ar
    20    24    25   ar
    21    25    26   ar
    22    26    27   ar
    23    27    28   ar
    24    28    29   ar
    25    29    30   ar
    26    30    31   ar
    27    31    32   ar
    28    32    33    1
    29     7     8   ar
    30     8     9   ar
    31     9    10   ar
    32    10    11    1
    33    10     2   ar
    34     8     4   ar
    35    17    12    1
    36    32    23   ar
    37    30    25   ar
@<TRIPOS>MOLECULE
*****
 33 37 0 0 0
SMALL
GASTEIGER

@<TRIPOS>ATOM
      1 C           5.4332   -2.0484   26.7295 C.3     1  UNL1        0.0334
      2 C           4.7904   -1.7995   25.3972 C.ar    1  UNL1        0.0057
      3 C           3.7458   -0.7325   25.2561 C.ar    1  UNL1       -0.0008
      4 C           3.1030   -0.4836   23.9239 C.ar    1  UNL1        0.0139
      5 C           2.0522    0.4918   23.4830 C.ar    1  UNL1        0.0086
      6 C           1.8047    0.2765   22.0193 C.ar    1  UNL1        0.0710
      7 N           2.7026   -0.8321   21.5556 N.ar    1  UNL1       -0.3221
      8 C           3.5050   -1.3018   22.7326 C.ar    1  UNL1        0.0621
      9 C           4.5497   -2.3689   22.8737 C.ar    1  UNL1        0.0465
     10 C           5.1925   -2.6178   24.2060 C.ar    1  UNL1        0.1376
     11 F           6.2371   -3.6848   24.3471 F       1  UNL1       -0.2045
     12 C           1.3688    1.5048   24.3530 C.3     1  UNL1        0.1241
     13 C           0.1452    1.1214   25.1313 C.2     1  UNL1       -0.0115
     14 C          -0.5382    2.1343   26.0013 C.2     1  UNL1        0.0141
     15 C           0.0021    3.5306   26.0931 C.2     1  UNL1        0.0883
     16 N           1.2257    3.9140   25.3148 N.am    1  UNL1       -0.1774
     17 C           1.9091    2.9011   24.4448 C.2     1  UNL1        0.2534
     18 O           3.1328    3.2845   23.6665 O.2     1  UNL1       -0.2723
     19 C           0.8305    1.0362   21.1687 C.2     1  UNL1        0.0884
     20 O          -0.3465    0.3302   20.5635 O.co2   1  UNL1       -0.5431
     21 O           1.0332    2.5020   20.9232 O.co2   1  UNL1       -0.5431
     22 C           2.7839   -1.3754   20.1598 C.3     1  UNL1        0.1351
     23 C           3.7690   -0.7988   19.1867 C.ar    1  UNL1        0.0289
     24 C           3.8902    0.6885   19.0347 C.ar    1  UNL1        0.0015
     25 C           4.8753    1.2652   18.0615 C.ar    1  UNL1        0.0175
     26 C           4.9966    2.7525   17.9095 C.ar    1  UNL1        0.0015
     27 C           5.9816    3.3291   16.9363 C.ar    1  UNL1        0.0001
     28 C           6.8455    2.4185   16.1151 C.ar    1  UNL1        0.0015
     29 C           6.7242    0.9311   16.2671 C.ar    1  UNL1        0.0191
     30 C           5.7391    0.3545   17.2403 C.ar    1  UNL1        0.0822
     31 N           5.6179   -1.1329   17.3923 N.ar    1  UNL1       -0.2342
     32 C           4.6328   -1.7096   18.3654 C.ar    1  UNL1        0.1361
     33 CL          4.5116   -3.1969   18.5174 Cl      1  UNL1       -0.0616
@<TRIPOS>UNITY_ATOM_ATTR
20 1
charge -1
@<TRIPOS>BOND
     1     1     2    1
     2     2     3   ar
     3     3     4   ar
     4     4     5   ar
     5     5    12    1
     6    12    13    1
     7    13    14    2
     8    14    15    1
     9    15    16    2
    10    16    17    1
    11    17    18    2
    12     5     6   ar
    13     6    19    1
    14    19    20   ar
    15    19    21   ar
    16     6     7   ar
    17     7    22    1
    18    22    23    1
    19    23    24   ar
    20    24    25   ar
    21    25    26   ar
    22    26    27   ar
    23    27    28   ar
    24    28    29   ar
    25    29    30   ar
    26    30    31   ar
    27    31    32   ar
    28    32    33    1
    29     7     8   ar
    30     8     9   ar
    31     9    10   ar
    32    10    11    1
    33    10     2   ar
    34     8     4   ar
    35    17    12    1
    36    32    23   ar
    37    30    25   ar
@<TRIPOS>MOLECULE
*****
 33 37 0 0 0
SMALL
GASTEIGER

@<TRIPOS>ATOM
      1 C           3.9140   -1.2891   26.0529 C.3     1  UNL1        0.0334
      2 C           3.3208   -0.4015   24.9993 C.ar    1  UNL1        0.0057
      3 C           3.4811   -0.7484   23.5488 C.ar    1  UNL1       -0.0008
      4 C           2.8879    0.1393   22.4952 C.ar    1  UNL1        0.0139
      5 C           2.8832    0.0546   20.9976 C.ar    1  UNL1        0.0086
      6 C           2.1265    1.2370   20.4689 C.ar    1  UNL1        0.0710
      7 N           1.6637    2.0524   21.6398 N.ar    1  UNL1       -0.3221
      8 C           2.1342    1.3740   22.8921 C.ar    1  UNL1        0.0621
      9 C           1.9738    1.7210   24.3426 C.ar    1  UNL1        0.0465
     10 C           2.5671    0.8332   25.3962 C.ar    1  UNL1        0.1376
     11 F           2.4066    1.1802   26.8466 F       1  UNL1       -0.2045
     12 C           3.5227   -1.0232   20.1734 C.3     1  UNL1        0.1241
     13 C           2.8965   -2.3843   20.1025 C.2     1  UNL1       -0.0115
     14 C           3.5360   -3.4621   19.2783 C.2     1  UNL1        0.0141
     15 C           4.8019   -3.1787   18.5250 C.2     1  UNL1        0.0883
     16 N           5.4281   -1.8176   18.5959 N.am    1  UNL1       -0.1774
     17 C           4.7885   -0.7398   19.4201 C.2     1  UNL1        0.2534
     18 O           5.4148    0.6214   19.4911 O.2     1  UNL1       -0.2723
     19 C           1.8767    1.5491   19.0232 C.2     1  UNL1        0.0884
     20 O           0.9116    0.7168   18.2321 O.co2   1  UNL1       -0.5431
     21 O           2.5918    2.6936   18.3685 O.co2   1  UNL1       -0.5431
     22 C           0.8697    3.3231   21.5705 C.3     1  UNL1        0.1351
     23 C          -0.5487    3.3487   22.0579 C.ar    1  UNL1        0.0289
     24 C          -0.8363    3.5186   23.5202 C.ar    1  UNL1        0.0015
     25 C          -2.2546    3.5442   24.0076 C.ar    1  UNL1        0.0175
     26 C          -2.5422    3.7140   25.4700 C.ar    1  UNL1        0.0015
     27 C          -3.9606    3.7397   25.9574 C.ar    1  UNL1        0.0001
     28 C          -5.0914    3.5955   24.9825 C.ar    1  UNL1        0.0015
     29 C          -4.8038    3.4257   23.5202 C.ar    1  UNL1        0.0191
     30 C          -3.3854    3.4000   23.0327 C.ar    1  UNL1        0.0822
     31 N          -3.0979    3.2302   21.5703 N.ar    1  UNL1       -0.2342
     32 C          -1.6795    3.2045   21.0829 C.ar    1  UNL1        0.1361
     33 CL         -1.3919    3.0347   19.6206 Cl      1  UNL1       -0.0616
@<TRIPOS>UNITY_ATOM_ATTR
20 1
charge -1
@<TRIPOS>BOND
     1     1     2    1
     2     2     3   ar
     3     3     4   ar
     4     4     5   ar
     5     5    12    1
     6    12    13    1
     7    13    14    2
     8    14    15    1
     9    15    16    2
    10    16    17    1
    11    17    18    2
    12     5     6   ar
    13     6    19    1
    14    19    20   ar
    15    19    21   ar
    16     6     7   ar
    17     7    22    1
    18    22    23    1
    19    23    24   ar
    20    24    25   ar
    21    25    26   ar
    22    26    27   ar
    23    27    28   ar
    24    28    29   ar
    25    29    30   ar
    26    30    31   ar
    27    31    32   ar
    28    32    33    1
    29     7     8   ar
    30     8     9   ar
    31     9    10   ar
    32    10    11    1
    33    10     2   ar
    34     8     4   ar
    35    17    12    1
    36    32    23   ar
    37    30    25   ar
@<TRIPOS>MOLECULE
*****
 33 37 0 0 0
SMALL
GASTEIGER

@<TRIPOS>ATOM
      1 C          -4.2753    3.9861   24.0095 C.3     1  UNL1        0.0334
      2 C          -2.8513    3.5789   23.7725 C.ar    1  UNL1        0.0057
      3 C          -2.0120    3.0865   24.9139 C.ar    1  UNL1       -0.0008
      4 C          -0.5879    2.6794   24.6768 C.ar    1  UNL1        0.0139
      5 C           0.4742    2.1590   25.5995 C.ar    1  UNL1        0.0086
      6 C           1.7153    1.9227   24.7911 C.ar    1  UNL1        0.0710
      7 N           1.4204    2.2970   23.3688 N.ar    1  UNL1       -0.3221
      8 C          -0.0031    2.7646   23.2982 C.ar    1  UNL1        0.0621
      9 C          -0.8424    3.2570   22.1566 C.ar    1  UNL1        0.0465
     10 C          -2.2665    3.6642   22.3937 C.ar    1  UNL1        0.1376
     11 F          -3.1057    4.1566   21.2522 F       1  UNL1       -0.2045
     12 C           0.3218    1.9175   27.0721 C.3     1  UNL1        0.1241
     13 C          -0.4633    0.7366   27.5611 C.2     1  UNL1       -0.0115
     14 C          -0.6157    0.4951   29.0336 C.2     1  UNL1        0.0141
     15 C           0.0171    1.4344   30.0172 C.2     1  UNL1        0.0883
     16 N           0.8022    2.6152   29.5282 N.am    1  UNL1       -0.1774
     17 C           0.9546    2.8568   28.0556 C.2     1  UNL1        0.2534
     18 O           1.7397    4.0377   27.5666 O.2     1  UNL1       -0.2723
     19 C           3.0221    1.4033   25.3133 C.2     1  UNL1        0.0884
     20 O           3.1037    0.0201   25.8878 O.co2   1  UNL1       -0.5431
     21 O           4.2473    2.2671   25.2610 O.co2   1  UNL1       -0.5431
     22 C           2.3803    2.2175   22.2189 C.3     1  UNL1        0.1351
     23 C           2.6124    0.9083   21.5247 C.ar    1  UNL1        0.0289
     24 C           3.3558   -0.1905   22.2247 C.ar    1  UNL1        0.0015
     25 C           3.5878   -1.4997   21.5305 C.ar    1  UNL1        0.0175
     26 C           4.3312   -2.5984   22.2305 C.ar    1  UNL1        0.0015
     27 C           4.5632   -3.9077   21.5362 C.ar    1  UNL1        0.0001
     28 C           4.0518   -4.1182   20.1419 C.ar    1  UNL1        0.0015
     29 C           3.3084   -3.0195   19.4419 C.ar    1  UNL1        0.0191
     30 C           3.0764   -1.7103   20.1362 C.ar    1  UNL1        0.0822
     31 N           2.3329   -0.6115   19.4361 N.ar    1  UNL1       -0.2342
     32 C           2.1009    0.6978   20.1303 C.ar    1  UNL1        0.1361
     33 CL          1.3575    1.7965   19.4303 Cl      1  UNL1       -0.0616
@<TRIPOS>UNITY_ATOM_ATTR
20 1
charge -1
@<TRIPOS>BOND
     1     1     2    1
     2     2     3   ar
     3     3     4   ar
     4     4     5   ar
     5     5    12    1
     6    12    13    1
     7    13    14    2
     8    14    15    1
     9    15    16    2
    10    16    17    1
    11    17    18    2
    12     5     6   ar
    13     6    19    1
    14    19    20   ar
    15    19    21   ar
    16     6     7   ar
    17     7    22    1
    18    22    23    1
    19    23    24   ar
    20    24    25   ar
    21    25    26   ar
    22    26    27   ar
    23    27    28   ar
    24    28    29   ar
    25    29    30   ar
    26    30    31   ar
    27    31    32   ar
    28    32    33    1
    29     7     8   ar
    30     8     9   ar
    31     9    10   ar
    32    10    11    1
    33    10     2   ar
    34     8     4   ar
    35    17    12    1
    36    32    23   ar
    37    30    25   ar
@<TRIPOS>MOLECULE
*****
 33 37 0 0 0
SMALL
GASTEIGER

@<TRIPOS>ATOM
      1 C           6.6473    3.4060   16.4307 C.3     1  UNL1        0.0334
      2 C           5.7572    2.4797   17.2051 C.ar    1  UNL1        0.0057
      3 C           4.6291    3.0337   18.0238 C.ar    1  UNL1       -0.0008
      4 C           3.7390    2.1074   18.7983 C.ar    1  UNL1        0.0139
      5 C           2.5572    2.3605   19.6868 C.ar    1  UNL1        0.0086
      6 C           2.0649    1.0366   20.1916 C.ar    1  UNL1        0.0710
      7 N           2.9424   -0.0347   19.6151 N.ar    1  UNL1       -0.3221
      8 C           3.9771    0.6271   18.7540 C.ar    1  UNL1        0.0621
      9 C           5.1052    0.0730   17.9353 C.ar    1  UNL1        0.0465
     10 C           5.9954    0.9993   17.1608 C.ar    1  UNL1        0.1376
     11 F           7.1234    0.4453   16.3421 F       1  UNL1       -0.2045
     12 C           1.9707    3.7020   20.0131 C.3     1  UNL1        0.1241
     13 C           2.6339    4.5832   21.0298 C.2     1  UNL1       -0.0115
     14 C           2.0474    5.9246   21.3562 C.2     1  UNL1        0.0141
     15 C           0.7978    6.3849   20.6658 C.2     1  UNL1        0.0883
     16 N           0.1346    5.5037   19.6491 N.am    1  UNL1       -0.1774
     17 C           0.7211    4.1622   19.3228 C.2     1  UNL1        0.2534
     18 O           0.0579    3.2810   18.3060 O.2     1  UNL1       -0.2723
     19 C           0.8997    0.8217   21.1114 C.2     1  UNL1        0.0884
     20 O          -0.4822    0.6690   20.5483 O.co2   1  UNL1       -0.5431
     21 O           1.1163    0.7595   22.5944 O.co2   1  UNL1       -0.5431
     22 C           2.8088   -1.5090   19.8572 C.3     1  UNL1        0.1351
     23 C           3.6755   -2.1828   20.8794 C.ar    1  UNL1        0.0289
     24 C           3.9065   -1.5339   22.2119 C.ar    1  UNL1        0.0015
     25 C           4.7732   -2.2077   23.2340 C.ar    1  UNL1        0.0175
     26 C           5.0042   -1.5589   24.5665 C.ar    1  UNL1        0.0015
     27 C           5.8710   -2.2327   25.5886 C.ar    1  UNL1        0.0001
     28 C           6.5067   -3.5554   25.2783 C.ar    1  UNL1        0.0015
     29 C           6.2757   -4.2042   23.9458 C.ar    1  UNL1        0.0191
     30 C           5.4090   -3.5304   22.9236 C.ar    1  UNL1        0.0822
     31 N           5.1780   -4.1793   21.5911 N.ar    1  UNL1       -0.2342
     32 C           4.3113   -3.5055   20.5689 C.ar    1  UNL1        0.1361
     33 CL          4.0803   -4.1544   19.2364 Cl      1  UNL1       -0.0616
@<TRIPOS>UNITY_ATOM_ATTR
20 1
charge -1
@<TRIPOS>BOND
     1     1     2    1
     2     2     3   ar
     3     3     4   ar
     4     4     5   ar
     5     5    12    1
     6    12    13    1
     7    13    14    2
     8    14    15    1
     9    15    16    2
    10    16    17    1
    11    17    18    2
    12     5     6   ar
    13     6    19    1
    14    19    20   ar
    15    19    21   ar
    16     6     7   ar
    17     7    22    1
    18    22    23    1
    19    23    24   ar
    20    24    25   ar
    21    25    26   ar
    22    26    27   ar
    23    27    28   ar
    24    28    29   ar
    25    29    30   ar
    26    30    31   ar
    27    31    32   ar
    28    32    33    1
    29     7     8   ar
    30     8     9   ar
    31     9    10   ar
    32    10    11    1
    33    10     2   ar
    34     8     4   ar
    35    17    12    1
    36    32    23   ar
    37    30    25   ar
@<TRIPOS>MOLECULE
*****
 33 37 0 0 0
SMALL
GASTEIGER

@<TRIPOS>ATOM
      1 C           0.2730    1.3244   24.2769 C.3     1  UNL1        0.0334
      2 C           1.6632    0.7611   24.2669 C.ar    1  UNL1        0.0057
      3 C           2.3152    0.3960   22.9663 C.ar    1  UNL1       -0.0008
      4 C           3.7053   -0.1674   22.9562 C.ar    1  UNL1        0.0139
      5 C           4.5985   -0.6159   21.8377 C.ar    1  UNL1        0.0086
      6 C           5.8887   -1.0914   22.4371 C.ar    1  UNL1        0.0710
      7 N           5.7930   -0.9367   23.9260 N.ar    1  UNL1       -0.3221
      8 C           4.4435   -0.3656   24.2469 C.ar    1  UNL1        0.0621
      9 C           3.7916   -0.0006   25.5475 C.ar    1  UNL1        0.0465
     10 C           2.4014    0.5628   25.5576 C.ar    1  UNL1        0.1376
     11 F           1.7495    0.9279   26.8581 F       1  UNL1       -0.2045
     12 C           4.2607   -0.5930   20.3764 C.3     1  UNL1        0.1241
     13 C           4.3099    0.6987   19.6155 C.2     1  UNL1       -0.0115
     14 C           3.9722    0.7216   18.1542 C.2     1  UNL1        0.0141
     15 C           3.5852   -0.5472   17.4538 C.2     1  UNL1        0.0883
     16 N           3.5360   -1.8389   18.2148 N.am    1  UNL1       -0.1774
     17 C           3.8738   -1.8618   19.6761 C.2     1  UNL1        0.2534
     18 O           3.8246   -3.1535   20.4371 O.2     1  UNL1       -0.2723
     19 C           7.0677   -1.6274   21.6803 C.2     1  UNL1        0.0884
     20 O           7.0180   -3.0069   21.0934 O.co2   1  UNL1       -0.5431
     21 O           8.2964   -0.7840   21.5105 O.co2   1  UNL1       -0.5431
     22 C           6.8593   -1.2909   24.9196 C.3     1  UNL1        0.1351
     23 C           6.9702   -2.6963   25.4319 C.ar    1  UNL1        0.0289
     24 C           7.5264   -3.7744   24.5497 C.ar    1  UNL1        0.0015
     25 C           7.6373   -5.1799   25.0620 C.ar    1  UNL1        0.0175
     26 C           8.1935   -6.2580   24.1798 C.ar    1  UNL1        0.0015
     27 C           8.3043   -7.6635   24.6921 C.ar    1  UNL1        0.0001
     28 C           7.8590   -7.9908   26.0865 C.ar    1  UNL1        0.0015
     29 C           7.3028   -6.9127   26.9687 C.ar    1  UNL1        0.0191
     30 C           7.1919   -5.5072   26.4564 C.ar    1  UNL1        0.0822
     31 N           6.6357   -4.4291   27.3387 N.ar    1  UNL1       -0.2342
     32 C           6.5248   -3.0236   26.8264 C.ar    1  UNL1        0.1361
     33 CL          5.9686   -1.9455   27.7085 Cl      1  UNL1       -0.0616
@<TRIPOS>UNITY_ATOM_ATTR
20 1
charge -1
@<TRIPOS>BOND
     1     1     2    1
     2     2     3   ar
     3     3     4   ar
     4     4     5   ar
     5     5    12    1
     6    12    13    1
     7    13    14    2
     8    14    15    1
     9    15    16    2
    10    16    17    1
    11    17    18    2
    12     5     6   ar
    13     6    19    1
    14    19    20   ar
    15    19    21   ar
    16     6     7   ar
    17     7    22    1
    18    22    23    1
    19    23    24   ar
    20    24    25   ar
    21    25    26   ar
    22    26    27   ar
    23    27    28   ar
    24    28    29   ar
    25    29    30   ar
    26    30    31   ar
    27    31    32   ar
    28    32    33    1
    29     7     8   ar
    30     8     9   ar
    31     9    10   ar
    32    10    11    1
    33    10     2   ar
    34     8     4   ar
    35    17    12    1
    36    32    23   ar
    37    30    25   ar
@<TRIPOS>MOLECULE
*****
 33 37 0 0 0
SMALL
GASTEIGER

@<TRIPOS>ATOM
      1 C          -1.9927    3.6687   23.1980 C.3     1  UNL1        0.0334
      2 C          -0.7232    2.9631   23.5725 C.ar    1  UNL1        0.0057
      3 C          -0.5388    2.4400   24.9661 C.ar    1  UNL1       -0.0008
      4 C           0.7307    1.7343   25.3406 C.ar    1  UNL1        0.0139
      5 C           1.1936    1.1160   26.6266 C.ar    1  UNL1        0.0086
      6 C           2.5650    0.5513   26.4020 C.ar    1  UNL1        0.0710
      7 N           2.9497    0.8207   24.9774 N.ar    1  UNL1       -0.3221
      8 C           1.8160    1.5518   24.3214 C.ar    1  UNL1        0.0621
      9 C           1.6318    2.0749   22.9277 C.ar    1  UNL1        0.0465
     10 C           0.3622    2.7806   22.5532 C.ar    1  UNL1        0.1376
     11 F           0.1779    3.3036   21.1596 F       1  UNL1       -0.2045
     12 C           0.4208    1.0704   27.9113 C.3     1  UNL1        0.1241
     13 C          -0.7631    0.1587   28.0424 C.2     1  UNL1       -0.0115
     14 C          -1.5359    0.1131   29.3272 C.2     1  UNL1        0.0141
     15 C          -1.1248    0.9792   30.4809 C.2     1  UNL1        0.0883
     16 N           0.0591    1.8909   30.3498 N.am    1  UNL1       -0.1774
     17 C           0.8319    1.9365   29.0650 C.2     1  UNL1        0.2534
     18 O           2.0158    2.8482   28.9338 O.2     1  UNL1       -0.2723
     19 C           3.4043   -0.1581   27.4229 C.2     1  UNL1        0.0884
     20 O           4.5091    0.5741   28.1253 O.co2   1  UNL1       -0.5431
     21 O           3.1390   -1.5996   27.7414 O.co2   1  UNL1       -0.5431
     22 C           4.2412    0.4278   24.3235 C.3     1  UNL1        0.1351
     23 C           4.3082   -0.8099   23.4789 C.ar    1  UNL1        0.0289
     24 C           3.7142   -0.8111   22.1016 C.ar    1  UNL1        0.0015
     25 C           3.7812   -2.0489   21.2569 C.ar    1  UNL1        0.0175
     26 C           3.1872   -2.0500   19.8796 C.ar    1  UNL1        0.0015
     27 C           3.2542   -3.2878   19.0349 C.ar    1  UNL1        0.0001
     28 C           3.9151   -4.5244   19.5676 C.ar    1  UNL1        0.0015
     29 C           4.5091   -4.5233   20.9450 C.ar    1  UNL1        0.0191
     30 C           4.4421   -3.2855   21.7896 C.ar    1  UNL1        0.0822
     31 N           5.0362   -3.2844   23.1670 N.ar    1  UNL1       -0.2342
     32 C           4.9692   -2.0466   24.0117 C.ar    1  UNL1        0.1361
     33 CL          5.5632   -2.0455   25.3890 Cl      1  UNL1       -0.0616
@<TRIPOS>UNITY_ATOM_ATTR
20 1
charge -1
@<TRIPOS>BOND
     1     1     2    1
     2     2     3   ar
     3     3     4   ar
     4     4     5   ar
     5     5    12    1
     6    12    13    1
     7    13    14    2
     8    14    15    1
     9    15    16    2
    10    16    17    1
    11    17    18    2
    12     5     6   ar
    13     6    19    1
    14    19    20   ar
    15    19    21   ar
    16     6     7   ar
    17     7    22    1
    18    22    23    1
    19    23    24   ar
    20    24    25   ar
    21    25    26   ar
    22    26    27   ar
    23    27    28   ar
    24    28    29   ar
    25    29    30   ar
    26    30    31   ar
    27    31    32   ar
    28    32    33    1
    29     7     8   ar
    30     8     9   ar
    31     9    10   ar
    32    10    11    1
    33    10     2   ar
    34     8     4   ar
    35    17    12    1
    36    32    23   ar
    37    30    25   ar
@<TRIPOS>MOLECULE
*****
 33 37 0 0 0
SMALL
GASTEIGER

@<TRIPOS>ATOM
      1 C           7.2091    1.8061   16.2655 C.3     1  UNL1        0.0334
      2 C           6.0172    2.0953   17.1290 C.ar    1  UNL1        0.0057
      3 C           5.4106    1.0040   17.9601 C.ar    1  UNL1       -0.0008
      4 C           4.2186    1.2932   18.8236 C.ar    1  UNL1        0.0139
      5 C           3.4120    0.4259   19.7442 C.ar    1  UNL1        0.0086
      6 C           2.3281    1.2707   20.3454 C.ar    1  UNL1        0.0710
      7 N           2.4648    2.6600   19.7965 N.ar    1  UNL1       -0.3221
      8 C           3.6332    2.6738   18.8560 C.ar    1  UNL1        0.0621
      9 C           4.2398    3.7653   18.0249 C.ar    1  UNL1        0.0465
     10 C           5.4318    3.4761   17.1613 C.ar    1  UNL1        0.1376
     11 F           6.0383    4.5675   16.3302 F       1  UNL1       -0.2045
     12 C           3.6478   -1.0303   20.0158 C.3     1  UNL1        0.1241
     13 C           3.2863   -2.0543   18.9810 C.2     1  UNL1       -0.0115
     14 C           3.5221   -3.5105   19.2526 C.2     1  UNL1        0.0141
     15 C           4.1195   -3.9427   20.5589 C.2     1  UNL1        0.0883
     16 N           4.4811   -2.9187   21.5936 N.am    1  UNL1       -0.1774
     17 C           4.2452   -1.4625   21.3220 C.2     1  UNL1        0.2534
     18 O           4.6068   -0.4383   22.3568 O.2     1  UNL1       -0.2723
     19 C           1.2897    0.8075   21.3238 C.2     1  UNL1        0.0884
     20 O           0.0216    0.1772   20.8294 O.co2   1  UNL1       -0.5431
     21 O           1.5194    0.9747   22.7966 O.co2   1  UNL1       -0.5431
     22 C           1.5873    3.8299   20.1296 C.3     1  UNL1        0.1351
     23 C           0.1829    3.8874   19.6056 C.ar    1  UNL1        0.0289
     24 C          -0.9646    3.5030   20.4918 C.ar    1  UNL1        0.0015
     25 C          -2.3689    3.5604   19.9678 C.ar    1  UNL1        0.0175
     26 C          -3.5164    3.1760   20.8540 C.ar    1  UNL1        0.0015
     27 C          -4.9207    3.2334   20.3300 C.ar    1  UNL1        0.0001
     28 C          -5.1775    3.6752   18.9198 C.ar    1  UNL1        0.0015
     29 C          -4.0300    4.0596   18.0335 C.ar    1  UNL1        0.0191
     30 C          -2.6257    4.0022   18.5576 C.ar    1  UNL1        0.0822
     31 N          -1.4782    4.3865   17.6712 N.ar    1  UNL1       -0.2342
     32 C          -0.0738    4.3291   18.1952 C.ar    1  UNL1        0.1361
     33 CL          1.0737    4.7135   17.3090 Cl      1  UNL1       -0.0616
@<TRIPOS>UNITY_ATOM_ATTR
20 1
charge -1
@<TRIPOS>BOND
     1     1     2    1
     2     2     3   ar
     3     3     4   ar
     4     4     5   ar
     5     5    12    1
     6    12    13    1
     7    13    14    2
     8    14    15    1
     9    15    16    2
    10    16    17    1
    11    17    18    2
    12     5     6   ar
    13     6    19    1
    14    19    20   ar
    15    19    21   ar
    16     6     7   ar
    17     7    22    1
    18    22    23    1
    19    23    24   ar
    20    24    25   ar
    21    25    26   ar
    22    26    27   ar
    23    27    28   ar
    24    28    29   ar
    25    29    30   ar
    26    30    31   ar
    27    31    32   ar
    28    32    33    1
    29     7     8   ar
    30     8     9   ar
    31     9    10   ar
    32    10    11    1
    33    10     2   ar
    34     8     4   ar
    35    17    12    1
    36    32    23   ar
    37    30    25   ar
@<TRIPOS>MOLECULE
*****
 33 37 0 0 0
SMALL
GASTEIGER

@<TRIPOS>ATOM
      1 C          -5.8294    3.5283   19.2234 C.3     1  UNL1        0.0334
      2 C          -4.8467    3.7187   20.3405 C.ar    1  UNL1        0.0057
      3 C          -3.4513    3.1840   20.2113 C.ar    1  UNL1       -0.0008
      4 C          -2.4685    3.3744   21.3283 C.ar    1  UNL1        0.0139
      5 C          -1.0351    2.9611   21.4855 C.ar    1  UNL1        0.0086
      6 C          -0.5620    3.4311   22.8291 C.ar    1  UNL1        0.0710
      7 N          -1.7029    4.1347   23.5023 N.ar    1  UNL1       -0.3221
      8 C          -2.8812    4.0997   22.5748 C.ar    1  UNL1        0.0621
      9 C          -4.2766    4.6345   22.7041 C.ar    1  UNL1        0.0465
     10 C          -5.2594    4.4441   21.5870 C.ar    1  UNL1        0.1376
     11 F          -6.6548    4.9789   21.7163 F       1  UNL1       -0.2045
     12 C          -0.2183    2.2099   20.4763 C.3     1  UNL1        0.1241
     13 C           0.0838    0.7561   20.6884 C.2     1  UNL1       -0.0115
     14 C           0.9006    0.0048   19.6792 C.2     1  UNL1        0.0141
     15 C           1.4152    0.7075   18.4579 C.2     1  UNL1        0.0883
     16 N           1.1131    2.1613   18.2459 N.am    1  UNL1       -0.1774
     17 C           0.2963    2.9126   19.2551 C.2     1  UNL1        0.2534
     18 O          -0.0059    4.3665   19.0430 O.2     1  UNL1       -0.2723
     19 C           0.8111    3.2322   23.3994 C.2     1  UNL1        0.0884
     20 O           1.7910    4.3679   23.4088 O.co2   1  UNL1       -0.5431
     21 O           1.2043    1.8978   23.9603 O.co2   1  UNL1       -0.5431
     22 C          -1.6711    4.7631   24.8640 C.3     1  UNL1        0.1351
     23 C          -0.9240    4.0960   25.9806 C.ar    1  UNL1        0.0289
     24 C          -1.2824    2.6992   26.3935 C.ar    1  UNL1        0.0015
     25 C          -0.5352    2.0322   27.5101 C.ar    1  UNL1        0.0175
     26 C          -0.8937    0.6354   27.9230 C.ar    1  UNL1        0.0015
     27 C          -0.1465   -0.0316   29.0396 C.ar    1  UNL1        0.0001
     28 C           0.9591    0.6981   29.7433 C.ar    1  UNL1        0.0015
     29 C           1.3175    2.0948   29.3304 C.ar    1  UNL1        0.0191
     30 C           0.5703    2.7619   28.2138 C.ar    1  UNL1        0.0822
     31 N           0.9288    4.1587   27.8009 N.ar    1  UNL1       -0.2342
     32 C           0.1816    4.8258   26.6843 C.ar    1  UNL1        0.1361
     33 CL          0.5401    6.2226   26.2714 Cl      1  UNL1       -0.0616
@<TRIPOS>UNITY_ATOM_ATTR
20 1
charge -1
@<TRIPOS>BOND
     1     1     2    1
     2     2     3   ar
     3     3     4   ar
     4     4     5   ar
     5     5    12    1
     6    12    13    1
     7    13    14    2
     8    14    15    1
     9    15    16    2
    10    16    17    1
    11    17    18    2
    12     5     6   ar
    13     6    19    1
    14    19    20   ar
    15    19    21   ar
    16     6     7   ar
    17     7    22    1
    18    22    23    1
    19    23    24   ar
    20    24    25   ar
    21    25    26   ar
    22    26    27   ar
    23    27    28   ar
    24    28    29   ar
    25    29    30   ar
    26    30    31   ar
    27    31    32   ar
    28    32    33    1
    29     7     8   ar
    30     8     9   ar
    31     9    10   ar
    32    10    11    1
    33    10     2   ar
    34     8     4   ar
    35    17    12    1
    36    32    23   ar
    37    30    25   ar
