@<TRIPOS>MOLECULE
*****
 30 34 0 0 0
SMALL
GASTEIGER

@<TRIPOS>ATOM
      1 N           2.0004    1.0149   26.0183 N.ar    1  UNL1       -0.3256
      2 C           2.2046    0.5832   24.5964 C.ar    1  UNL1        0.0367
      3 C           1.0529    1.0991   23.7855 C.ar    1  UNL1        0.0109
      4 C           0.1370    1.8496   24.7063 C.ar    1  UNL1        0.0167
      5 C          -1.1545    2.5737   24.4665 C.ar    1  UNL1        0.0308
      6 C          -1.8605    3.2457   25.6066 C.ar    1  UNL1        0.1402
      7 F          -3.1521    3.9698   25.3668 F       1  UNL1       -0.2042
      8 C          -1.2749    3.1936   26.9866 C.ar    1  UNL1        0.0311
      9 C           0.0166    2.4696   27.2265 C.ar    1  UNL1        0.0195
     10 C           0.7226    1.7976   26.0863 C.ar    1  UNL1        0.0598
     11 C           0.9871    0.8189   22.3134 C.3     1  UNL1        0.1216
     12 N           2.0729    0.0227   21.6522 N.am    1  UNL1       -0.2715
     13 C           2.0069   -0.2576   20.1800 C.2     1  UNL1        0.2493
     14 O           0.8553    0.2583   19.3692 O.2     1  UNL1       -0.2699
     15 C           3.2245   -0.4932   22.4631 C.3     1  UNL1        0.1003
     16 C           3.2904   -0.2129   23.9352 C.3     1  UNL1        0.0650
     17 C           3.0928   -1.0538   19.5189 C.ar    1  UNL1        0.0536
     18 C           3.0974   -2.5499   19.6263 C.ar    1  UNL1        0.0045
     19 C           4.1833   -3.3460   18.9652 C.ar    1  UNL1        0.0001
     20 C           5.2645   -2.6460   18.1966 C.ar    1  UNL1        0.0000
     21 C           5.2600   -1.1498   18.0891 C.ar    1  UNL1        0.0001
     22 C           6.3412   -0.4497   17.3205 C.ar    1  UNL1        0.0000
     23 C           6.3366    1.0464   17.2131 C.ar    1  UNL1        0.0000
     24 C           5.2508    1.8425   17.8742 C.ar    1  UNL1        0.0000
     25 C           4.1695    1.1425   18.6428 C.ar    1  UNL1        0.0001
     26 C           4.1741   -0.3537   18.7503 C.ar    1  UNL1        0.0044
     27 C           2.9137    0.7163   27.1702 C.3     1  UNL1        0.1474
     28 O           1.8489   -0.5440   29.1771 O.co2   1  UNL1       -0.5472
     29 C           2.7321   -0.5429   27.9646 C.2     1  UNL1        0.0732
     30 O           3.4335   -1.8012   27.5466 O.co2   1  UNL1       -0.5472
@<TRIPOS>UNITY_ATOM_ATTR
28 1
charge -1
@<TRIPOS>BOND
     1    28    29   ar
     2    29    30   ar
     3    29    27    1
     4    27     1    1
     5     1     2   ar
     6     2     3   ar
     7     3     4   ar
     8     4     5   ar
     9     5     6   ar
    10     6     7    1
    11     6     8   ar
    12     8     9   ar
    13     9    10   ar
    14     3    11    1
    15    11    12    1
    16    12    13   am
    17    13    14    2
    18    13    17    1
    19    17    18   ar
    20    18    19   ar
    21    19    20   ar
    22    20    21   ar
    23    21    22   ar
    24    22    23   ar
    25    23    24   ar
    26    24    25   ar
    27    25    26   ar
    28    12    15    1
    29    15    16    1
    30    10     1   ar
    31    26    17   ar
    32    16     2    1
    33    10     4   ar
    34    26    21   ar
@<TRIPOS>MOLECULE
*****
 30 34 0 0 0
SMALL
GASTEIGER

@<TRIPOS>ATOM
      1 N           3.3344   -1.7562   19.9843 N.ar    1  UNL1       -0.3256
      2 C           2.4472   -0.5491   19.9083 C.ar    1  UNL1        0.0367
      3 C           2.3153    0.0170   21.2911 C.ar    1  UNL1        0.0109
      4 C           3.1211   -0.8402   22.2217 C.ar    1  UNL1        0.0167
      5 C           3.3626   -0.7644   23.7001 C.ar    1  UNL1        0.0308
      6 C           4.2340   -1.7845   24.3710 C.ar    1  UNL1        0.1402
      7 F           4.4755   -1.7087   25.8495 F       1  UNL1       -0.2042
      8 C           4.8638   -2.8804   23.5633 C.ar    1  UNL1        0.0311
      9 C           4.6223   -2.9562   22.0849 C.ar    1  UNL1        0.0195
     10 C           3.7509   -1.9361   21.4141 C.ar    1  UNL1        0.0598
     11 C           1.4786    1.2399   21.5241 C.3     1  UNL1        0.1216
     12 N           0.7737    1.8967   20.3744 N.am    1  UNL1       -0.2715
     13 C          -0.0630    3.1197   20.6076 C.2     1  UNL1        0.2493
     14 O          -0.1949    3.6858   21.9904 O.2     1  UNL1       -0.2699
     15 C           0.9056    1.3306   18.9916 C.3     1  UNL1        0.1003
     16 C           1.7423    0.1077   18.7586 C.3     1  UNL1        0.0650
     17 C          -0.7679    3.7764   19.4578 C.ar    1  UNL1        0.0536
     18 C           0.0263    4.4091   18.3537 C.ar    1  UNL1        0.0045
     19 C          -0.6787    5.0658   17.2040 C.ar    1  UNL1        0.0001
     20 C          -2.1777    5.0898   17.1583 C.ar    1  UNL1        0.0000
     21 C          -2.9720    4.4570   18.2624 C.ar    1  UNL1        0.0001
     22 C          -4.4711    4.4810   18.2168 C.ar    1  UNL1        0.0000
     23 C          -5.2653    3.8483   19.3208 C.ar    1  UNL1        0.0000
     24 C          -4.5603    3.1916   20.4705 C.ar    1  UNL1        0.0000
     25 C          -3.0612    3.1676   20.5162 C.ar    1  UNL1        0.0001
     26 C          -2.2671    3.8003   19.4122 C.ar    1  UNL1        0.0044
     27 C           3.7349   -2.6300   18.8327 C.3     1  UNL1        0.1474
     28 O           4.1648   -1.1478   16.7427 O.co2   1  UNL1       -0.5472
     29 C           4.6679   -2.1053   17.7821 C.2     1  UNL1        0.0732
     30 O           6.1042   -2.5379   17.7707 O.co2   1  UNL1       -0.5472
@<TRIPOS>UNITY_ATOM_ATTR
28 1
charge -1
@<TRIPOS>BOND
     1    28    29   ar
     2    29    30   ar
     3    29    27    1
     4    27     1    1
     5     1     2   ar
     6     2     3   ar
     7     3     4   ar
     8     4     5   ar
     9     5     6   ar
    10     6     7    1
    11     6     8   ar
    12     8     9   ar
    13     9    10   ar
    14     3    11    1
    15    11    12    1
    16    12    13   am
    17    13    14    2
    18    13    17    1
    19    17    18   ar
    20    18    19   ar
    21    19    20   ar
    22    20    21   ar
    23    21    22   ar
    24    22    23   ar
    25    23    24   ar
    26    24    25   ar
    27    25    26   ar
    28    12    15    1
    29    15    16    1
    30    10     1   ar
    31    26    17   ar
    32    16     2    1
    33    10     4   ar
    34    26    21   ar
@<TRIPOS>MOLECULE
*****
 30 34 0 0 0
SMALL
GASTEIGER

@<TRIPOS>ATOM
      1 N           3.5096   -1.2071   19.9575 N.ar    1  UNL1       -0.3256
      2 C           4.3331   -1.6877   21.1155 C.ar    1  UNL1        0.0367
      3 C           5.7701   -1.3698   20.8259 C.ar    1  UNL1        0.0109
      4 C           5.8348   -0.6928   19.4889 C.ar    1  UNL1        0.0167
      5 C           6.9853   -0.1549   18.6909 C.ar    1  UNL1        0.0308
      6 C           6.7387    0.4836   17.3562 C.ar    1  UNL1        0.1402
      7 F           7.8893    1.0215   16.5580 F       1  UNL1       -0.2042
      8 C           5.3416    0.5842   16.8195 C.ar    1  UNL1        0.0311
      9 C           4.1911    0.0463   17.6175 C.ar    1  UNL1        0.0195
     10 C           4.4377   -0.5922   18.9522 C.ar    1  UNL1        0.0598
     11 C           6.8341   -1.7380   21.8170 C.3     1  UNL1        0.1216
     12 N           6.4611   -2.4240   23.0977 N.am    1  UNL1       -0.2715
     13 C           7.5252   -2.7921   24.0889 C.2     1  UNL1        0.2493
     14 O           8.9622   -2.4743   23.7992 O.2     1  UNL1       -0.2699
     15 C           5.0241   -2.7418   23.3874 C.3     1  UNL1        0.1003
     16 C           3.9600   -2.3737   22.3963 C.3     1  UNL1        0.0650
     17 C           7.1521   -3.4781   25.3696 C.ar    1  UNL1        0.0536
     18 C           6.5948   -2.6820   26.5122 C.ar    1  UNL1        0.0045
     19 C           6.2217   -3.3680   27.7929 C.ar    1  UNL1        0.0001
     20 C           6.4059   -4.8503   27.9310 C.ar    1  UNL1        0.0000
     21 C           6.9632   -5.6465   26.7883 C.ar    1  UNL1        0.0001
     22 C           7.1473   -7.1287   26.9263 C.ar    1  UNL1        0.0000
     23 C           7.7046   -7.9248   25.7837 C.ar    1  UNL1        0.0000
     24 C           8.0777   -7.2388   24.5030 C.ar    1  UNL1        0.0000
     25 C           7.8935   -5.7565   24.3650 C.ar    1  UNL1        0.0001
     26 C           7.3363   -4.9604   25.5076 C.ar    1  UNL1        0.0044
     27 C           2.0196   -1.3213   19.8276 C.3     1  UNL1        0.1474
     28 O           0.8277    0.5073   18.4184 O.co2   1  UNL1       -0.5472
     29 C           1.1762   -0.0832   19.7526 C.2     1  UNL1        0.0732
     30 O           0.6811    0.5645   21.0118 O.co2   1  UNL1       -0.5472
@<TRIPOS>UNITY_ATOM_ATTR
28 1
charge -1
@<TRIPOS>BOND
     1    28    29   ar
     2    29    30   ar
     3    29    27    1
     4    27     1    1
     5     1     2   ar
     6     2     3   ar
     7     3     4   ar
     8     4     5   ar
     9     5     6   ar
    10     6     7    1
    11     6     8   ar
    12     8     9   ar
    13     9    10   ar
    14     3    11    1
    15    11    12    1
    16    12    13   am
    17    13    14    2
    18    13    17    1
    19    17    18   ar
    20    18    19   ar
    21    19    20   ar
    22    20    21   ar
    23    21    22   ar
    24    22    23   ar
    25    23    24   ar
    26    24    25   ar
    27    25    26   ar
    28    12    15    1
    29    15    16    1
    30    10     1   ar
    31    26    17   ar
    32    16     2    1
    33    10     4   ar
    34    26    21   ar
@<TRIPOS>MOLECULE
*****
 30 34 0 0 0
SMALL
GASTEIGER

@<TRIPOS>ATOM
      1 N           3.0329    0.9395   26.1447 N.ar    1  UNL1       -0.3256
      2 C           3.1571    0.8176   24.6548 C.ar    1  UNL1        0.0367
      3 C           1.8548    1.2439   24.0447 C.ar    1  UNL1        0.0109
      4 C           0.9257    1.6292   25.1575 C.ar    1  UNL1        0.0167
      5 C          -0.4892    2.1271   25.1566 C.ar    1  UNL1        0.0308
      6 C          -1.1761    2.4369   26.4536 C.ar    1  UNL1        0.1402
      7 F          -2.5911    2.9348   26.4528 F       1  UNL1       -0.2042
      8 C          -0.4479    2.2488   27.7515 C.ar    1  UNL1        0.0311
      9 C           0.9670    1.7509   27.7524 C.ar    1  UNL1        0.0195
     10 C           1.6538    1.4411   26.4554 C.ar    1  UNL1        0.0598
     11 C           1.6832    1.2261   22.5547 C.3     1  UNL1        0.1216
     12 N           2.8140    0.7820   21.6748 N.am    1  UNL1       -0.2715
     13 C           2.6423    0.7642   20.1847 C.2     1  UNL1        0.2493
     14 O           1.3400    1.1904   19.5746 O.2     1  UNL1       -0.2699
     15 C           4.1163    0.3557   22.2849 C.3     1  UNL1        0.1003
     16 C           4.2879    0.3735   23.7749 C.3     1  UNL1        0.0650
     17 C           3.7731    0.3200   19.3048 C.ar    1  UNL1        0.0536
     18 C           4.6256    1.3384   18.6077 C.ar    1  UNL1        0.0045
     19 C           5.7564    0.8942   17.7278 C.ar    1  UNL1        0.0001
     20 C           6.0346   -0.5684   17.5452 C.ar    1  UNL1        0.0000
     21 C           5.1821   -1.5868   18.2423 C.ar    1  UNL1        0.0001
     22 C           5.4603   -3.0494   18.0597 C.ar    1  UNL1        0.0000
     23 C           4.6078   -4.0678   18.7568 C.ar    1  UNL1        0.0000
     24 C           3.4770   -3.6236   19.6367 C.ar    1  UNL1        0.0000
     25 C           3.1988   -2.1610   19.8193 C.ar    1  UNL1        0.0001
     26 C           4.0513   -1.1426   19.1222 C.ar    1  UNL1        0.0044
     27 C           4.1003    0.6165   27.1478 C.3     1  UNL1        0.1474
     28 O           5.3325   -1.3541   28.3091 O.co2   1  UNL1       -0.5472
     29 C           4.0562   -0.6813   27.8985 C.2     1  UNL1        0.0732
     30 O           2.7358   -1.3064   28.2387 O.co2   1  UNL1       -0.5472
@<TRIPOS>UNITY_ATOM_ATTR
28 1
charge -1
@<TRIPOS>BOND
     1    28    29   ar
     2    29    30   ar
     3    29    27    1
     4    27     1    1
     5     1     2   ar
     6     2     3   ar
     7     3     4   ar
     8     4     5   ar
     9     5     6   ar
    10     6     7    1
    11     6     8   ar
    12     8     9   ar
    13     9    10   ar
    14     3    11    1
    15    11    12    1
    16    12    13   am
    17    13    14    2
    18    13    17    1
    19    17    18   ar
    20    18    19   ar
    21    19    20   ar
    22    20    21   ar
    23    21    22   ar
    24    22    23   ar
    25    23    24   ar
    26    24    25   ar
    27    25    26   ar
    28    12    15    1
    29    15    16    1
    30    10     1   ar
    31    26    17   ar
    32    16     2    1
    33    10     4   ar
    34    26    21   ar
@<TRIPOS>MOLECULE
*****
 30 34 0 0 0
SMALL
GASTEIGER

@<TRIPOS>ATOM
      1 N           7.1242   -2.3281   26.0855 N.ar    1  UNL1       -0.3256
      2 C           6.7833   -2.2981   24.6251 C.ar    1  UNL1        0.0367
      3 C           6.6869   -3.7150   24.1425 C.ar    1  UNL1        0.0109
      4 C           6.9681   -4.6208   25.3046 C.ar    1  UNL1        0.0167
      5 C           7.0130   -6.1152   25.4245 C.ar    1  UNL1        0.0308
      6 C           7.3282   -6.7525   26.7453 C.ar    1  UNL1        0.1402
      7 F           7.3731   -8.2471   26.8652 F       1  UNL1       -0.2042
      8 C           7.5985   -5.8953   27.9461 C.ar    1  UNL1        0.0311
      9 C           7.5536   -4.4008   27.8263 C.ar    1  UNL1        0.0195
     10 C           7.2384   -3.7635   26.5055 C.ar    1  UNL1        0.0598
     11 C           6.3554   -3.9975   22.7071 C.3     1  UNL1        0.1216
     12 N           6.1204   -2.8630   21.7543 N.am    1  UNL1       -0.2715
     13 C           5.7888   -3.1456   20.3189 C.2     1  UNL1        0.2493
     14 O           5.6924   -4.5625   19.8363 O.2     1  UNL1       -0.2699
     15 C           6.2168   -1.4461   22.2369 C.3     1  UNL1        0.1003
     16 C           6.5483   -1.1636   23.6723 C.3     1  UNL1        0.0650
     17 C           5.5539   -2.0110   19.3662 C.ar    1  UNL1        0.0536
     18 C           6.6527   -1.5615   18.4494 C.ar    1  UNL1        0.0045
     19 C           6.4176   -0.4270   17.4967 C.ar    1  UNL1        0.0001
     20 C           5.0837    0.2581   17.4609 C.ar    1  UNL1        0.0000
     21 C           3.9848   -0.1914   18.3777 C.ar    1  UNL1        0.0001
     22 C           2.6508    0.4937   18.3419 C.ar    1  UNL1        0.0000
     23 C           1.5520    0.0443   19.2587 C.ar    1  UNL1        0.0000
     24 C           1.7871   -1.0903   20.2114 C.ar    1  UNL1        0.0000
     25 C           3.1210   -1.7754   20.2472 C.ar    1  UNL1        0.0001
     26 C           4.2198   -1.3259   19.3304 C.ar    1  UNL1        0.0044
     27 C           7.3170   -1.1325   26.9706 C.3     1  UNL1        0.1474
     28 O           6.5263    0.3243   28.9712 O.co2   1  UNL1       -0.5472
     29 C           6.2625   -0.7618   27.9708 C.2     1  UNL1        0.0732
     30 O           4.9441   -1.4772   27.9707 O.co2   1  UNL1       -0.5472
@<TRIPOS>UNITY_ATOM_ATTR
28 1
charge -1
@<TRIPOS>BOND
     1    28    29   ar
     2    29    30   ar
     3    29    27    1
     4    27     1    1
     5     1     2   ar
     6     2     3   ar
     7     3     4   ar
     8     4     5   ar
     9     5     6   ar
    10     6     7    1
    11     6     8   ar
    12     8     9   ar
    13     9    10   ar
    14     3    11    1
    15    11    12    1
    16    12    13   am
    17    13    14    2
    18    13    17    1
    19    17    18   ar
    20    18    19   ar
    21    19    20   ar
    22    20    21   ar
    23    21    22   ar
    24    22    23   ar
    25    23    24   ar
    26    24    25   ar
    27    25    26   ar
    28    12    15    1
    29    15    16    1
    30    10     1   ar
    31    26    17   ar
    32    16     2    1
    33    10     4   ar
    34    26    21   ar
@<TRIPOS>MOLECULE
*****
 30 34 0 0 0
SMALL
GASTEIGER

@<TRIPOS>ATOM
      1 N           2.2610    0.9219   26.0025 N.ar    1  UNL1       -0.3256
      2 C           2.8955   -0.0483   25.0506 C.ar    1  UNL1        0.0367
      3 C           3.8246   -0.9267   25.8350 C.ar    1  UNL1        0.0109
      4 C           3.7643   -0.4994   27.2716 C.ar    1  UNL1        0.0167
      5 C           4.4644   -1.0030   28.4988 C.ar    1  UNL1        0.0308
      6 C           4.1982   -0.3641   29.8295 C.ar    1  UNL1        0.1402
      7 F           4.8984   -0.8677   31.0568 F       1  UNL1       -0.2042
      8 C           3.2319    0.7785   29.9330 C.ar    1  UNL1        0.0311
      9 C           2.5317    1.2821   28.7058 C.ar    1  UNL1        0.0195
     10 C           2.7979    0.6432   27.3751 C.ar    1  UNL1        0.0598
     11 C           4.6055   -2.0022   25.1397 C.3     1  UNL1        0.1216
     12 N           4.4573   -2.1994   23.6601 N.am    1  UNL1       -0.2715
     13 C           5.2382   -3.2750   22.9649 C.2     1  UNL1        0.2493
     14 O           6.1673   -4.1534   23.7492 O.2     1  UNL1       -0.2699
     15 C           3.5282   -1.3210   22.8758 C.3     1  UNL1        0.1003
     16 C           2.7473   -0.2454   23.5710 C.3     1  UNL1        0.0650
     17 C           5.0900   -3.4720   21.4853 C.ar    1  UNL1        0.0536
     18 C           4.0525   -4.4164   20.9545 C.ar    1  UNL1        0.0045
     19 C           3.9043   -4.6134   19.4749 C.ar    1  UNL1        0.0001
     20 C           4.7936   -3.8660   18.5260 C.ar    1  UNL1        0.0000
     21 C           5.8312   -2.9215   19.0567 C.ar    1  UNL1        0.0001
     22 C           6.7206   -2.1741   18.1078 C.ar    1  UNL1        0.0000
     23 C           7.7581   -1.2297   18.6385 C.ar    1  UNL1        0.0000
     24 C           7.9062   -1.0327   20.1182 C.ar    1  UNL1        0.0000
     25 C           7.0169   -1.7801   21.0671 C.ar    1  UNL1        0.0001
     26 C           5.9794   -2.7245   20.5363 C.ar    1  UNL1        0.0044
     27 C           1.2645    1.9844   25.6446 C.3     1  UNL1        0.1474
     28 O          -1.2357    2.4939   25.1553 O.co2   1  UNL1       -0.5472
     29 C          -0.1878    1.7891   25.9648 C.2     1  UNL1        0.0732
     30 O          -0.5924    0.8890   27.0944 O.co2   1  UNL1       -0.5472
@<TRIPOS>UNITY_ATOM_ATTR
28 1
charge -1
@<TRIPOS>BOND
     1    28    29   ar
     2    29    30   ar
     3    29    27    1
     4    27     1    1
     5     1     2   ar
     6     2     3   ar
     7     3     4   ar
     8     4     5   ar
     9     5     6   ar
    10     6     7    1
    11     6     8   ar
    12     8     9   ar
    13     9    10   ar
    14     3    11    1
    15    11    12    1
    16    12    13   am
    17    13    14    2
    18    13    17    1
    19    17    18   ar
    20    18    19   ar
    21    19    20   ar
    22    20    21   ar
    23    21    22   ar
    24    22    23   ar
    25    23    24   ar
    26    24    25   ar
    27    25    26   ar
    28    12    15    1
    29    15    16    1
    30    10     1   ar
    31    26    17   ar
    32    16     2    1
    33    10     4   ar
    34    26    21   ar
@<TRIPOS>MOLECULE
*****
 30 34 0 0 0
SMALL
GASTEIGER

@<TRIPOS>ATOM
      1 N           6.6013   -2.7186   25.8060 N.ar    1  UNL1       -0.3256
      2 C           5.8845   -2.4009   24.5273 C.ar    1  UNL1        0.0367
      3 C           6.1569   -3.5104   23.5553 C.ar    1  UNL1        0.0109
      4 C           7.0421   -4.5138   24.2333 C.ar    1  UNL1        0.0167
      5 C           7.6335   -5.8099   23.7637 C.ar    1  UNL1        0.0308
      6 C           8.4995   -6.6165   24.6852 C.ar    1  UNL1        0.1402
      7 F           9.0909   -7.9126   24.2157 F       1  UNL1       -0.2042
      8 C           8.7742   -6.1271   26.0763 C.ar    1  UNL1        0.0311
      9 C           8.1828   -4.8311   26.5459 C.ar    1  UNL1        0.0195
     10 C           7.3167   -4.0244   25.6244 C.ar    1  UNL1        0.0598
     11 C           5.5637   -3.4637   22.1784 C.3     1  UNL1        0.1216
     12 N           4.6981   -2.3075   21.7734 N.am    1  UNL1       -0.2715
     13 C           4.1050   -2.2608   20.3964 C.2     1  UNL1        0.2493
     14 O           4.3774   -3.3703   19.4244 O.2     1  UNL1       -0.2699
     15 C           4.4257   -1.1980   22.7454 C.3     1  UNL1        0.1003
     16 C           5.0189   -1.2447   24.1223 C.3     1  UNL1        0.0650
     17 C           3.2394   -1.1046   19.9916 C.ar    1  UNL1        0.0536
     18 C           1.7625   -1.1464   20.2504 C.ar    1  UNL1        0.0045
     19 C           0.8970    0.0099   19.8455 C.ar    1  UNL1        0.0001
     20 C           1.5084    1.2080   19.1818 C.ar    1  UNL1        0.0000
     21 C           2.9854    1.2500   18.9230 C.ar    1  UNL1        0.0001
     22 C           3.5968    2.4481   18.2593 C.ar    1  UNL1        0.0000
     23 C           5.0737    2.4900   18.0004 C.ar    1  UNL1        0.0000
     24 C           5.9392    1.3337   18.4053 C.ar    1  UNL1        0.0000
     25 C           5.3278    0.1355   19.0690 C.ar    1  UNL1        0.0001
     26 C           3.8509    0.0937   19.3278 C.ar    1  UNL1        0.0044
     27 C           6.6025   -1.8781   27.0484 C.3     1  UNL1        0.1474
     28 O           4.1850   -1.8625   27.9999 O.co2   1  UNL1       -0.5472
     29 C           5.6421   -2.1811   28.1599 C.2     1  UNL1        0.0732
     30 O           6.1386   -2.8027   29.4316 O.co2   1  UNL1       -0.5472
@<TRIPOS>UNITY_ATOM_ATTR
28 1
charge -1
@<TRIPOS>BOND
     1    28    29   ar
     2    29    30   ar
     3    29    27    1
     4    27     1    1
     5     1     2   ar
     6     2     3   ar
     7     3     4   ar
     8     4     5   ar
     9     5     6   ar
    10     6     7    1
    11     6     8   ar
    12     8     9   ar
    13     9    10   ar
    14     3    11    1
    15    11    12    1
    16    12    13   am
    17    13    14    2
    18    13    17    1
    19    17    18   ar
    20    18    19   ar
    21    19    20   ar
    22    20    21   ar
    23    21    22   ar
    24    22    23   ar
    25    23    24   ar
    26    24    25   ar
    27    25    26   ar
    28    12    15    1
    29    15    16    1
    30    10     1   ar
    31    26    17   ar
    32    16     2    1
    33    10     4   ar
    34    26    21   ar
@<TRIPOS>MOLECULE
*****
 30 34 0 0 0
SMALL
GASTEIGER

@<TRIPOS>ATOM
      1 N           2.6256    0.3856   21.2389 N.ar    1  UNL1       -0.3256
      2 C           2.8305    0.4021   22.7247 C.ar    1  UNL1        0.0367
      3 C           3.4769   -0.8931   23.1178 C.ar    1  UNL1        0.0109
      4 C           3.6714   -1.7101   21.8749 C.ar    1  UNL1        0.0167
      5 C           4.2597   -3.0716   21.6506 C.ar    1  UNL1        0.0308
      6 C           4.3218   -3.6427   20.2650 C.ar    1  UNL1        0.1402
      7 F           4.9101   -5.0042   20.0406 F       1  UNL1       -0.2042
      8 C           3.7957   -2.8523   19.1037 C.ar    1  UNL1        0.0311
      9 C           3.2074   -1.4909   19.3281 C.ar    1  UNL1        0.0195
     10 C           3.1453   -0.9198   20.7137 C.ar    1  UNL1        0.0598
     11 C           3.8048   -1.1613   24.5567 C.3     1  UNL1        0.1216
     12 N           3.4863   -0.1342   25.6025 N.am    1  UNL1       -0.2715
     13 C           3.8143   -0.4025   27.0415 C.2     1  UNL1        0.2493
     14 O           4.4606   -1.6977   27.4346 O.2     1  UNL1       -0.2699
     15 C           2.8399    1.1610   25.2095 C.3     1  UNL1        0.1003
     16 C           2.5120    1.4292   23.7705 C.3     1  UNL1        0.0650
     17 C           3.4958    0.6247   28.0873 C.ar    1  UNL1        0.0536
     18 C           4.5564    1.5801   28.5478 C.ar    1  UNL1        0.0045
     19 C           4.2379    2.6072   29.5936 C.ar    1  UNL1        0.0001
     20 C           2.8586    2.6789   30.1788 C.ar    1  UNL1        0.0000
     21 C           1.7979    1.7234   29.7183 C.ar    1  UNL1        0.0001
     22 C           0.4186    1.7950   30.3035 C.ar    1  UNL1        0.0000
     23 C          -0.6421    0.8396   29.8430 C.ar    1  UNL1        0.0000
     24 C          -0.3235   -0.1875   28.7972 C.ar    1  UNL1        0.0000
     25 C           1.0558   -0.2592   28.2120 C.ar    1  UNL1        0.0001
     26 C           2.1164    0.6963   28.6725 C.ar    1  UNL1        0.0044
     27 C           2.0091    1.4821   20.4216 C.3     1  UNL1        0.1474
     28 O           0.6432    0.9648   18.2730 O.co2   1  UNL1       -0.5472
     29 C           0.6900    1.2606   19.7429 C.2     1  UNL1        0.0732
     30 O          -0.5823    1.3350   20.5338 O.co2   1  UNL1       -0.5472
@<TRIPOS>UNITY_ATOM_ATTR
28 1
charge -1
@<TRIPOS>BOND
     1    28    29   ar
     2    29    30   ar
     3    29    27    1
     4    27     1    1
     5     1     2   ar
     6     2     3   ar
     7     3     4   ar
     8     4     5   ar
     9     5     6   ar
    10     6     7    1
    11     6     8   ar
    12     8     9   ar
    13     9    10   ar
    14     3    11    1
    15    11    12    1
    16    12    13   am
    17    13    14    2
    18    13    17    1
    19    17    18   ar
    20    18    19   ar
    21    19    20   ar
    22    20    21   ar
    23    21    22   ar
    24    22    23   ar
    25    23    24   ar
    26    24    25   ar
    27    25    26   ar
    28    12    15    1
    29    15    16    1
    30    10     1   ar
    31    26    17   ar
    32    16     2    1
    33    10     4   ar
    34    26    21   ar
@<TRIPOS>MOLECULE
*****
 30 34 0 0 0
SMALL
GASTEIGER

@<TRIPOS>ATOM
      1 N           6.0813   -1.3875   27.5873 N.ar    1  UNL1       -0.3256
      2 C           6.4207   -1.8781   26.2110 C.ar    1  UNL1        0.0367
      3 C           6.8765   -3.3025   26.3261 C.ar    1  UNL1        0.0109
      4 C           6.8187   -3.6923   27.7734 C.ar    1  UNL1        0.0167
      5 C           7.1500   -4.9720   28.4823 C.ar    1  UNL1        0.0308
      6 C           6.9899   -5.0681   29.9706 C.ar    1  UNL1        0.1402
      7 F           7.3213   -6.3478   30.6795 F       1  UNL1       -0.2042
      8 C           6.4984   -3.8845   30.7500 C.ar    1  UNL1        0.0311
      9 C           6.1671   -2.6048   30.0412 C.ar    1  UNL1        0.0195
     10 C           6.3272   -2.5087   28.5529 C.ar    1  UNL1        0.0598
     11 C           7.2853   -4.0607   25.0981 C.3     1  UNL1        0.1216
     12 N           7.2383   -3.3944   23.7550 N.am    1  UNL1       -0.2715
     13 C           7.6471   -4.1527   22.5269 C.2     1  UNL1        0.2493
     14 O           8.1029   -5.5771   22.6420 O.2     1  UNL1       -0.2699
     15 C           6.7826   -1.9700   23.6399 C.3     1  UNL1        0.1003
     16 C           6.3738   -1.2118   24.8679 C.3     1  UNL1        0.0650
     17 C           7.6001   -3.4863   21.1839 C.ar    1  UNL1        0.0536
     18 C           8.8332   -2.8430   20.6221 C.ar    1  UNL1        0.0045
     19 C           8.7861   -2.1766   19.2791 C.ar    1  UNL1        0.0001
     20 C           7.5059   -2.1536   18.4977 C.ar    1  UNL1        0.0000
     21 C           6.2727   -2.7970   19.0594 C.ar    1  UNL1        0.0001
     22 C           4.9925   -2.7740   18.2781 C.ar    1  UNL1        0.0000
     23 C           3.7594   -3.4173   18.8398 C.ar    1  UNL1        0.0000
     24 C           3.8065   -4.0837   20.1829 C.ar    1  UNL1        0.0000
     25 C           5.0867   -4.1067   20.9642 C.ar    1  UNL1        0.0001
     26 C           6.3198   -3.4633   20.4025 C.ar    1  UNL1        0.0044
     27 C           5.5833   -0.0164   27.9366 C.3     1  UNL1        0.1474
     28 O           3.8239    0.9222   26.2711 O.co2   1  UNL1       -0.5472
     29 C           4.1684    0.3703   27.6227 C.2     1  UNL1        0.0732
     30 O           3.0979    0.2050   28.6604 O.co2   1  UNL1       -0.5472
@<TRIPOS>UNITY_ATOM_ATTR
28 1
charge -1
@<TRIPOS>BOND
     1    28    29   ar
     2    29    30   ar
     3    29    27    1
     4    27     1    1
     5     1     2   ar
     6     2     3   ar
     7     3     4   ar
     8     4     5   ar
     9     5     6   ar
    10     6     7    1
    11     6     8   ar
    12     8     9   ar
    13     9    10   ar
    14     3    11    1
    15    11    12    1
    16    12    13   am
    17    13    14    2
    18    13    17    1
    19    17    18   ar
    20    18    19   ar
    21    19    20   ar
    22    20    21   ar
    23    21    22   ar
    24    22    23   ar
    25    23    24   ar
    26    24    25   ar
    27    25    26   ar
    28    12    15    1
    29    15    16    1
    30    10     1   ar
    31    26    17   ar
    32    16     2    1
    33    10     4   ar
    34    26    21   ar
