@<TRIPOS>MOLECULE
*****
 28 31 0 0 0
SMALL
GASTEIGER

@<TRIPOS>ATOM
      1 C          -1.2222    4.0345   17.7971 C.3     1  UNL1        0.1168
      2 N          -0.9829    3.6803   19.2350 N.am    1  UNL1       -0.2582
      3 C          -2.1455    3.4331   20.1500 C.2     1  UNL1        0.3075
      4 O          -1.9063    3.0789   21.5877 O.2     1  UNL1       -0.2523
      5 N          -3.5474    3.5402   19.6271 N.am    1  UNL1       -0.2643
      6 C          -3.9401    3.8840   18.2209 C.3     1  UNL1        0.0950
      7 C          -5.4381    3.8785   18.1435 C.3     1  UNL1        0.0233
      8 C          -5.9712    3.5313   19.5019 C.3     1  UNL1        0.0230
      9 C          -4.8027    3.3222   20.4189 C.3     1  UNL1        0.0928
     10 C           0.4189    3.5733   19.7577 C.3     1  UNL1        0.1217
     11 C           1.1933    2.3019   19.5730 C.ar    1  UNL1       -0.0023
     12 C           0.7769    1.0577   20.3001 C.ar    1  UNL1       -0.0026
     13 C           1.5512   -0.2136   20.1154 C.ar    1  UNL1       -0.0003
     14 C           2.7419   -0.2407   19.2035 C.ar    1  UNL1       -0.0000
     15 C           3.1583    1.0034   18.4764 C.ar    1  UNL1       -0.0003
     16 C           2.3840    2.2747   18.6612 C.ar    1  UNL1       -0.0026
     17 C           3.5162   -1.5121   19.0188 C.ar    1  UNL1       -0.0000
     18 C           2.9946   -2.7976   19.5894 C.ar    1  UNL1       -0.0000
     19 C           3.7690   -4.0690   19.4047 C.ar    1  UNL1        0.0000
     20 C           5.0649   -4.0549   18.6494 C.ar    1  UNL1        0.0000
     21 C           5.5865   -2.7693   18.0789 C.ar    1  UNL1        0.0000
     22 C           4.8121   -1.4980   18.2636 C.ar    1  UNL1       -0.0000
     23 C          -4.8765    2.9589   21.8724 C.3     1  UNL1        0.0922
     24 N          -5.6441    3.8274   22.8244 N.3     1  UNL1       -0.2713
     25 C          -7.0897    4.2080   22.7007 C.3     1  UNL1        0.0722
     26 C          -7.4400    5.0836   23.8672 C.3     1  UNL1        0.0188
     27 C          -6.2109    5.2441   24.7119 C.3     1  UNL1        0.0188
     28 C          -5.1010    4.4677   24.0674 C.3     1  UNL1        0.0722
@<TRIPOS>BOND
     1     1     2    1
     2     2    10    1
     3    10    11    1
     4    11    12   ar
     5    12    13   ar
     6    13    14   ar
     7    14    17    1
     8    17    18   ar
     9    18    19   ar
    10    19    20   ar
    11    20    21   ar
    12    21    22   ar
    13    14    15   ar
    14    15    16   ar
    15     2     3   am
    16     3     4    2
    17     3     5   am
    18     5     6    1
    19     6     7    1
    20     7     8    1
    21     8     9    1
    22     9    23    1
    23    23    24    1
    24    24    25    1
    25    25    26    1
    26    26    27    1
    27    27    28    1
    28    16    11   ar
    29     9     5    1
    30    28    24    1
    31    22    17   ar
@<TRIPOS>MOLECULE
*****
 28 31 0 0 0
SMALL
GASTEIGER

@<TRIPOS>ATOM
      1 C         -10.3726  -19.4565   19.1385 C.3     1  UNL1        0.1168
      2 N          -9.4497  -19.7490   20.2844 N.am    1  UNL1       -0.2582
      3 C          -9.6546  -19.0680   21.6051 C.2     1  UNL1        0.3075
      4 O          -8.7318  -19.3605   22.7508 O.2     1  UNL1       -0.2523
      5 N         -10.7824  -18.0946   21.7800 N.am    1  UNL1       -0.2643
      6 C         -11.7806  -17.7039   20.7307 C.3     1  UNL1        0.0950
      7 C         -12.7251  -16.7087   21.3371 C.3     1  UNL1        0.0233
      8 C         -12.3106  -16.4844   22.7612 C.3     1  UNL1        0.0230
      9 C         -11.1099  -17.3410   23.0349 C.3     1  UNL1        0.0928
     10 C          -8.3220  -20.7225   20.1094 C.3     1  UNL1        0.1217
     11 C          -6.9048  -20.2317   20.0835 C.ar    1  UNL1       -0.0023
     12 C          -5.7707  -21.2132   20.1043 C.ar    1  UNL1       -0.0026
     13 C          -4.3535  -20.7223   20.0784 C.ar    1  UNL1       -0.0003
     14 C          -4.0704  -19.2500   20.0318 C.ar    1  UNL1       -0.0000
     15 C          -5.2045  -18.2685   20.0111 C.ar    1  UNL1       -0.0003
     16 C          -6.6217  -18.7593   20.0369 C.ar    1  UNL1       -0.0026
     17 C          -2.6532  -18.7592   20.0059 C.ar    1  UNL1       -0.0000
     18 C          -1.8417  -18.7439   21.2673 C.ar    1  UNL1       -0.0000
     19 C          -0.4244  -18.2531   21.2414 C.ar    1  UNL1        0.0000
     20 C           0.1812  -17.7777   19.9541 C.ar    1  UNL1        0.0000
     21 C          -0.6304  -17.7930   18.6927 C.ar    1  UNL1        0.0000
     22 C          -2.0475  -18.2838   18.7186 C.ar    1  UNL1       -0.0000
     23 C         -10.3672  -17.4284   24.3352 C.3     1  UNL1        0.0922
     24 N          -9.1436  -16.5899   24.5578 N.3     1  UNL1       -0.2713
     25 C          -8.5188  -16.2769   25.8851 C.3     1  UNL1        0.0722
     26 C          -7.3189  -15.4108   25.6398 C.3     1  UNL1        0.0188
     27 C          -7.2021  -15.1884   24.1610 C.3     1  UNL1        0.0188
     28 C          -8.3299  -15.9173   23.4923 C.3     1  UNL1        0.0722
@<TRIPOS>BOND
     1     1     2    1
     2     2    10    1
     3    10    11    1
     4    11    12   ar
     5    12    13   ar
     6    13    14   ar
     7    14    17    1
     8    17    18   ar
     9    18    19   ar
    10    19    20   ar
    11    20    21   ar
    12    21    22   ar
    13    14    15   ar
    14    15    16   ar
    15     2     3   am
    16     3     4    2
    17     3     5   am
    18     5     6    1
    19     6     7    1
    20     7     8    1
    21     8     9    1
    22     9    23    1
    23    23    24    1
    24    24    25    1
    25    25    26    1
    26    26    27    1
    27    27    28    1
    28    16    11   ar
    29     9     5    1
    30    28    24    1
    31    22    17   ar
@<TRIPOS>MOLECULE
*****
 28 31 0 0 0
SMALL
GASTEIGER

@<TRIPOS>ATOM
      1 C           0.3547    3.6940   22.2634 C.3     1  UNL1        0.1168
      2 N          -0.6659    3.2674   21.2502 N.am    1  UNL1       -0.2582
      3 C          -2.1181    3.2195   21.6228 C.2     1  UNL1        0.3075
      4 O          -3.1386    2.7930   20.6096 O.2     1  UNL1       -0.2523
      5 N          -2.5497    3.5981   23.0086 N.am    1  UNL1       -0.2643
      6 C          -1.6484    4.0422   24.1223 C.3     1  UNL1        0.0950
      7 C          -2.5001    4.3176   25.3260 C.3     1  UNL1        0.0233
      8 C          -3.9278    4.0436   24.9562 C.3     1  UNL1        0.0230
      9 C          -3.9584    3.5989   23.5239 C.3     1  UNL1        0.0928
     10 C          -0.2343    2.8889   19.8644 C.3     1  UNL1        0.1217
     11 C           0.6937    1.7285   19.6586 C.ar    1  UNL1       -0.0023
     12 C           1.8639    1.8595   18.7295 C.ar    1  UNL1       -0.0026
     13 C           2.7919    0.6991   18.5237 C.ar    1  UNL1       -0.0003
     14 C           2.5496   -0.5924   19.2471 C.ar    1  UNL1       -0.0000
     15 C           1.3793   -0.7235   20.1762 C.ar    1  UNL1       -0.0003
     16 C           0.4514    0.4369   20.3820 C.ar    1  UNL1       -0.0026
     17 C           3.4775   -1.7528   19.0413 C.ar    1  UNL1       -0.0000
     18 C           3.0646   -3.1289   19.4722 C.ar    1  UNL1       -0.0000
     19 C           3.9926   -4.2894   19.2664 C.ar    1  UNL1        0.0000
     20 C           5.3335   -4.0736   18.6297 C.ar    1  UNL1        0.0000
     21 C           5.7464   -2.6974   18.1987 C.ar    1  UNL1        0.0000
     22 C           4.8184   -1.5371   18.4045 C.ar    1  UNL1       -0.0000
     23 C          -5.1828    3.2214   22.7439 C.3     1  UNL1        0.0922
     24 N          -6.0234    4.2870   22.1054 N.3     1  UNL1       -0.2713
     25 C          -6.4259    4.3455   20.6616 C.3     1  UNL1        0.0722
     26 C          -7.2603    5.5760   20.4624 C.3     1  UNL1        0.0188
     27 C          -7.3737    6.2780   21.7831 C.3     1  UNL1        0.0188
     28 C          -6.6092    5.4813   22.7986 C.3     1  UNL1        0.0722
@<TRIPOS>BOND
     1     1     2    1
     2     2    10    1
     3    10    11    1
     4    11    12   ar
     5    12    13   ar
     6    13    14   ar
     7    14    17    1
     8    17    18   ar
     9    18    19   ar
    10    19    20   ar
    11    20    21   ar
    12    21    22   ar
    13    14    15   ar
    14    15    16   ar
    15     2     3   am
    16     3     4    2
    17     3     5   am
    18     5     6    1
    19     6     7    1
    20     7     8    1
    21     8     9    1
    22     9    23    1
    23    23    24    1
    24    24    25    1
    25    25    26    1
    26    26    27    1
    27    27    28    1
    28    16    11   ar
    29     9     5    1
    30    28    24    1
    31    22    17   ar
@<TRIPOS>MOLECULE
*****
 28 31 0 0 0
SMALL
GASTEIGER

@<TRIPOS>ATOM
      1 C          -2.9941    3.2144   20.2869 C.3     1  UNL1        0.1168
      2 N          -1.5926    3.4656   20.7589 N.am    1  UNL1       -0.2582
      3 C          -1.3148    3.6450   22.2220 C.2     1  UNL1        0.3075
      4 O           0.0867    3.8963   22.6940 O.2     1  UNL1       -0.2523
      5 N          -2.4384    3.5731   23.2131 N.am    1  UNL1       -0.2643
      6 C          -3.8833    3.3297   22.8918 C.3     1  UNL1        0.0950
      7 C          -4.6523    3.3382   24.1797 C.3     1  UNL1        0.0233
      8 C          -3.6827    3.5868   25.2969 C.3     1  UNL1        0.0230
      9 C          -2.3144    3.7320   24.6995 C.3     1  UNL1        0.0928
     10 C          -0.4690    3.5375   19.7678 C.3     1  UNL1        0.1217
     11 C           0.4480    2.3642   19.5872 C.ar    1  UNL1       -0.0023
     12 C           1.7021    2.5102   18.7773 C.ar    1  UNL1       -0.0026
     13 C           2.6190    1.3370   18.5968 C.ar    1  UNL1       -0.0003
     14 C           2.2819    0.0178   19.2261 C.ar    1  UNL1       -0.0000
     15 C           1.0279   -0.1282   20.0359 C.ar    1  UNL1       -0.0003
     16 C           0.1109    1.0450   20.2165 C.ar    1  UNL1       -0.0026
     17 C           3.1990   -1.1555   19.0455 C.ar    1  UNL1       -0.0000
     18 C           3.0070   -2.3918   19.8729 C.ar    1  UNL1       -0.0000
     19 C           3.9240   -3.5651   19.6923 C.ar    1  UNL1        0.0000
     20 C           5.0330   -3.5020   18.6842 C.ar    1  UNL1        0.0000
     21 C           5.2250   -2.2656   17.8568 C.ar    1  UNL1        0.0000
     22 C           4.3080   -1.0924   18.0374 C.ar    1  UNL1       -0.0000
     23 C          -1.0451    3.9907   25.4558 C.3     1  UNL1        0.0922
     24 N          -0.5886    3.0238   26.5078 N.3     1  UNL1       -0.2713
     25 C          -0.0514    3.3826   27.8616 C.3     1  UNL1        0.0722
     26 C           0.2800    2.1089   28.5812 C.3     1  UNL1        0.0188
     27 C          -0.0523    0.9629   27.6722 C.3     1  UNL1        0.0188
     28 C          -0.5892    1.5284   26.3908 C.3     1  UNL1        0.0722
@<TRIPOS>BOND
     1     1     2    1
     2     2    10    1
     3    10    11    1
     4    11    12   ar
     5    12    13   ar
     6    13    14   ar
     7    14    17    1
     8    17    18   ar
     9    18    19   ar
    10    19    20   ar
    11    20    21   ar
    12    21    22   ar
    13    14    15   ar
    14    15    16   ar
    15     2     3   am
    16     3     4    2
    17     3     5   am
    18     5     6    1
    19     6     7    1
    20     7     8    1
    21     8     9    1
    22     9    23    1
    23    23    24    1
    24    24    25    1
    25    25    26    1
    26    26    27    1
    27    27    28    1
    28    16    11   ar
    29     9     5    1
    30    28    24    1
    31    22    17   ar
@<TRIPOS>MOLECULE
*****
 28 31 0 0 0
SMALL
GASTEIGER

@<TRIPOS>ATOM
      1 C          -8.4668  -16.7462   26.3625 C.3     1  UNL1        0.1168
      2 N          -7.8634  -16.3129   25.0593 N.am    1  UNL1       -0.2582
      3 C          -8.5427  -16.6573   23.7670 C.2     1  UNL1        0.3075
      4 O          -7.9394  -16.2240   22.4639 O.2     1  UNL1       -0.2523
      5 N          -9.8254  -17.4349   23.7779 N.am    1  UNL1       -0.2643
      6 C         -10.5438  -17.9335   24.9966 C.3     1  UNL1        0.0950
      7 C         -11.7773  -18.6572   24.5440 C.3     1  UNL1        0.0233
      8 C         -11.8212  -18.6058   23.0454 C.3     1  UNL1        0.0230
      9 C         -10.6148  -17.8504   22.5720 C.3     1  UNL1        0.0928
     10 C          -6.5808  -15.5353   25.0484 C.3     1  UNL1        0.1217
     11 C          -5.4494  -15.9670   24.1630 C.ar    1  UNL1       -0.0023
     12 C          -4.7200  -14.9545   23.3307 C.ar    1  UNL1       -0.0026
     13 C          -3.5888  -15.3862   22.4454 C.ar    1  UNL1       -0.0003
     14 C          -3.1870  -16.8304   22.3923 C.ar    1  UNL1       -0.0000
     15 C          -3.9164  -17.8429   23.2245 C.ar    1  UNL1       -0.0003
     16 C          -5.0477  -17.4112   24.1099 C.ar    1  UNL1       -0.0026
     17 C          -2.0557  -17.2621   21.5069 C.ar    1  UNL1       -0.0000
     18 C          -1.9300  -18.6997   21.0977 C.ar    1  UNL1       -0.0000
     19 C          -0.7987  -19.1314   20.2123 C.ar    1  UNL1        0.0000
     20 C           0.2069  -18.1254   19.7361 C.ar    1  UNL1        0.0000
     21 C           0.0812  -16.6877   20.1453 C.ar    1  UNL1        0.0000
     22 C          -1.0501  -16.2561   21.0306 C.ar    1  UNL1       -0.0000
     23 C         -10.2601  -17.5613   21.1435 C.3     1  UNL1        0.0922
     24 N          -9.5372  -18.5912   20.3270 N.3     1  UNL1       -0.2713
     25 C         -10.1358  -19.4339   19.2401 C.3     1  UNL1        0.0722
     26 C          -9.0572  -20.3228   18.6955 C.3     1  UNL1        0.0188
     27 C          -7.7920  -20.0294   19.4458 C.3     1  UNL1        0.0188
     28 C          -8.0886  -18.9592   20.4542 C.3     1  UNL1        0.0722
@<TRIPOS>BOND
     1     1     2    1
     2     2    10    1
     3    10    11    1
     4    11    12   ar
     5    12    13   ar
     6    13    14   ar
     7    14    17    1
     8    17    18   ar
     9    18    19   ar
    10    19    20   ar
    11    20    21   ar
    12    21    22   ar
    13    14    15   ar
    14    15    16   ar
    15     2     3   am
    16     3     4    2
    17     3     5   am
    18     5     6    1
    19     6     7    1
    20     7     8    1
    21     8     9    1
    22     9    23    1
    23    23    24    1
    24    24    25    1
    25    25    26    1
    26    26    27    1
    27    27    28    1
    28    16    11   ar
    29     9     5    1
    30    28    24    1
    31    22    17   ar
@<TRIPOS>MOLECULE
*****
 28 31 0 0 0
SMALL
GASTEIGER

@<TRIPOS>ATOM
      1 C           0.8975    4.8692   19.7467 C.3     1  UNL1        0.1168
      2 N          -0.0588    3.7137   19.7692 N.am    1  UNL1       -0.2582
      3 C          -1.1185    3.6378   20.8281 C.2     1  UNL1        0.3075
      4 O          -2.0748    2.4824   20.8507 O.2     1  UNL1       -0.2523
      5 N          -1.2220    4.7175   21.8644 N.am    1  UNL1       -0.2643
      6 C          -0.3412    5.9271   21.9683 C.3     1  UNL1        0.0950
      7 C          -0.7993    6.7342   23.1468 C.3     1  UNL1        0.0233
      8 C          -1.9632    6.0233   23.7712 C.3     1  UNL1        0.0230
      9 C          -2.2245    4.7768   22.9786 C.3     1  UNL1        0.0928
     10 C           0.0447    2.6342   18.7330 C.3     1  UNL1        0.1217
     11 C           0.9975    1.4928   18.9316 C.ar    1  UNL1       -0.0023
     12 C           2.3458    1.5183   18.2748 C.ar    1  UNL1       -0.0026
     13 C           3.2986    0.3769   18.4735 C.ar    1  UNL1       -0.0003
     14 C           2.9030   -0.7900   19.3288 C.ar    1  UNL1       -0.0000
     15 C           1.5546   -0.8156   19.9856 C.ar    1  UNL1       -0.0003
     16 C           0.6019    0.3258   19.7870 C.ar    1  UNL1       -0.0026
     17 C           3.8558   -1.9315   19.5274 C.ar    1  UNL1       -0.0000
     18 C           5.3062   -1.6596   19.7961 C.ar    1  UNL1       -0.0000
     19 C           6.2590   -2.8011   19.9947 C.ar    1  UNL1        0.0000
     20 C           5.7613   -4.2143   19.9246 C.ar    1  UNL1        0.0000
     21 C           4.3107   -4.4862   19.6559 C.ar    1  UNL1        0.0000
     22 C           3.3580   -3.3448   19.4574 C.ar    1  UNL1       -0.0000
     23 C          -3.2995    3.7671   23.2522 C.3     1  UNL1        0.0922
     24 N          -4.7017    4.0186   22.7827 N.3     1  UNL1       -0.2713
     25 C          -5.9194    4.1136   23.6535 C.3     1  UNL1        0.0722
     26 C          -7.1027    4.3730   22.7689 C.3     1  UNL1        0.0188
     27 C          -6.6164    4.4384   21.3514 C.3     1  UNL1        0.0188
     28 C          -5.1325    4.2194   21.3600 C.3     1  UNL1        0.0722
@<TRIPOS>BOND
     1     1     2    1
     2     2    10    1
     3    10    11    1
     4    11    12   ar
     5    12    13   ar
     6    13    14   ar
     7    14    17    1
     8    17    18   ar
     9    18    19   ar
    10    19    20   ar
    11    20    21   ar
    12    21    22   ar
    13    14    15   ar
    14    15    16   ar
    15     2     3   am
    16     3     4    2
    17     3     5   am
    18     5     6    1
    19     6     7    1
    20     7     8    1
    21     8     9    1
    22     9    23    1
    23    23    24    1
    24    24    25    1
    25    25    26    1
    26    26    27    1
    27    27    28    1
    28    16    11   ar
    29     9     5    1
    30    28    24    1
    31    22    17   ar
@<TRIPOS>MOLECULE
*****
 28 31 0 0 0
SMALL
GASTEIGER

@<TRIPOS>ATOM
      1 C           2.7060    0.8809   18.4989 C.3     1  UNL1        0.1168
      2 N           1.5502    0.5451   19.3941 N.am    1  UNL1       -0.2582
      3 C           0.5342    1.5952   19.7330 C.2     1  UNL1        0.3075
      4 O          -0.6216    1.2595   20.6282 O.2     1  UNL1       -0.2523
      5 N           0.6739    2.9812   19.1765 N.am    1  UNL1       -0.2643
      6 C           1.7704    3.4622   18.2730 C.3     1  UNL1        0.0950
      7 C           1.5158    4.9078   17.9640 C.3     1  UNL1        0.0233
      8 C           0.2619    5.3203   18.6765 C.3     1  UNL1        0.0230
      9 C          -0.2585    4.1295   19.4259 C.3     1  UNL1        0.0928
     10 C           1.4106   -0.8408   19.9505 C.3     1  UNL1        0.1217
     11 C           2.6188   -1.5706   20.4582 C.ar    1  UNL1       -0.0023
     12 C           3.2275   -2.6722   19.6422 C.ar    1  UNL1       -0.0026
     13 C           4.4357   -3.4018   20.1498 C.ar    1  UNL1       -0.0003
     14 C           5.0353   -3.0298   21.4735 C.ar    1  UNL1       -0.0000
     15 C           4.4266   -1.9282   22.2896 C.ar    1  UNL1       -0.0003
     16 C           3.2184   -1.1986   21.7819 C.ar    1  UNL1       -0.0026
     17 C           6.2436   -3.7596   21.9812 C.ar    1  UNL1       -0.0000
     18 C           7.3287   -4.1668   21.0291 C.ar    1  UNL1       -0.0000
     19 C           8.5370   -4.8966   21.5368 C.ar    1  UNL1        0.0000
     20 C           8.6600   -5.2189   22.9965 C.ar    1  UNL1        0.0000
     21 C           7.5748   -4.8116   23.9486 C.ar    1  UNL1        0.0000
     22 C           6.3666   -4.0819   23.4410 C.ar    1  UNL1       -0.0000
     23 C          -1.4942    4.0935   20.2755 C.3     1  UNL1        0.0922
     24 N          -2.8387    3.9107   19.6362 N.3     1  UNL1       -0.2713
     25 C          -4.1105    3.5506   20.3453 C.3     1  UNL1        0.0722
     26 C          -5.2054    3.4733   19.3229 C.3     1  UNL1        0.0188
     27 C          -4.6103    3.7858   17.9819 C.3     1  UNL1        0.0188
     28 C          -3.1476    4.0561   18.1756 C.3     1  UNL1        0.0722
@<TRIPOS>BOND
     1     1     2    1
     2     2    10    1
     3    10    11    1
     4    11    12   ar
     5    12    13   ar
     6    13    14   ar
     7    14    17    1
     8    17    18   ar
     9    18    19   ar
    10    19    20   ar
    11    20    21   ar
    12    21    22   ar
    13    14    15   ar
    14    15    16   ar
    15     2     3   am
    16     3     4    2
    17     3     5   am
    18     5     6    1
    19     6     7    1
    20     7     8    1
    21     8     9    1
    22     9    23    1
    23    23    24    1
    24    24    25    1
    25    25    26    1
    26    26    27    1
    27    27    28    1
    28    16    11   ar
    29     9     5    1
    30    28    24    1
    31    22    17   ar
@<TRIPOS>MOLECULE
*****
 28 31 0 0 0
SMALL
GASTEIGER

@<TRIPOS>ATOM
      1 C           1.4824    2.7837   31.7074 C.3     1  UNL1        0.1168
      2 N           2.3291    1.9326   32.6068 N.am    1  UNL1       -0.2582
      3 C           2.5168    2.3168   34.0446 C.2     1  UNL1        0.3075
      4 O           3.3634    1.4658   34.9440 O.2     1  UNL1       -0.2523
      5 N           1.8576    3.5520   34.5830 N.am    1  UNL1       -0.2643
      6 C           0.9871    4.4961   33.8078 C.3     1  UNL1        0.0950
      7 C           0.5448    5.5875   34.7369 C.3     1  UNL1        0.0233
      8 C           1.1420    5.3180   36.0863 C.3     1  UNL1        0.0230
      9 C           1.9534    4.0599   35.9912 C.3     1  UNL1        0.0928
     10 C           2.9882    0.6975   32.0684 C.3     1  UNL1        0.1217
     11 C           3.0368    0.4577   30.5884 C.ar    1  UNL1       -0.0023
     12 C           4.1848    0.9859   29.7804 C.ar    1  UNL1       -0.0026
     13 C           4.2333    0.7462   28.3005 C.ar    1  UNL1       -0.0003
     14 C           3.1339   -0.0219   27.6287 C.ar    1  UNL1       -0.0000
     15 C           1.9859   -0.5502   28.4367 C.ar    1  UNL1       -0.0003
     16 C           1.9374   -0.3104   29.9166 C.ar    1  UNL1       -0.0026
     17 C           3.1825   -0.2617   26.1487 C.ar    1  UNL1       -0.0000
     18 C           4.0379   -1.3623   25.5949 C.ar    1  UNL1       -0.0000
     19 C           4.0865   -1.6021   24.1150 C.ar    1  UNL1        0.0000
     20 C           3.2796   -0.7412   23.1888 C.ar    1  UNL1        0.0000
     21 C           2.4241    0.3595   23.7427 C.ar    1  UNL1        0.0000
     22 C           2.3755    0.5992   25.2226 C.ar    1  UNL1       -0.0000
     23 C           2.7250    3.4219   37.1081 C.3     1  UNL1        0.0922
     24 N           2.0453    2.4566   38.0334 N.3     1  UNL1       -0.2713
     25 C           0.7893    2.7165   38.8111 C.3     1  UNL1        0.0722
     26 C           0.4700    1.4824   39.6019 C.3     1  UNL1        0.0188
     27 C           1.5288    0.4599   39.3129 C.3     1  UNL1        0.0188
     28 C           2.5024    1.0620   38.3435 C.3     1  UNL1        0.0722
@<TRIPOS>BOND
     1     1     2    1
     2     2    10    1
     3    10    11    1
     4    11    12   ar
     5    12    13   ar
     6    13    14   ar
     7    14    17    1
     8    17    18   ar
     9    18    19   ar
    10    19    20   ar
    11    20    21   ar
    12    21    22   ar
    13    14    15   ar
    14    15    16   ar
    15     2     3   am
    16     3     4    2
    17     3     5   am
    18     5     6    1
    19     6     7    1
    20     7     8    1
    21     8     9    1
    22     9    23    1
    23    23    24    1
    24    24    25    1
    25    25    26    1
    26    26    27    1
    27    27    28    1
    28    16    11   ar
    29     9     5    1
    30    28    24    1
    31    22    17   ar
@<TRIPOS>MOLECULE
*****
 28 31 0 0 0
SMALL
GASTEIGER

@<TRIPOS>ATOM
      1 C           1.9774    4.3261   18.5046 C.3     1  UNL1        0.1168
      2 N           1.1340    3.0858   18.4793 N.am    1  UNL1       -0.2582
      3 C           1.7830    1.7402   18.3441 C.2     1  UNL1        0.3075
      4 O           0.9398    0.5000   18.3187 O.2     1  UNL1       -0.2523
      5 N           3.2754    1.6349   18.2343 N.am    1  UNL1       -0.2643
      6 C           4.2432    2.7808   18.2448 C.3     1  UNL1        0.0950
      7 C           5.6278    2.2194   18.1118 C.3     1  UNL1        0.0233
      8 C           5.5156    0.7264   18.0191 C.3     1  UNL1        0.0230
      9 C           4.0617    0.3652   18.0948 C.3     1  UNL1        0.0928
     10 C          -0.3582    3.1911   18.5890 C.3     1  UNL1        0.1217
     11 C          -1.0040    3.3188   19.9369 C.ar    1  UNL1       -0.0023
     12 C          -2.4719    3.6089   20.0408 C.ar    1  UNL1       -0.0026
     13 C          -3.1176    3.7367   21.3886 C.ar    1  UNL1       -0.0003
     14 C          -2.2953    3.5743   22.6326 C.ar    1  UNL1       -0.0000
     15 C          -0.8274    3.2841   22.5287 C.ar    1  UNL1       -0.0003
     16 C          -0.1817    3.1564   21.1809 C.ar    1  UNL1       -0.0026
     17 C          -2.9411    3.7020   23.9805 C.ar    1  UNL1       -0.0000
     18 C          -4.4285    3.8631   24.0873 C.ar    1  UNL1       -0.0000
     19 C          -5.0743    3.9908   25.4352 C.ar    1  UNL1        0.0000
     20 C          -4.2325    3.9574   26.6763 C.ar    1  UNL1        0.0000
     21 C          -2.7450    3.7963   26.5694 C.ar    1  UNL1        0.0000
     22 C          -2.0993    3.6686   25.2216 C.ar    1  UNL1       -0.0000
     23 C           3.4939   -1.0221   18.0406 C.3     1  UNL1        0.0922
     24 N           4.0811   -2.1067   18.8943 N.3     1  UNL1       -0.2713
     25 C           3.7687   -2.3574   20.3399 C.3     1  UNL1        0.0722
     26 C           4.5783   -3.5367   20.7913 C.3     1  UNL1        0.0188
     27 C           5.3911   -4.0148   19.6248 C.3     1  UNL1        0.0188
     28 C           5.0838   -3.1310   18.4524 C.3     1  UNL1        0.0722
@<TRIPOS>BOND
     1     1     2    1
     2     2    10    1
     3    10    11    1
     4    11    12   ar
     5    12    13   ar
     6    13    14   ar
     7    14    17    1
     8    17    18   ar
     9    18    19   ar
    10    19    20   ar
    11    20    21   ar
    12    21    22   ar
    13    14    15   ar
    14    15    16   ar
    15     2     3   am
    16     3     4    2
    17     3     5   am
    18     5     6    1
    19     6     7    1
    20     7     8    1
    21     8     9    1
    22     9    23    1
    23    23    24    1
    24    24    25    1
    25    25    26    1
    26    26    27    1
    27    27    28    1
    28    16    11   ar
    29     9     5    1
    30    28    24    1
    31    22    17   ar
