@<TRIPOS>MOLECULE
*****
 34 37 0 0 0
SMALL
GASTEIGER

@<TRIPOS>ATOM
      1 C          -6.9341  -16.8054   23.8452 C.ar    1  UNL1        0.1368
      2 C          -7.9482  -17.4175   22.9251 C.ar    1  UNL1        0.0251
      3 C          -7.5086  -18.3635   21.8472 C.ar    1  UNL1        0.0178
      4 C          -8.2735  -19.1159   20.7988 C.ar    1  UNL1        0.0126
      5 C          -7.2923  -19.9148   19.9932 C.ar    1  UNL1        0.0732
      6 N          -5.9211  -19.6561   20.5437 N.ar    1  UNL1       -0.3208
      7 C          -6.0548  -18.6974   21.6895 C.ar    1  UNL1        0.0793
      8 C          -5.0406  -18.0853   22.6096 C.ar    1  UNL1        0.1161
      9 N          -5.4803  -17.1393   23.6875 N.ar    1  UNL1       -0.2377
     10 C          -6.9214  -14.6509   27.1781 C.3     1  UNL1        0.1482
     11 N          -6.4818  -15.5969   26.1002 N.am    1  UNL1       -0.1653
     12 O          -5.1503  -16.2805   26.1995 O.3     1  UNL1       -0.2915
     13 C          -7.3737  -15.8593   24.9231 C.2     1  UNL1        0.2887
     14 O          -8.7051  -15.1758   24.8238 O.2     1  UNL1       -0.2662
     15 H          -4.7041  -16.0024   27.0147 H       1  UNL1        0.2417
     16 C          -9.7587  -19.0763   20.5924 C.3     1  UNL1        0.1010
     17 N         -10.6547  -18.5743   21.6856 N.3     1  UNL1       -0.2627
     18 C         -11.0666  -19.3388   22.9088 C.3     1  UNL1        0.0728
     19 C         -11.9626  -18.4568   23.7268 C.3     1  UNL1        0.0192
     20 C         -12.1045  -17.1472   23.0092 C.3     1  UNL1        0.0268
     21 C         -11.2962  -17.2199   21.7478 C.3     1  UNL1        0.1348
     22 C         -11.1543  -16.1295   20.7274 C.2     1  UNL1        0.2339
     23 N          -9.9657  -15.2153   20.7672 N.am    1  UNL1       -0.3277
     24 O         -12.2008  -15.9533   19.6675 O.2     1  UNL1       -0.2739
     25 H          -9.2788  -15.3309   21.4629 H       1  UNL1        0.1450
     26 H          -9.8726  -14.4996   20.0976 H       1  UNL1        0.1450
     27 C          -4.6410  -20.2517   20.0372 C.3     1  UNL1        0.1328
     28 C          -3.3854  -19.4310   20.0245 C.ar    1  UNL1        0.0005
     29 C          -2.3409  -19.6419   21.0802 C.ar    1  UNL1       -0.0001
     30 C          -1.0853  -18.8213   21.0675 C.ar    1  UNL1        0.0294
     31 C          -0.8743  -17.7898   19.9991 C.ar    1  UNL1        0.1401
     32 F           0.3812  -16.9691   19.9863 F       1  UNL1       -0.2042
     33 C          -1.9188  -17.5789   18.9434 C.ar    1  UNL1        0.0294
     34 C          -3.1744  -18.3995   18.9561 C.ar    1  UNL1       -0.0001
@<TRIPOS>BOND
     1    10    11    1
     2    11    12    1
     3    11    13   am
     4    13    14    2
     5    13     1    1
     6     1     2   ar
     7     2     3   ar
     8     3     4   ar
     9     4    16    1
    10    16    17    1
    11    17    18    1
    12    18    19    1
    13    19    20    1
    14    20    21    1
    15    21    22    1
    16    22    23   am
    17    22    24    2
    18     4     5   ar
    19     5     6   ar
    20     6    27    1
    21    27    28    1
    22    28    29   ar
    23    29    30   ar
    24    30    31   ar
    25    31    32    1
    26    31    33   ar
    27    33    34   ar
    28     6     7   ar
    29     7     8   ar
    30     8     9   ar
    31     9     1   ar
    32     7     3   ar
    33    21    17    1
    34    34    28   ar
    35    12    15    1
    36    23    25    1
    37    23    26    1
@<TRIPOS>MOLECULE
*****
 34 37 0 0 0
SMALL
GASTEIGER

@<TRIPOS>ATOM
      1 C          -6.9108  -16.6913   23.9470 C.ar    1  UNL1        0.1368
      2 C          -8.0233  -17.4237   23.2573 C.ar    1  UNL1        0.0251
      3 C          -7.7108  -18.4223   22.1825 C.ar    1  UNL1        0.0178
      4 C          -8.5906  -19.2906   21.3327 C.ar    1  UNL1        0.0126
      5 C          -7.7092  -20.0934   20.4224 C.ar    1  UNL1        0.0732
      6 N          -6.2847  -19.7212   20.7096 N.ar    1  UNL1       -0.3208
      7 C          -6.2858  -18.6885   21.7975 C.ar    1  UNL1        0.0793
      8 C          -5.1732  -17.9560   22.4871 C.ar    1  UNL1        0.1161
      9 N          -5.4858  -16.9574   23.5619 N.ar    1  UNL1       -0.2377
     10 C          -8.4995  -15.0466   27.1906 C.3     1  UNL1        0.1482
     11 N          -8.1870  -16.0452   26.1158 N.am    1  UNL1       -0.1653
     12 O          -8.8381  -17.3964   26.1352 O.3     1  UNL1       -0.2915
     13 C          -7.2233  -15.6926   25.0217 C.2     1  UNL1        0.2887
     14 O          -6.5722  -14.3415   25.0024 O.2     1  UNL1       -0.2662
     15 H          -9.4277  -17.4602   26.9028 H       1  UNL1        0.2417
     16 C         -10.0887  -19.3464   21.3841 C.3     1  UNL1        0.1010
     17 N         -10.8948  -18.1103   21.1154 N.3     1  UNL1       -0.2627
     18 C         -10.8644  -17.2941   19.8571 C.3     1  UNL1        0.0728
     19 C         -11.8236  -16.1528   20.0217 C.3     1  UNL1        0.0192
     20 C         -12.4470  -16.2635   21.3816 C.3     1  UNL1        0.0268
     21 C         -11.8729  -17.4733   22.0575 C.3     1  UNL1        0.1348
     22 C         -12.2165  -17.9606   23.4339 C.2     1  UNL1        0.2339
     23 N         -13.6520  -18.0620   23.8569 N.am    1  UNL1       -0.3277
     24 O         -11.1246  -18.3464   24.3872 O.2     1  UNL1       -0.2739
     25 H         -14.3687  -17.8088   23.2312 H       1  UNL1        0.1450
     26 H         -13.8776  -18.3819   24.7603 H       1  UNL1        0.1450
     27 C          -5.0721  -20.2832   20.0286 C.3     1  UNL1        0.1328
     28 C          -3.7898  -19.5050   20.0178 C.ar    1  UNL1        0.0005
     29 C          -3.6089  -18.3707   19.0532 C.ar    1  UNL1       -0.0001
     30 C          -2.3266  -17.5925   19.0424 C.ar    1  UNL1        0.0294
     31 C          -1.2251  -17.9487   19.9963 C.ar    1  UNL1        0.1401
     32 F           0.0572  -17.1706   19.9856 F       1  UNL1       -0.2042
     33 C          -1.4060  -19.0830   20.9609 C.ar    1  UNL1        0.0294
     34 C          -2.6883  -19.8612   20.9717 C.ar    1  UNL1       -0.0001
@<TRIPOS>BOND
     1    10    11    1
     2    11    12    1
     3    11    13   am
     4    13    14    2
     5    13     1    1
     6     1     2   ar
     7     2     3   ar
     8     3     4   ar
     9     4    16    1
    10    16    17    1
    11    17    18    1
    12    18    19    1
    13    19    20    1
    14    20    21    1
    15    21    22    1
    16    22    23   am
    17    22    24    2
    18     4     5   ar
    19     5     6   ar
    20     6    27    1
    21    27    28    1
    22    28    29   ar
    23    29    30   ar
    24    30    31   ar
    25    31    32    1
    26    31    33   ar
    27    33    34   ar
    28     6     7   ar
    29     7     8   ar
    30     8     9   ar
    31     9     1   ar
    32     7     3   ar
    33    21    17    1
    34    34    28   ar
    35    12    15    1
    36    23    25    1
    37    23    26    1
@<TRIPOS>MOLECULE
*****
 34 37 0 0 0
SMALL
GASTEIGER

@<TRIPOS>ATOM
      1 C          -6.5837  -16.2625   24.2201 C.ar    1  UNL1        0.1368
      2 C          -5.7030  -17.2132   23.4649 C.ar    1  UNL1        0.0251
      3 C          -6.2931  -18.1129   22.4198 C.ar    1  UNL1        0.0178
      4 C          -5.6789  -19.1447   21.5207 C.ar    1  UNL1        0.0126
      5 C          -6.7702  -19.7315   20.6753 C.ar    1  UNL1        0.0732
      6 N          -8.0588  -19.0622   21.0518 N.ar    1  UNL1       -0.3208
      7 C          -7.7639  -18.0619   22.1299 C.ar    1  UNL1        0.0793
      8 C          -8.6446  -17.1112   22.8852 C.ar    1  UNL1        0.1161
      9 N          -8.0546  -16.2115   23.9303 N.ar    1  UNL1       -0.2377
     10 C          -6.0987  -14.2871   27.6278 C.3     1  UNL1        0.1482
     11 N          -6.6888  -15.1868   26.5827 N.am    1  UNL1       -0.1653
     12 O          -7.9741  -15.9107   26.8552 O.3     1  UNL1       -0.2915
     13 C          -5.9936  -15.3627   25.2652 C.2     1  UNL1        0.2887
     14 O          -4.7084  -14.6389   24.9929 O.2     1  UNL1       -0.2662
     15 H          -8.2881  -15.6881   27.7455 H       1  UNL1        0.2417
     16 C          -4.2282  -19.5233   21.4752 C.3     1  UNL1        0.1010
     17 N          -3.3024  -18.8320   20.5188 N.3     1  UNL1       -0.2627
     18 C          -3.0553  -19.2237   19.0920 C.3     1  UNL1        0.0728
     19 C          -2.0613  -18.2614   18.5125 C.3     1  UNL1        0.0192
     20 C          -1.6939  -17.2748   19.5812 C.3     1  UNL1        0.0268
     21 C          -2.4610  -17.6275   20.8210 C.3     1  UNL1        0.1348
     22 C          -2.3978  -16.9030   22.1330 C.2     1  UNL1        0.2339
     23 N          -1.8648  -17.5998   23.3497 N.am    1  UNL1       -0.3277
     24 O          -2.8675  -15.4816   22.2281 O.2     1  UNL1       -0.2739
     25 H          -1.5566  -18.5327   23.2872 H       1  UNL1        0.1450
     26 H          -1.8234  -17.1243   24.2107 H       1  UNL1        0.1450
     27 C          -9.4058  -19.3439   20.4549 C.3     1  UNL1        0.1328
     28 C         -10.6509  -18.9790   21.2077 C.ar    1  UNL1        0.0005
     29 C         -11.6151  -17.9876   20.6268 C.ar    1  UNL1       -0.0001
     30 C         -12.8602  -17.6227   21.3796 C.ar    1  UNL1        0.0294
     31 C         -13.1410  -18.2491   22.7133 C.ar    1  UNL1        0.1401
     32 F         -14.3861  -17.8842   23.4661 F       1  UNL1       -0.2042
     33 C         -12.1768  -19.2405   23.2941 C.ar    1  UNL1        0.0294
     34 C         -10.9317  -19.6054   22.5414 C.ar    1  UNL1       -0.0001
@<TRIPOS>BOND
     1    10    11    1
     2    11    12    1
     3    11    13   am
     4    13    14    2
     5    13     1    1
     6     1     2   ar
     7     2     3   ar
     8     3     4   ar
     9     4    16    1
    10    16    17    1
    11    17    18    1
    12    18    19    1
    13    19    20    1
    14    20    21    1
    15    21    22    1
    16    22    23   am
    17    22    24    2
    18     4     5   ar
    19     5     6   ar
    20     6    27    1
    21    27    28    1
    22    28    29   ar
    23    29    30   ar
    24    30    31   ar
    25    31    32    1
    26    31    33   ar
    27    33    34   ar
    28     6     7   ar
    29     7     8   ar
    30     8     9   ar
    31     9     1   ar
    32     7     3   ar
    33    21    17    1
    34    34    28   ar
    35    12    15    1
    36    23    25    1
    37    23    26    1
@<TRIPOS>MOLECULE
*****
 34 37 0 0 0
SMALL
GASTEIGER

@<TRIPOS>ATOM
      1 C          -6.4646  -16.4458   23.3667 C.ar    1  UNL1        0.1368
      2 C          -5.7966  -17.3742   22.3963 C.ar    1  UNL1        0.0251
      3 C          -6.6239  -18.2885   21.5422 C.ar    1  UNL1        0.0178
      4 C          -6.2493  -19.3047   20.5043 C.ar    1  UNL1        0.0126
      5 C          -7.5131  -19.9186   19.9793 C.ar    1  UNL1        0.0732
      6 N          -8.6689  -19.2818   20.6926 N.ar    1  UNL1       -0.3208
      7 C          -8.1193  -18.2744   21.6585 C.ar    1  UNL1        0.0793
      8 C          -8.7873  -17.3460   22.6289 C.ar    1  UNL1        0.1161
      9 N          -7.9599  -16.4317   23.4830 N.ar    1  UNL1       -0.2377
     10 C          -5.1514  -14.4310   26.5236 C.3     1  UNL1        0.1482
     11 N          -5.9787  -15.3453   25.6695 N.am    1  UNL1       -0.1653
     12 O          -7.1478  -16.0733   26.2641 O.3     1  UNL1       -0.2915
     13 C          -5.6372  -15.5315   24.2208 C.2     1  UNL1        0.2887
     14 O          -4.4682  -14.8035   23.6263 O.2     1  UNL1       -0.2662
     15 H          -7.2287  -15.8428   27.2028 H       1  UNL1        0.2417
     16 C          -4.8555  -19.6469   20.0682 C.3     1  UNL1        0.1010
     17 N          -3.6785  -19.0834   20.8080 N.3     1  UNL1       -0.2627
     18 C          -3.3324  -19.3446   22.2441 C.3     1  UNL1        0.0728
     19 C          -2.0811  -18.5825   22.5653 C.3     1  UNL1        0.0192
     20 C          -1.6537  -17.8502   21.3278 C.3     1  UNL1        0.0268
     21 C          -2.6410  -18.1599   20.2418 C.3     1  UNL1        0.1348
     22 C          -2.5983  -17.6376   18.8363 C.2     1  UNL1        0.2339
     23 N          -3.6477  -16.6769   18.3609 N.am    1  UNL1       -0.3277
     24 O          -1.5063  -18.0761   17.9061 O.2     1  UNL1       -0.2739
     25 H          -4.3644  -16.3891   18.9715 H       1  UNL1        0.1450
     26 H          -3.6197  -16.3341   17.4385 H       1  UNL1        0.1450
     27 C         -10.1195  -19.5971   20.4777 C.3     1  UNL1        0.1328
     28 C         -11.1493  -19.0832   21.4398 C.ar    1  UNL1        0.0005
     29 C         -11.1726  -19.5859   22.8528 C.ar    1  UNL1       -0.0001
     30 C         -12.2023  -19.0720   23.8148 C.ar    1  UNL1        0.0294
     31 C         -13.2087  -18.0553   23.3639 C.ar    1  UNL1        0.1401
     32 F         -14.2385  -17.5413   24.3259 F       1  UNL1       -0.2042
     33 C         -13.1855  -17.5526   21.9508 C.ar    1  UNL1        0.0294
     34 C         -12.1557  -18.0665   20.9888 C.ar    1  UNL1       -0.0001
@<TRIPOS>BOND
     1    10    11    1
     2    11    12    1
     3    11    13   am
     4    13    14    2
     5    13     1    1
     6     1     2   ar
     7     2     3   ar
     8     3     4   ar
     9     4    16    1
    10    16    17    1
    11    17    18    1
    12    18    19    1
    13    19    20    1
    14    20    21    1
    15    21    22    1
    16    22    23   am
    17    22    24    2
    18     4     5   ar
    19     5     6   ar
    20     6    27    1
    21    27    28    1
    22    28    29   ar
    23    29    30   ar
    24    30    31   ar
    25    31    32    1
    26    31    33   ar
    27    33    34   ar
    28     6     7   ar
    29     7     8   ar
    30     8     9   ar
    31     9     1   ar
    32     7     3   ar
    33    21    17    1
    34    34    28   ar
    35    12    15    1
    36    23    25    1
    37    23    26    1
@<TRIPOS>MOLECULE
*****
 34 37 0 0 0
SMALL
GASTEIGER

@<TRIPOS>ATOM
      1 C           5.8924   -3.1521   24.9624 C.ar    1  UNL1        0.1368
      2 C           5.0573   -2.7061   23.7990 C.ar    1  UNL1        0.0251
      3 C           4.1337   -1.5331   23.9446 C.ar    1  UNL1        0.0178
      4 C           3.1954   -0.8688   22.9811 C.ar    1  UNL1        0.0126
      5 C           2.5270    0.2687   23.6948 C.ar    1  UNL1        0.0732
      6 N           3.0521    0.3073   25.0993 N.ar    1  UNL1       -0.3208
      7 C           4.0452   -0.8063   25.2537 C.ar    1  UNL1        0.0793
      8 C           4.8802   -1.2523   26.4172 C.ar    1  UNL1        0.1161
      9 N           5.8038   -2.4253   26.2715 N.ar    1  UNL1       -0.2377
     10 C           7.7975   -6.5447   25.7440 C.3     1  UNL1        0.1482
     11 N           6.8739   -5.3718   25.8896 N.am    1  UNL1       -0.1653
     12 O           6.0082   -5.2456   27.1082 O.3     1  UNL1       -0.2915
     13 C           6.8160   -4.3251   24.8168 C.2     1  UNL1        0.2887
     14 O           7.6816   -4.4513   23.5984 O.2     1  UNL1       -0.2662
     15 H           6.1672   -5.9997   27.6972 H       1  UNL1        0.2417
     16 C           2.9659   -1.2713   21.5544 C.3     1  UNL1        0.1010
     17 N           4.1100   -1.2806   20.5845 N.3     1  UNL1       -0.2627
     18 C           4.9505   -0.0987   20.2011 C.3     1  UNL1        0.0728
     19 C           5.9745   -0.5610   19.2072 C.3     1  UNL1        0.0192
     20 C           5.7669   -2.0286   18.9764 C.3     1  UNL1        0.0268
     21 C           4.6146   -2.4733   19.8275 C.3     1  UNL1        0.1348
     22 C           4.0636   -3.8661   19.9078 C.2     1  UNL1        0.2339
     23 N           3.2839   -4.4316   18.7578 N.am    1  UNL1       -0.3277
     24 O           4.2922   -4.6934   21.1379 O.2     1  UNL1       -0.2739
     25 H           3.1339   -3.8886   17.9505 H       1  UNL1        0.1450
     26 H           2.9222   -5.3457   18.8105 H       1  UNL1        0.1450
     27 C           2.6542    1.2874   26.1628 C.3     1  UNL1        0.1328
     28 C           1.4445    1.0248   27.0099 C.ar    1  UNL1        0.0005
     29 C           1.5317    0.0757   28.1682 C.ar    1  UNL1       -0.0001
     30 C           0.3220   -0.1868   29.0154 C.ar    1  UNL1        0.0294
     31 C          -0.9749    0.4997   28.7043 C.ar    1  UNL1        0.1401
     32 F          -2.1847    0.2372   29.5515 F       1  UNL1       -0.2042
     33 C          -1.0621    1.4488   27.5461 C.ar    1  UNL1        0.0294
     34 C           0.1476    1.7114   26.6989 C.ar    1  UNL1       -0.0001
@<TRIPOS>BOND
     1    10    11    1
     2    11    12    1
     3    11    13   am
     4    13    14    2
     5    13     1    1
     6     1     2   ar
     7     2     3   ar
     8     3     4   ar
     9     4    16    1
    10    16    17    1
    11    17    18    1
    12    18    19    1
    13    19    20    1
    14    20    21    1
    15    21    22    1
    16    22    23   am
    17    22    24    2
    18     4     5   ar
    19     5     6   ar
    20     6    27    1
    21    27    28    1
    22    28    29   ar
    23    29    30   ar
    24    30    31   ar
    25    31    32    1
    26    31    33   ar
    27    33    34   ar
    28     6     7   ar
    29     7     8   ar
    30     8     9   ar
    31     9     1   ar
    32     7     3   ar
    33    21    17    1
    34    34    28   ar
    35    12    15    1
    36    23    25    1
    37    23    26    1
@<TRIPOS>MOLECULE
*****
 34 37 0 0 0
SMALL
GASTEIGER

@<TRIPOS>ATOM
      1 C           6.2010   -3.0809   26.9316 C.ar    1  UNL1        0.1368
      2 C           5.3560   -1.8417   26.9303 C.ar    1  UNL1        0.0251
      3 C           4.8326   -1.2922   25.6364 C.ar    1  UNL1        0.0178
      4 C           3.9817   -0.0968   25.3246 C.ar    1  UNL1        0.0126
      5 C           3.7776   -0.0479   23.8394 C.ar    1  UNL1        0.0732
      6 N           4.5022   -1.2130   23.2333 N.ar    1  UNL1       -0.3208
      7 C           5.1542   -1.9820   24.3439 C.ar    1  UNL1        0.0793
      8 C           5.9993   -3.2213   24.3452 C.ar    1  UNL1        0.1161
      9 N           6.5227   -3.7707   25.6391 N.ar    1  UNL1       -0.2377
     10 C           6.8648   -5.5626   29.9567 C.3     1  UNL1        0.1482
     11 N           6.3414   -5.0131   28.6628 N.am    1  UNL1       -0.1653
     12 O           5.4349   -5.8465   27.8061 O.3     1  UNL1       -0.2915
     13 C           6.7244   -3.6304   28.2255 C.2     1  UNL1        0.2887
     14 O           7.6309   -2.7971   29.0822 O.2     1  UNL1       -0.2662
     15 H           5.2889   -6.7063   28.2308 H       1  UNL1        0.2417
     16 C           3.4317    0.8784   26.3228 C.3     1  UNL1        0.1010
     17 N           1.9490    1.0696   26.4459 N.3     1  UNL1       -0.2627
     18 C           0.9960    1.3245   25.3159 C.3     1  UNL1        0.0728
     19 C          -0.3829    1.4520   25.8922 C.3     1  UNL1        0.0192
     20 C          -0.2823    1.2759   27.3785 C.3     1  UNL1        0.0268
     21 C           1.1589    1.0396   27.7206 C.3     1  UNL1        0.1348
     22 C           1.7129    0.8130   29.0961 C.2     1  UNL1        0.2339
     23 N           2.6702    1.8025   29.6915 N.am    1  UNL1       -0.3277
     24 O           1.3096   -0.4030   29.8761 O.2     1  UNL1       -0.2739
     25 H           2.9349    2.6007   29.1795 H       1  UNL1        0.1450
     26 H           3.0338    1.6538   30.5942 H       1  UNL1        0.1450
     27 C           4.5640   -1.5500   21.7729 C.3     1  UNL1        0.1328
     28 C           3.6101   -0.9031   20.8129 C.ar    1  UNL1        0.0005
     29 C           2.1336   -1.1226   20.9603 C.ar    1  UNL1       -0.0001
     30 C           1.1796   -0.4757   20.0003 C.ar    1  UNL1        0.0294
     31 C           1.7022    0.3907   18.8929 C.ar    1  UNL1        0.1401
     32 F           0.7483    1.0376   17.9329 F       1  UNL1       -0.2042
     33 C           3.1787    0.6102   18.7456 C.ar    1  UNL1        0.0294
     34 C           4.1326   -0.0367   19.7056 C.ar    1  UNL1       -0.0001
@<TRIPOS>BOND
     1    10    11    1
     2    11    12    1
     3    11    13   am
     4    13    14    2
     5    13     1    1
     6     1     2   ar
     7     2     3   ar
     8     3     4   ar
     9     4    16    1
    10    16    17    1
    11    17    18    1
    12    18    19    1
    13    19    20    1
    14    20    21    1
    15    21    22    1
    16    22    23   am
    17    22    24    2
    18     4     5   ar
    19     5     6   ar
    20     6    27    1
    21    27    28    1
    22    28    29   ar
    23    29    30   ar
    24    30    31   ar
    25    31    32    1
    26    31    33   ar
    27    33    34   ar
    28     6     7   ar
    29     7     8   ar
    30     8     9   ar
    31     9     1   ar
    32     7     3   ar
    33    21    17    1
    34    34    28   ar
    35    12    15    1
    36    23    25    1
    37    23    26    1
@<TRIPOS>MOLECULE
*****
 34 37 0 0 0
SMALL
GASTEIGER

@<TRIPOS>ATOM
      1 C           6.1338   -3.0549   26.9391 C.ar    1  UNL1        0.1368
      2 C           5.3051   -1.8049   26.9665 C.ar    1  UNL1        0.0251
      3 C           4.7392   -1.2521   25.6920 C.ar    1  UNL1        0.0178
      4 C           3.8922   -0.0467   25.4096 C.ar    1  UNL1        0.0126
      5 C           3.6316    0.0010   23.9332 C.ar    1  UNL1        0.0732
      6 N           4.3175   -1.1749   23.3032 N.ar    1  UNL1       -0.3208
      7 C           5.0021   -1.9493   24.3902 C.ar    1  UNL1        0.0793
      8 C           5.8308   -3.1993   24.3628 C.ar    1  UNL1        0.1161
      9 N           6.3967   -3.7521   25.6372 N.ar    1  UNL1       -0.2377
     10 C           6.9042   -5.5477   29.9295 C.3     1  UNL1        0.1482
     11 N           6.3383   -4.9949   28.6550 N.am    1  UNL1       -0.1653
     12 O           5.4110   -5.8294   27.8221 O.3     1  UNL1       -0.2915
     13 C           6.6997   -3.6077   28.2135 C.2     1  UNL1        0.2887
     14 O           7.6270   -2.7733   29.0464 O.2     1  UNL1       -0.2662
     15 H           5.2831   -6.6922   28.2465 H       1  UNL1        0.2417
     16 C           3.3934    0.9379   26.4253 C.3     1  UNL1        0.1010
     17 N           2.1251    0.6624   27.1772 N.3     1  UNL1       -0.2627
     18 C           1.9982   -0.1748   28.4154 C.3     1  UNL1        0.0728
     19 C           0.5557   -0.1790   28.8264 C.3     1  UNL1        0.0192
     20 C          -0.2092    0.6556   27.8421 C.3     1  UNL1        0.0268
     21 C           0.7608    1.1755   26.8229 C.3     1  UNL1        0.1348
     22 C           0.4254    2.0544   25.6545 C.2     1  UNL1        0.2339
     23 N           0.2924    3.5363   25.8445 N.am    1  UNL1       -0.3277
     24 O           0.2232    1.4513   24.2960 O.2     1  UNL1       -0.2739
     25 H           0.4251    3.9322   26.7361 H       1  UNL1        0.1450
     26 H           0.0723    4.1132   25.0776 H       1  UNL1        0.1450
     27 C           4.3187   -1.5163   21.8426 C.3     1  UNL1        0.1328
     28 C           3.4468   -0.7500   20.8925 C.ar    1  UNL1        0.0005
     29 C           4.0395    0.3270   20.0331 C.ar    1  UNL1       -0.0001
     30 C           3.1676    1.0933   19.0830 C.ar    1  UNL1        0.0294
     31 C           1.7030    0.7825   18.9924 C.ar    1  UNL1        0.1401
     32 F           0.8310    1.5488   18.0423 F       1  UNL1       -0.2042
     33 C           1.1103   -0.2945   19.8518 C.ar    1  UNL1        0.0294
     34 C           1.9822   -1.0608   20.8018 C.ar    1  UNL1       -0.0001
@<TRIPOS>BOND
     1    10    11    1
     2    11    12    1
     3    11    13   am
     4    13    14    2
     5    13     1    1
     6     1     2   ar
     7     2     3   ar
     8     3     4   ar
     9     4    16    1
    10    16    17    1
    11    17    18    1
    12    18    19    1
    13    19    20    1
    14    20    21    1
    15    21    22    1
    16    22    23   am
    17    22    24    2
    18     4     5   ar
    19     5     6   ar
    20     6    27    1
    21    27    28    1
    22    28    29   ar
    23    29    30   ar
    24    30    31   ar
    25    31    32    1
    26    31    33   ar
    27    33    34   ar
    28     6     7   ar
    29     7     8   ar
    30     8     9   ar
    31     9     1   ar
    32     7     3   ar
    33    21    17    1
    34    34    28   ar
    35    12    15    1
    36    23    25    1
    37    23    26    1
