@<TRIPOS>MOLECULE
*****
 29 31 0 0 0
SMALL
GASTEIGER

@<TRIPOS>ATOM
      1 C          -8.3439  -18.9409   21.2347 C.2     1  UNL1        0.2252
      2 O          -8.2033  -18.9510   19.7414 O.2     1  UNL1       -0.2750
      3 N          -7.3545  -19.6799   22.0862 N.am    1  UNL1       -0.3004
      4 H          -7.4468  -19.6733   23.0664 H       1  UNL1        0.1497
      5 C          -9.4739  -18.1918   21.8766 C.3     1  UNL1        0.1154
      6 C         -10.7543  -19.5449   22.6246 C.3     1  UNL1        0.0335
      7 C          -9.8848  -18.5147   23.2825 C.3     1  UNL1        0.1377
      8 C          -8.9295  -17.4171   23.6465 C.3     1  UNL1        0.0613
      9 C          -8.9317  -17.2770   25.1400 C.3     1  UNL1        0.1290
     10 C          -9.0389  -17.2536   26.6360 C.3     1  UNL1        0.0305
     11 C          -8.2270  -16.2744   27.4308 C.3     1  UNL1        0.0025
     12 C          -7.3077  -15.3186   26.7298 C.3     1  UNL1        0.0002
     13 C          -7.2005  -15.3420   25.2338 C.3     1  UNL1        0.0025
     14 C          -8.0124  -16.3212   24.4390 C.3     1  UNL1        0.0305
     15 O          -9.8884  -18.2881   25.6990 O.3     1  UNL1       -0.2256
     16 O         -10.4775  -19.0531   24.5510 O.3     1  UNL1       -0.2251
     17 C          -6.2245  -20.4289   21.4444 C.3     1  UNL1        0.1163
     18 C          -4.9199  -19.7371   21.1810 C.ar    1  UNL1       -0.0025
     19 C          -4.4576  -19.5195   19.7707 C.ar    1  UNL1       -0.0012
     20 C          -3.1531  -18.8276   19.5074 C.ar    1  UNL1        0.0196
     21 C          -2.3107  -18.3534   20.6543 C.ar    1  UNL1        0.1217
     22 C          -2.7729  -18.5709   22.0646 C.ar    1  UNL1        0.0196
     23 C          -4.0776  -19.2628   22.3280 C.ar    1  UNL1       -0.0012
     24 S          -1.0061  -17.6615   20.3909 S.O2    1  UNL1        0.0572
     25 N           0.2985  -16.9697   20.1275 N.3     1  UNL1       -0.2035
     26 O          -1.5588  -16.3960   20.9767 O.2     1  UNL1       -0.1532
     27 O          -0.4533  -18.9269   19.8052 O.2     1  UNL1       -0.1532
     28 H           0.2398  -16.0016   20.4433 H       1  UNL1        0.1442
     29 H           0.4980  -16.9896   19.1274 H       1  UNL1        0.1442
@<TRIPOS>BOND
     1     6     7    1
     2     7     5    1
     3     5     1    1
     4     1     2    2
     5     1     3   am
     6     3    17    1
     7    17    18    1
     8    18    19   ar
     9    19    20   ar
    10    20    21   ar
    11    21    24    1
    12    24    25    1
    13    24    26    2
    14    24    27    2
    15    21    22   ar
    16    22    23   ar
    17     7     8    1
    18     8     9    1
    19     9    10    1
    20    10    11    1
    21    11    12    1
    22    12    13    1
    23    13    14    1
    24     9    15    1
    25    15    16    1
    26    16     7    1
    27    23    18   ar
    28    14     9    1
    29     3     4    1
    30    25    28    1
    31    25    29    1
@<TRIPOS>MOLECULE
*****
 29 31 0 0 0
SMALL
GASTEIGER

@<TRIPOS>ATOM
      1 C          -7.5462  -19.1488   20.2012 C.2     1  UNL1        0.2252
      2 O          -7.5688  -17.8090   20.8753 O.2     1  UNL1       -0.2750
      3 N          -8.7876  -19.6811   19.5486 N.am    1  UNL1       -0.3004
      4 H          -8.7728  -20.5604   19.1062 H       1  UNL1        0.1497
      5 C          -6.2823  -19.9564   20.1796 C.3     1  UNL1        0.1154
      6 C          -6.3472  -20.4122   22.1335 C.3     1  UNL1        0.0335
      7 C          -5.2749  -19.8022   21.2802 C.3     1  UNL1        0.1377
      8 C          -4.4133  -19.2244   20.1969 C.3     1  UNL1        0.0613
      9 C          -3.0974  -18.8405   20.8063 C.3     1  UNL1        0.1290
     10 C          -1.8389  -18.5093   21.5522 C.3     1  UNL1        0.0305
     11 C          -0.6784  -17.8931   20.8286 C.3     1  UNL1        0.0025
     12 C          -0.7765  -17.6081   19.3592 C.3     1  UNL1        0.0002
     13 C          -2.0350  -17.9394   18.6133 C.3     1  UNL1        0.0025
     14 C          -3.1955  -18.5556   19.3369 C.3     1  UNL1        0.0305
     15 O          -3.1459  -19.1811   22.2663 O.3     1  UNL1       -0.2256
     16 O          -4.4917  -19.7755   22.5593 O.3     1  UNL1       -0.2251
     17 C         -10.0514  -18.8735   19.5702 C.3     1  UNL1        0.1163
     18 C         -10.8666  -18.7899   20.8265 C.ar    1  UNL1       -0.0025
     19 C         -12.0004  -17.8123   20.9213 C.ar    1  UNL1       -0.0012
     20 C         -12.8156  -17.7287   22.1776 C.ar    1  UNL1        0.0196
     21 C         -12.4971  -18.6228   23.3392 C.ar    1  UNL1        0.1217
     22 C         -11.3635  -19.6003   23.2445 C.ar    1  UNL1        0.0196
     23 C         -10.5482  -19.6839   21.9881 C.ar    1  UNL1       -0.0012
     24 S         -13.3124  -18.5391   24.5956 S.O2    1  UNL1        0.0572
     25 N         -14.1276  -18.4555   25.8519 N.3     1  UNL1       -0.2035
     26 O         -14.5185  -18.1613   23.7878 O.2     1  UNL1       -0.1532
     27 O         -12.1063  -18.9170   25.4034 O.2     1  UNL1       -0.1532
     28 H         -15.0857  -18.1943   25.6188 H       1  UNL1        0.1442
     29 H         -13.7251  -17.7531   26.4723 H       1  UNL1        0.1442
@<TRIPOS>BOND
     1     6     7    1
     2     7     5    1
     3     5     1    1
     4     1     2    2
     5     1     3   am
     6     3    17    1
     7    17    18    1
     8    18    19   ar
     9    19    20   ar
    10    20    21   ar
    11    21    24    1
    12    24    25    1
    13    24    26    2
    14    24    27    2
    15    21    22   ar
    16    22    23   ar
    17     7     8    1
    18     8     9    1
    19     9    10    1
    20    10    11    1
    21    11    12    1
    22    12    13    1
    23    13    14    1
    24     9    15    1
    25    15    16    1
    26    16     7    1
    27    23    18   ar
    28    14     9    1
    29     3     4    1
    30    25    28    1
    31    25    29    1
@<TRIPOS>MOLECULE
*****
 29 31 0 0 0
SMALL
GASTEIGER

@<TRIPOS>ATOM
      1 C          -7.7144  -19.3064   21.0916 C.2     1  UNL1        0.2252
      2 O          -7.5217  -17.8209   21.1665 O.2     1  UNL1       -0.2750
      3 N          -6.8223  -20.2192   21.8797 N.am    1  UNL1       -0.3004
      4 H          -6.9488  -21.1943   21.8305 H       1  UNL1        0.1497
      5 C          -8.7992  -19.8794   20.2284 C.3     1  UNL1        0.1154
      6 C          -9.5906  -19.0851   18.5633 C.3     1  UNL1        0.0335
      7 C         -10.0576  -19.0992   19.9887 C.3     1  UNL1        0.1377
      8 C         -10.2615  -19.2764   21.4641 C.3     1  UNL1        0.0613
      9 C         -11.5484  -18.6027   21.8385 C.3     1  UNL1        0.1290
     10 C         -12.8495  -17.8903   22.0612 C.3     1  UNL1        0.0305
     11 C         -13.4411  -17.8221   23.4379 C.3     1  UNL1        0.0025
     12 C         -12.7316  -18.4664   24.5919 C.3     1  UNL1        0.0002
     13 C         -11.4305  -19.1787   24.3691 C.3     1  UNL1        0.0025
     14 C         -10.8389  -19.2469   22.9924 C.3     1  UNL1        0.0305
     15 O         -12.1398  -18.0091   20.5943 O.3     1  UNL1       -0.2256
     16 O         -11.2184  -18.3159   19.4510 O.3     1  UNL1       -0.2251
     17 C          -5.7376  -19.6463   22.7428 C.3     1  UNL1        0.1163
     18 C          -4.4764  -19.1284   22.1174 C.ar    1  UNL1       -0.0025
     19 C          -3.7136  -18.0176   22.7764 C.ar    1  UNL1       -0.0012
     20 C          -2.4524  -17.4998   22.1510 C.ar    1  UNL1        0.0196
     21 C          -1.9540  -18.0927   20.8665 C.ar    1  UNL1        0.1217
     22 C          -2.7167  -19.2034   20.2075 C.ar    1  UNL1        0.0196
     23 C          -3.9779  -19.7214   20.8329 C.ar    1  UNL1       -0.0012
     24 S          -0.6927  -17.5748   20.2411 S.O2    1  UNL1        0.0572
     25 N           0.5685  -17.0569   19.6157 N.3     1  UNL1       -0.2035
     26 O          -0.3698  -18.9547   19.7494 O.2     1  UNL1       -0.1532
     27 O          -1.0156  -16.1950   20.7327 O.2     1  UNL1       -0.1532
     28 H           1.0614  -17.8241   19.1588 H       1  UNL1        0.1442
     29 H           1.1645  -16.6519   20.3376 H       1  UNL1        0.1442
@<TRIPOS>BOND
     1     6     7    1
     2     7     5    1
     3     5     1    1
     4     1     2    2
     5     1     3   am
     6     3    17    1
     7    17    18    1
     8    18    19   ar
     9    19    20   ar
    10    20    21   ar
    11    21    24    1
    12    24    25    1
    13    24    26    2
    14    24    27    2
    15    21    22   ar
    16    22    23   ar
    17     7     8    1
    18     8     9    1
    19     9    10    1
    20    10    11    1
    21    11    12    1
    22    12    13    1
    23    13    14    1
    24     9    15    1
    25    15    16    1
    26    16     7    1
    27    23    18   ar
    28    14     9    1
    29     3     4    1
    30    25    28    1
    31    25    29    1
@<TRIPOS>MOLECULE
*****
 29 31 0 0 0
SMALL
GASTEIGER

@<TRIPOS>ATOM
      1 C          -7.0484  -19.0120   21.6565 C.2     1  UNL1        0.2252
      2 O          -7.8462  -18.8263   20.4000 O.2     1  UNL1       -0.2750
      3 N          -7.3057  -18.1337   22.8451 N.am    1  UNL1       -0.3004
      4 H          -6.7821  -18.2556   23.6698 H       1  UNL1        0.1497
      5 C          -5.9931  -20.0759   21.7246 C.3     1  UNL1        0.1154
      6 C          -5.8141  -21.3401   20.1756 C.3     1  UNL1        0.0335
      7 C          -4.9698  -20.1881   20.6338 C.3     1  UNL1        0.1377
      8 C          -4.3394  -19.0126   21.3199 C.3     1  UNL1        0.0613
      9 C          -3.1028  -18.6390   20.5573 C.3     1  UNL1        0.1290
     10 C          -1.9004  -18.3840   19.6976 C.3     1  UNL1        0.0305
     11 C          -0.9625  -17.2627   20.0335 C.3     1  UNL1        0.0025
     12 C          -1.2269  -16.3964   21.2292 C.3     1  UNL1        0.0002
     13 C          -2.4293  -16.6514   22.0889 C.3     1  UNL1        0.0025
     14 C          -3.3673  -17.7727   21.7530 C.3     1  UNL1        0.0305
     15 O          -2.9690  -19.5836   19.3998 O.3     1  UNL1       -0.2256
     16 O          -4.1229  -20.5410   19.4470 O.3     1  UNL1       -0.2251
     17 C          -8.3610  -17.0699   22.7770 C.3     1  UNL1        0.1163
     18 C          -9.7763  -17.3920   23.1552 C.ar    1  UNL1       -0.0025
     19 C         -10.0538  -18.3771   24.2519 C.ar    1  UNL1       -0.0012
     20 C         -11.4691  -18.6993   24.6301 C.ar    1  UNL1        0.0196
     21 C         -12.6069  -18.0363   23.9118 C.ar    1  UNL1        0.1217
     22 C         -12.3294  -17.0513   22.8152 C.ar    1  UNL1        0.0196
     23 C         -10.9140  -16.7291   22.4369 C.ar    1  UNL1       -0.0012
     24 S         -14.0222  -18.3586   24.2901 S.O2    1  UNL1        0.0572
     25 N         -15.4375  -18.6807   24.6683 N.3     1  UNL1       -0.2035
     26 O         -13.6026  -18.5221   25.7209 O.2     1  UNL1       -0.1532
     27 O         -14.4419  -18.1950   22.8593 O.2     1  UNL1       -0.1532
     28 H         -15.4893  -18.8586   25.6714 H       1  UNL1        0.1442
     29 H         -15.7451  -19.5097   24.1597 H       1  UNL1        0.1442
@<TRIPOS>BOND
     1     6     7    1
     2     7     5    1
     3     5     1    1
     4     1     2    2
     5     1     3   am
     6     3    17    1
     7    17    18    1
     8    18    19   ar
     9    19    20   ar
    10    20    21   ar
    11    21    24    1
    12    24    25    1
    13    24    26    2
    14    24    27    2
    15    21    22   ar
    16    22    23   ar
    17     7     8    1
    18     8     9    1
    19     9    10    1
    20    10    11    1
    21    11    12    1
    22    12    13    1
    23    13    14    1
    24     9    15    1
    25    15    16    1
    26    16     7    1
    27    23    18   ar
    28    14     9    1
    29     3     4    1
    30    25    28    1
    31    25    29    1
@<TRIPOS>MOLECULE
*****
 29 31 0 0 0
SMALL
GASTEIGER

@<TRIPOS>ATOM
      1 C          -8.0217  -16.0429   23.3852 C.2     1  UNL1        0.2252
      2 O          -7.7688  -15.1193   22.2307 O.2     1  UNL1       -0.2750
      3 N          -6.9277  -16.3283   24.3710 N.am    1  UNL1       -0.3004
      4 H          -7.0937  -16.9346   25.1288 H       1  UNL1        0.1497
      5 C          -9.3687  -16.6812   23.5540 C.3     1  UNL1        0.1154
      6 C         -11.2035  -16.1874   22.9063 C.3     1  UNL1        0.0335
      7 C         -10.1549  -17.1033   22.3483 C.3     1  UNL1        0.1377
      8 C          -8.9419  -17.9311   22.0424 C.3     1  UNL1        0.0613
      9 C          -9.1976  -18.6734   20.7642 C.3     1  UNL1        0.1290
     10 C          -9.5939  -19.3458   19.4833 C.3     1  UNL1        0.0305
     11 C          -8.6452  -20.2911   18.8078 C.3     1  UNL1        0.0025
     12 C          -7.3002  -20.5640   19.4131 C.3     1  UNL1        0.0002
     13 C          -6.9039  -19.8915   20.6940 C.3     1  UNL1        0.0025
     14 C          -7.8526  -18.9463   21.3696 C.3     1  UNL1        0.0305
     15 O         -10.5686  -18.3044   20.2802 O.3     1  UNL1       -0.2256
     16 O         -11.1603  -17.3340   21.2593 O.3     1  UNL1       -0.2251
     17 C          -5.5808  -15.6901   24.2022 C.3     1  UNL1        0.1163
     18 C          -4.5413  -16.3482   23.3443 C.ar    1  UNL1       -0.0025
     19 C          -3.4530  -15.5256   22.7206 C.ar    1  UNL1       -0.0012
     20 C          -2.4135  -16.1837   21.8626 C.ar    1  UNL1        0.0196
     21 C          -2.4621  -17.6644   21.6283 C.ar    1  UNL1        0.1217
     22 C          -3.5503  -18.4871   22.2519 C.ar    1  UNL1        0.0196
     23 C          -4.5899  -17.8290   23.1100 C.ar    1  UNL1       -0.0012
     24 S          -1.4225  -18.3225   20.7702 S.O2    1  UNL1        0.0572
     25 N          -0.3829  -18.9807   19.9123 N.3     1  UNL1       -0.2035
     26 O          -1.1160  -17.0018   20.1285 O.2     1  UNL1       -0.1532
     27 O          -1.7289  -19.6432   21.4120 O.2     1  UNL1       -0.1532
     28 H           0.0492  -18.2831   19.3064 H       1  UNL1        0.1442
     29 H          -0.8212  -19.7028   19.3406 H       1  UNL1        0.1442
@<TRIPOS>BOND
     1     6     7    1
     2     7     5    1
     3     5     1    1
     4     1     2    2
     5     1     3   am
     6     3    17    1
     7    17    18    1
     8    18    19   ar
     9    19    20   ar
    10    20    21   ar
    11    21    24    1
    12    24    25    1
    13    24    26    2
    14    24    27    2
    15    21    22   ar
    16    22    23   ar
    17     7     8    1
    18     8     9    1
    19     9    10    1
    20    10    11    1
    21    11    12    1
    22    12    13    1
    23    13    14    1
    24     9    15    1
    25    15    16    1
    26    16     7    1
    27    23    18   ar
    28    14     9    1
    29     3     4    1
    30    25    28    1
    31    25    29    1
@<TRIPOS>MOLECULE
*****
 29 31 0 0 0
SMALL
GASTEIGER

@<TRIPOS>ATOM
      1 C          -6.5393  -16.7634   23.4590 C.2     1  UNL1        0.2252
      2 O          -6.4891  -17.8601   22.4370 O.2     1  UNL1       -0.2750
      3 N          -5.3674  -16.5288   24.3656 N.am    1  UNL1       -0.3004
      4 H          -5.4004  -15.8090   25.0364 H       1  UNL1        0.1497
      5 C          -7.7613  -15.9011   23.5745 C.3     1  UNL1        0.1154
      6 C          -7.4978  -14.8753   21.8692 C.3     1  UNL1        0.0335
      7 C          -8.6468  -15.6918   22.3821 C.3     1  UNL1        0.1377
      8 C          -9.6107  -16.5521   23.1443 C.3     1  UNL1        0.0613
      9 C         -10.8520  -16.7038   22.3157 C.3     1  UNL1        0.1290
     10 C         -12.0225  -16.7652   21.3797 C.3     1  UNL1        0.0305
     11 C         -13.2457  -17.5462   21.7588 C.3     1  UNL1        0.0025
     12 C         -13.2983  -18.2658   23.0739 C.3     1  UNL1        0.0002
     13 C         -12.1278  -18.2044   24.0098 C.3     1  UNL1        0.0025
     14 C         -10.9046  -17.4233   23.6307 C.3     1  UNL1        0.0305
     15 O         -10.6551  -15.9373   21.0414 O.3     1  UNL1       -0.2256
     16 O          -9.2923  -15.3118   21.0824 O.3     1  UNL1       -0.2251
     17 C          -4.1455  -17.3910   24.2501 C.3     1  UNL1        0.1163
     18 C          -3.4351  -17.5128   22.9346 C.ar    1  UNL1       -0.0025
     19 C          -3.4308  -18.8222   22.2029 C.ar    1  UNL1       -0.0012
     20 C          -2.7204  -18.9439   20.8874 C.ar    1  UNL1        0.0196
     21 C          -2.0144  -17.7562   20.3036 C.ar    1  UNL1        0.1217
     22 C          -2.0187  -16.4469   21.0352 C.ar    1  UNL1        0.0196
     23 C          -2.7291  -16.3251   22.3508 C.ar    1  UNL1       -0.0012
     24 S          -1.3040  -17.8780   18.9880 S.O2    1  UNL1        0.0572
     25 N          -0.5936  -17.9998   17.6725 N.3     1  UNL1       -0.2035
     26 O          -2.4250  -17.1432   18.3146 O.2     1  UNL1       -0.1532
     27 O          -0.1831  -18.6128   19.6614 O.2     1  UNL1       -0.1532
     28 H          -1.1513  -17.5564   16.9426 H       1  UNL1        0.1442
     29 H          -0.4614  -18.9859   17.4475 H       1  UNL1        0.1442
@<TRIPOS>BOND
     1     6     7    1
     2     7     5    1
     3     5     1    1
     4     1     2    2
     5     1     3   am
     6     3    17    1
     7    17    18    1
     8    18    19   ar
     9    19    20   ar
    10    20    21   ar
    11    21    24    1
    12    24    25    1
    13    24    26    2
    14    24    27    2
    15    21    22   ar
    16    22    23   ar
    17     7     8    1
    18     8     9    1
    19     9    10    1
    20    10    11    1
    21    11    12    1
    22    12    13    1
    23    13    14    1
    24     9    15    1
    25    15    16    1
    26    16     7    1
    27    23    18   ar
    28    14     9    1
    29     3     4    1
    30    25    28    1
    31    25    29    1
@<TRIPOS>MOLECULE
*****
 29 31 0 0 0
SMALL
GASTEIGER

@<TRIPOS>ATOM
      1 C         -14.6807   -2.7237   19.0914 C.2     1  UNL1        0.2252
      2 O         -15.0248   -2.7382   17.6316 O.2     1  UNL1       -0.2750
      3 N         -15.5908   -3.3858   20.0832 N.am    1  UNL1       -0.3004
      4 H         -15.3649   -3.3763   21.0414 H       1  UNL1        0.1497
      5 C         -13.4264   -2.0471   19.5597 C.3     1  UNL1        0.1154
      6 C         -12.3364   -0.6655   18.5941 C.3     1  UNL1        0.0335
      7 C         -12.1708   -2.1486   18.7455 C.3     1  UNL1        0.1377
      8 C         -12.2677   -3.6105   19.0672 C.3     1  UNL1        0.0613
      9 C         -11.1065   -4.3055   18.4200 C.3     1  UNL1        0.1290
     10 C          -9.9017   -4.8595   17.7191 C.3     1  UNL1        0.0305
     11 C          -9.6068   -6.3289   17.7825 C.3     1  UNL1        0.0025
     12 C         -10.5169   -7.2442   18.5468 C.3     1  UNL1        0.0002
     13 C         -11.7217   -6.6901   19.2476 C.3     1  UNL1        0.0025
     14 C         -12.0166   -5.2208   19.1843 C.3     1  UNL1        0.0305
     15 O         -10.2920   -3.2731   17.6984 O.3     1  UNL1       -0.2256
     16 O         -10.9497   -1.9400   17.8996 O.3     1  UNL1       -0.2251
     17 C         -16.8449   -4.0624   19.6149 C.3     1  UNL1        0.1163
     18 C         -16.8831   -5.5550   19.4714 C.ar    1  UNL1       -0.0025
     19 C         -15.6087   -6.3232   19.2822 C.ar    1  UNL1       -0.0012
     20 C         -15.6469   -7.8158   19.1388 C.ar    1  UNL1        0.0196
     21 C         -16.9596   -8.5403   19.1845 C.ar    1  UNL1        0.1217
     22 C         -18.2339   -7.7722   19.3737 C.ar    1  UNL1        0.0196
     23 C         -18.1958   -6.2795   19.5172 C.ar    1  UNL1       -0.0012
     24 S         -16.9977  -10.0330   19.0411 S.O2    1  UNL1        0.0572
     25 N         -17.0358  -11.5256   18.8976 N.3     1  UNL1       -0.2035
     26 O         -18.4948  -10.0034   19.1303 O.2     1  UNL1       -0.1532
     27 O         -15.5007  -10.0626   18.9518 O.2     1  UNL1       -0.1532
     28 H         -18.0042  -11.8449   18.9223 H       1  UNL1        0.1442
     29 H         -16.5168  -11.9542   19.6640 H       1  UNL1        0.1442
@<TRIPOS>BOND
     1     6     7    1
     2     7     5    1
     3     5     1    1
     4     1     2    2
     5     1     3   am
     6     3    17    1
     7    17    18    1
     8    18    19   ar
     9    19    20   ar
    10    20    21   ar
    11    21    24    1
    12    24    25    1
    13    24    26    2
    14    24    27    2
    15    21    22   ar
    16    22    23   ar
    17     7     8    1
    18     8     9    1
    19     9    10    1
    20    10    11    1
    21    11    12    1
    22    12    13    1
    23    13    14    1
    24     9    15    1
    25    15    16    1
    26    16     7    1
    27    23    18   ar
    28    14     9    1
    29     3     4    1
    30    25    28    1
    31    25    29    1
@<TRIPOS>MOLECULE
*****
 29 31 0 0 0
SMALL
GASTEIGER

@<TRIPOS>ATOM
      1 C          -5.5379  -19.2910   20.9349 C.2     1  UNL1        0.2252
      2 O          -5.8034  -20.5431   21.7169 O.2     1  UNL1       -0.2750
      3 N          -6.5618  -18.7814   19.9643 N.am    1  UNL1       -0.3004
      4 H          -6.3875  -17.9595   19.4511 H       1  UNL1        0.1497
      5 C          -4.2483  -18.5482   21.1235 C.3     1  UNL1        0.1154
      6 C          -2.5722  -19.0130   22.1257 C.3     1  UNL1        0.0335
      7 C          -3.7766  -18.2034   22.5050 C.3     1  UNL1        0.1377
      8 C          -5.0796  -17.4659   22.5956 C.3     1  UNL1        0.0613
      9 C          -5.1616  -16.8345   23.9538 C.3     1  UNL1        0.1290
     10 C          -5.1025  -16.2662   25.3407 C.3     1  UNL1        0.0305
     11 C          -6.2375  -15.4337   25.8590 C.3     1  UNL1        0.0025
     12 C          -7.4316  -15.1695   24.9904 C.3     1  UNL1        0.0002
     13 C          -7.4906  -15.7378   23.6035 C.3     1  UNL1        0.0025
     14 C          -6.3556  -16.5703   23.0852 C.3     1  UNL1        0.0305
     15 O          -3.9091  -17.1818   24.7027 O.3     1  UNL1       -0.2256
     16 O          -3.0531  -18.0279   23.8073 O.3     1  UNL1       -0.2251
     17 C          -7.8513  -19.5241   19.7757 C.3     1  UNL1        0.1163
     18 C          -9.0398  -19.1918   20.6284 C.ar    1  UNL1       -0.0025
     19 C          -8.8846  -19.0654   22.1150 C.ar    1  UNL1       -0.0012
     20 C         -10.0731  -18.7331   22.9676 C.ar    1  UNL1        0.0196
     21 C         -11.4168  -18.5272   22.3337 C.ar    1  UNL1        0.1217
     22 C         -11.5721  -18.6536   20.8472 C.ar    1  UNL1        0.0196
     23 C         -10.3836  -18.9860   19.9944 C.ar    1  UNL1       -0.0012
     24 S         -12.6053  -18.1949   23.1864 S.O2    1  UNL1        0.0572
     25 N         -13.7938  -17.8626   24.0391 N.3     1  UNL1       -0.2035
     26 O         -11.8611  -18.6570   24.4040 O.2     1  UNL1       -0.1532
     27 O         -13.3496  -17.7328   21.9689 O.2     1  UNL1       -0.1532
     28 H         -13.5861  -18.0835   25.0129 H       1  UNL1        0.1442
     29 H         -14.5974  -18.4097   23.7303 H       1  UNL1        0.1442
@<TRIPOS>BOND
     1     6     7    1
     2     7     5    1
     3     5     1    1
     4     1     2    2
     5     1     3   am
     6     3    17    1
     7    17    18    1
     8    18    19   ar
     9    19    20   ar
    10    20    21   ar
    11    21    24    1
    12    24    25    1
    13    24    26    2
    14    24    27    2
    15    21    22   ar
    16    22    23   ar
    17     7     8    1
    18     8     9    1
    19     9    10    1
    20    10    11    1
    21    11    12    1
    22    12    13    1
    23    13    14    1
    24     9    15    1
    25    15    16    1
    26    16     7    1
    27    23    18   ar
    28    14     9    1
    29     3     4    1
    30    25    28    1
    31    25    29    1
@<TRIPOS>MOLECULE
*****
 29 31 0 0 0
SMALL
GASTEIGER

@<TRIPOS>ATOM
      1 C          -8.7701  -19.0926   20.9138 C.2     1  UNL1        0.2252
      2 O          -8.8286  -20.1763   21.9491 O.2     1  UNL1       -0.2750
      3 N          -7.6115  -19.0250   19.9634 N.am    1  UNL1       -0.3004
      4 H          -7.5731  -18.3137   19.2838 H       1  UNL1        0.1497
      5 C          -9.8702  -18.0764   20.8287 C.3     1  UNL1        0.1154
      6 C         -11.7502  -17.9798   21.5258 C.3     1  UNL1        0.0335
      7 C         -10.4468  -17.4886   22.0824 C.3     1  UNL1        0.1377
      8 C          -9.0229  -17.1204   22.3770 C.3     1  UNL1        0.0613
      9 C          -8.9918  -16.4076   23.6965 C.3     1  UNL1        0.1290
     10 C          -9.1164  -15.7151   25.0212 C.3     1  UNL1        0.0305
     11 C          -7.8951  -15.1703   25.7005 C.3     1  UNL1        0.0025
     12 C          -6.5491  -15.3180   25.0550 C.3     1  UNL1        0.0002
     13 C          -6.4245  -16.0105   23.7304 C.3     1  UNL1        0.0025
     14 C          -7.6458  -16.5553   23.0511 C.3     1  UNL1        0.0305
     15 O         -10.3966  -16.3354   24.2175 O.3     1  UNL1       -0.2256
     16 O         -11.2959  -17.0035   23.2199 O.3     1  UNL1       -0.2251
     17 C          -6.5114  -20.0412   20.0485 C.3     1  UNL1        0.1163
     18 C          -5.0822  -19.5939   20.1331 C.ar    1  UNL1       -0.0025
     19 C          -4.6257  -18.3913   19.3616 C.ar    1  UNL1       -0.0012
     20 C          -3.1964  -17.9440   19.4463 C.ar    1  UNL1        0.0196
     21 C          -2.2237  -18.6994   20.3024 C.ar    1  UNL1        0.1217
     22 C          -2.6801  -19.9020   21.0739 C.ar    1  UNL1        0.0196
     23 C          -4.1094  -20.3493   20.9893 C.ar    1  UNL1       -0.0012
     24 S          -0.7944  -18.2521   20.3870 S.O2    1  UNL1        0.0572
     25 N           0.6349  -17.8048   20.4717 N.3     1  UNL1       -0.2035
     26 O          -0.6825  -18.3268   18.8931 O.2     1  UNL1       -0.1532
     27 O          -0.9062  -18.1774   21.8810 O.2     1  UNL1       -0.1532
     28 H           1.0306  -17.7513   19.5331 H       1  UNL1        0.1442
     29 H           1.1680  -18.4733   21.0278 H       1  UNL1        0.1442
@<TRIPOS>BOND
     1     6     7    1
     2     7     5    1
     3     5     1    1
     4     1     2    2
     5     1     3   am
     6     3    17    1
     7    17    18    1
     8    18    19   ar
     9    19    20   ar
    10    20    21   ar
    11    21    24    1
    12    24    25    1
    13    24    26    2
    14    24    27    2
    15    21    22   ar
    16    22    23   ar
    17     7     8    1
    18     8     9    1
    19     9    10    1
    20    10    11    1
    21    11    12    1
    22    12    13    1
    23    13    14    1
    24     9    15    1
    25    15    16    1
    26    16     7    1
    27    23    18   ar
    28    14     9    1
    29     3     4    1
    30    25    28    1
    31    25    29    1
