@<TRIPOS>MOLECULE
*****
 32 36 0 0 0
SMALL
GASTEIGER

@<TRIPOS>ATOM
      1 C           0.2162    1.9219   25.2225 C.ar    1  UNL1        0.0177
      2 C          -0.8389    2.9455   24.9244 C.ar    1  UNL1        0.0046
      3 C          -1.2569    3.2008   23.5067 C.ar    1  UNL1        0.0374
      4 C          -0.6196    2.4326   22.3870 C.ar    1  UNL1        0.1478
      5 N          -0.8253    2.4674   20.9015 N.ar    1  UNL1       -0.2249
      6 C           0.1028    1.4652   20.2815 C.ar    1  UNL1        0.1180
      7 C           0.8820    0.8112   21.3838 C.ar    1  UNL1        0.0845
      8 N           0.4356    1.4091   22.6850 N.ar    1  UNL1       -0.2888
      9 C           0.8535    1.1537   24.1028 C.ar    1  UNL1        0.0814
     10 C           1.4701    1.1557   29.4759 C.ar    1  UNL1        0.0536
     11 C           0.0572    0.8859   29.0502 C.ar    1  UNL1        0.0045
     12 C          -0.3607    1.1413   27.6325 C.ar    1  UNL1        0.0002
     13 C           0.6342    1.6665   26.6403 C.ar    1  UNL1        0.0015
     14 C           2.0470    1.9364   27.0659 C.ar    1  UNL1        0.0002
     15 C           2.4649    1.6810   28.4837 C.ar    1  UNL1        0.0045
     16 C           1.3850    5.2471   34.9988 C.3     1  UNL1        0.0897
     17 N           1.5108    4.1604   33.9725 N.3     1  UNL1       -0.2686
     18 C           1.0929    4.4158   32.5548 C.3     1  UNL1        0.0939
     19 C           1.2186    3.3291   31.5284 C.3     1  UNL1        0.1110
     20 N           1.7622    1.9870   31.9199 N.am    1  UNL1       -0.2732
     21 C           1.8880    0.9004   30.8936 C.2     1  UNL1        0.2491
     22 O           2.4316   -0.4417   31.2851 O.2     1  UNL1       -0.2699
     23 C           2.1801    1.7317   33.3378 C.3     1  UNL1        0.1110
     24 C           2.0544    2.8184   34.3640 C.3     1  UNL1        0.0939
     25 C           1.9247   -0.2538   21.2146 C.ar    1  UNL1        0.0177
     26 C           2.0452   -0.9850   19.9104 C.ar    1  UNL1        0.0022
     27 C           3.0879   -2.0500   19.7412 C.ar    1  UNL1        0.0103
     28 C           4.0100   -2.3838   20.8761 C.ar    1  UNL1        0.0684
     29 C           3.8895   -1.6527   22.1803 C.ar    1  UNL1        0.0103
     30 C           2.8469   -0.5877   22.3495 C.ar    1  UNL1        0.0022
     31 C           5.0527   -3.4488   20.7069 C.1     1  UNL1        0.1004
     32 N           6.0954   -4.5138   20.5377 N.1     1  UNL1       -0.1908
@<TRIPOS>BOND
     1    16    17    1
     2    17    18    1
     3    18    19    1
     4    19    20    1
     5    20    21   am
     6    21    22    2
     7    21    10    1
     8    10    11   ar
     9    11    12   ar
    10    12    13   ar
    11    13     1    1
    12     1     2   ar
    13     2     3   ar
    14     3     4   ar
    15     4     5   ar
    16     5     6   ar
    17     6     7   ar
    18     7    25    1
    19    25    26   ar
    20    26    27   ar
    21    27    28   ar
    22    28    31    1
    23    31    32    3
    24    28    29   ar
    25    29    30   ar
    26     7     8   ar
    27     8     9   ar
    28    13    14   ar
    29    14    15   ar
    30    20    23    1
    31    23    24    1
    32    24    17    1
    33    15    10   ar
    34     9     1   ar
    35     8     4   ar
    36    30    25   ar
@<TRIPOS>MOLECULE
*****
 32 36 0 0 0
SMALL
GASTEIGER

@<TRIPOS>ATOM
      1 C           0.6600    1.5318   22.9972 C.ar    1  UNL1        0.0177
      2 C          -0.2806    2.4625   22.2909 C.ar    1  UNL1        0.0046
      3 C          -0.2599    2.5561   20.7940 C.ar    1  UNL1        0.0374
      4 C           0.7014    1.7190   20.0034 C.ar    1  UNL1        0.1478
      5 N           0.9500    1.5983   18.5290 N.ar    1  UNL1       -0.2249
      6 C           2.0442    0.5930   18.3242 C.ar    1  UNL1        0.1180
      7 C           2.4719    0.0923   19.6719 C.ar    1  UNL1        0.0845
      8 N           1.6420    0.7882   20.7097 N.ar    1  UNL1       -0.2888
      9 C           1.6213    0.6946   22.2066 C.ar    1  UNL1        0.0814
     10 C           0.5979    1.2508   27.4881 C.ar    1  UNL1        0.0536
     11 C           1.8511    0.9196   26.7331 C.ar    1  UNL1        0.0045
     12 C           1.8717    1.0132   25.2362 C.ar    1  UNL1        0.0002
     13 C           0.6393    1.4381   24.4942 C.ar    1  UNL1        0.0015
     14 C          -0.6138    1.7694   25.2491 C.ar    1  UNL1        0.0002
     15 C          -0.6345    1.6757   26.7461 C.ar    1  UNL1        0.0045
     16 C           0.7140    6.1527   32.3054 C.3     1  UNL1        0.0897
     17 N           0.6798    4.9038   31.4753 N.3     1  UNL1       -0.2686
     18 C           0.7005    4.9975   29.9784 C.3     1  UNL1        0.0939
     19 C           0.6663    3.7486   29.1482 C.3     1  UNL1        0.1110
     20 N           0.6115    2.4061   29.8151 N.am    1  UNL1       -0.2732
     21 C           0.5773    1.1572   28.9850 C.2     1  UNL1        0.2491
     22 O           0.5224   -0.1853   29.6518 O.2     1  UNL1       -0.2699
     23 C           0.5908    2.3125   31.3120 C.3     1  UNL1        0.1110
     24 C           0.6250    3.5613   32.1421 C.3     1  UNL1        0.0939
     25 C           3.5416   -0.9256   19.9356 C.ar    1  UNL1        0.0177
     26 C           4.9120   -0.4821   20.3544 C.ar    1  UNL1        0.0022
     27 C           5.9817   -1.5000   20.6181 C.ar    1  UNL1        0.0103
     28 C           5.6812   -2.9614   20.4630 C.ar    1  UNL1        0.0684
     29 C           4.3108   -3.4048   20.0441 C.ar    1  UNL1        0.0103
     30 C           3.2411   -2.3869   19.7805 C.ar    1  UNL1        0.0022
     31 C           6.7509   -3.9793   20.7266 C.1     1  UNL1        0.1004
     32 N           7.8207   -4.9971   20.9903 N.1     1  UNL1       -0.1908
@<TRIPOS>BOND
     1    16    17    1
     2    17    18    1
     3    18    19    1
     4    19    20    1
     5    20    21   am
     6    21    22    2
     7    21    10    1
     8    10    11   ar
     9    11    12   ar
    10    12    13   ar
    11    13     1    1
    12     1     2   ar
    13     2     3   ar
    14     3     4   ar
    15     4     5   ar
    16     5     6   ar
    17     6     7   ar
    18     7    25    1
    19    25    26   ar
    20    26    27   ar
    21    27    28   ar
    22    28    31    1
    23    31    32    3
    24    28    29   ar
    25    29    30   ar
    26     7     8   ar
    27     8     9   ar
    28    13    14   ar
    29    14    15   ar
    30    20    23    1
    31    23    24    1
    32    24    17    1
    33    15    10   ar
    34     9     1   ar
    35     8     4   ar
    36    30    25   ar
@<TRIPOS>MOLECULE
*****
 32 36 0 0 0
SMALL
GASTEIGER

@<TRIPOS>ATOM
      1 C          -0.6284    2.8944   23.1422 C.ar    1  UNL1        0.0177
      2 C          -1.5383    4.0326   22.7868 C.ar    1  UNL1        0.0046
      3 C          -1.7153    4.4314   21.3517 C.ar    1  UNL1        0.0374
      4 C          -0.9824    3.6918   20.2719 C.ar    1  UNL1        0.1478
      5 N          -0.9583    3.8565   18.7811 N.ar    1  UNL1       -0.2249
      6 C          -0.0335    2.8199   18.2152 C.ar    1  UNL1        0.1180
      7 C           0.5140    2.0147   19.3562 C.ar    1  UNL1        0.0845
      8 N          -0.0724    2.5535   20.6273 N.ar    1  UNL1       -0.2888
      9 C           0.1045    2.1548   22.0624 C.ar    1  UNL1        0.0814
     10 C          -0.0973    1.6981   27.4477 C.ar    1  UNL1        0.0536
     11 C           0.9489    1.3382   26.4347 C.ar    1  UNL1        0.0045
     12 C           0.7718    1.7369   24.9996 C.ar    1  UNL1        0.0002
     13 C          -0.4514    2.4956   24.5774 C.ar    1  UNL1        0.0015
     14 C          -1.4975    2.8555   25.5903 C.ar    1  UNL1        0.0002
     15 C          -1.3205    2.4568   27.0255 C.ar    1  UNL1        0.0045
     16 C           2.1736    5.2705   32.8634 C.3     1  UNL1        0.0897
     17 N           1.6502    4.2777   31.8683 N.3     1  UNL1       -0.2686
     18 C           1.4731    4.6765   30.4332 C.3     1  UNL1        0.0939
     19 C           0.9496    3.6837   29.4379 C.3     1  UNL1        0.1110
     20 N           0.6032    2.2921   29.8779 N.am    1  UNL1       -0.2732
     21 C           0.0798    1.2993   28.8828 C.2     1  UNL1        0.2491
     22 O          -0.2666   -0.0922   29.3228 O.2     1  UNL1       -0.2699
     23 C           0.7803    1.8934   31.3131 C.3     1  UNL1        0.1110
     24 C           1.3038    2.8861   32.3082 C.3     1  UNL1        0.0939
     25 C           1.4786    0.8713   19.2455 C.ar    1  UNL1        0.0177
     26 C           1.3419   -0.3157   20.1524 C.ar    1  UNL1        0.0022
     27 C           2.3065   -1.4591   20.0418 C.ar    1  UNL1        0.0103
     28 C           3.4077   -1.4156   19.0243 C.ar    1  UNL1        0.0684
     29 C           3.5444   -0.2286   18.1174 C.ar    1  UNL1        0.0103
     30 C           2.5798    0.9148   18.2280 C.ar    1  UNL1        0.0022
     31 C           4.3723   -2.5589   18.9136 C.1     1  UNL1        0.1004
     32 N           5.3369   -3.7023   18.8030 N.1     1  UNL1       -0.1908
@<TRIPOS>BOND
     1    16    17    1
     2    17    18    1
     3    18    19    1
     4    19    20    1
     5    20    21   am
     6    21    22    2
     7    21    10    1
     8    10    11   ar
     9    11    12   ar
    10    12    13   ar
    11    13     1    1
    12     1     2   ar
    13     2     3   ar
    14     3     4   ar
    15     4     5   ar
    16     5     6   ar
    17     6     7   ar
    18     7    25    1
    19    25    26   ar
    20    26    27   ar
    21    27    28   ar
    22    28    31    1
    23    31    32    3
    24    28    29   ar
    25    29    30   ar
    26     7     8   ar
    27     8     9   ar
    28    13    14   ar
    29    14    15   ar
    30    20    23    1
    31    23    24    1
    32    24    17    1
    33    15    10   ar
    34     9     1   ar
    35     8     4   ar
    36    30    25   ar
@<TRIPOS>MOLECULE
*****
 32 36 0 0 0
SMALL
GASTEIGER

@<TRIPOS>ATOM
      1 C          -0.2322    2.6729   20.3567 C.ar    1  UNL1        0.0177
      2 C          -1.0776    3.5815   19.5143 C.ar    1  UNL1        0.0046
      3 C          -2.1435    4.4208   20.1539 C.ar    1  UNL1        0.0374
      4 C          -2.3641    4.3516   21.6360 C.ar    1  UNL1        0.1478
      5 N          -3.3319    5.0553   22.5407 N.ar    1  UNL1       -0.2249
      6 C          -3.0845    4.5815   23.9422 C.ar    1  UNL1        0.1180
      7 C          -1.9640    3.5850   23.9037 C.ar    1  UNL1        0.0845
      8 N          -1.5188    3.4430   22.4784 N.ar    1  UNL1       -0.2888
      9 C          -0.4528    2.6036   21.8388 C.ar    1  UNL1        0.0814
     10 C           2.9658    0.1547   18.4378 C.ar    1  UNL1        0.0536
     11 C           1.8930   -0.4946   19.2610 C.ar    1  UNL1        0.0045
     12 C           0.8270    0.3448   19.9006 C.ar    1  UNL1        0.0002
     13 C           0.8338    1.8335   19.7170 C.ar    1  UNL1        0.0015
     14 C           1.9065    2.4828   18.8938 C.ar    1  UNL1        0.0002
     15 C           2.9725    1.6434   18.2542 C.ar    1  UNL1        0.0045
     16 C           8.7779   -2.4644   21.0084 C.3     1  UNL1        0.0897
     17 N           7.5914   -2.0195   20.2059 N.3     1  UNL1       -0.2686
     18 C           6.5254   -1.1801   20.8455 C.3     1  UNL1        0.0939
     19 C           5.3388   -0.7351   20.0429 C.3     1  UNL1        0.1110
     20 N           5.2182   -1.1296   18.6007 N.am    1  UNL1       -0.2732
     21 C           4.0317   -0.6847   17.7982 C.2     1  UNL1        0.2491
     22 O           3.9111   -1.0792   16.3560 O.2     1  UNL1       -0.2699
     23 C           6.2842   -1.9691   17.9611 C.3     1  UNL1        0.1110
     24 C           7.4708   -2.4140   18.7637 C.3     1  UNL1        0.0939
     25 C          -1.3895    2.8583   25.0835 C.ar    1  UNL1        0.0177
     26 C          -1.9914    3.0442   26.4448 C.ar    1  UNL1        0.0022
     27 C          -1.4169    2.3174   27.6245 C.ar    1  UNL1        0.0103
     28 C          -0.2405    1.4047   27.4430 C.ar    1  UNL1        0.0684
     29 C           0.3614    1.2188   26.0817 C.ar    1  UNL1        0.0103
     30 C          -0.2131    1.9455   24.9020 C.ar    1  UNL1        0.0022
     31 C           0.3340    0.6779   28.6227 C.1     1  UNL1        0.1004
     32 N           0.9085   -0.0489   29.8024 N.1     1  UNL1       -0.1908
@<TRIPOS>BOND
     1    16    17    1
     2    17    18    1
     3    18    19    1
     4    19    20    1
     5    20    21   am
     6    21    22    2
     7    21    10    1
     8    10    11   ar
     9    11    12   ar
    10    12    13   ar
    11    13     1    1
    12     1     2   ar
    13     2     3   ar
    14     3     4   ar
    15     4     5   ar
    16     5     6   ar
    17     6     7   ar
    18     7    25    1
    19    25    26   ar
    20    26    27   ar
    21    27    28   ar
    22    28    31    1
    23    31    32    3
    24    28    29   ar
    25    29    30   ar
    26     7     8   ar
    27     8     9   ar
    28    13    14   ar
    29    14    15   ar
    30    20    23    1
    31    23    24    1
    32    24    17    1
    33    15    10   ar
    34     9     1   ar
    35     8     4   ar
    36    30    25   ar
@<TRIPOS>MOLECULE
*****
 32 36 0 0 0
SMALL
GASTEIGER

@<TRIPOS>ATOM
      1 C          -0.2235    2.3091   22.3760 C.ar    1  UNL1        0.0177
      2 C          -1.2555    3.2243   21.7865 C.ar    1  UNL1        0.0046
      3 C          -2.2209    3.9419   22.6825 C.ar    1  UNL1        0.0374
      4 C          -2.1544    3.7444   24.1680 C.ar    1  UNL1        0.1478
      5 N          -2.9669    4.3129   25.2935 N.ar    1  UNL1       -0.2249
      6 C          -2.4370    3.7491   26.5785 C.ar    1  UNL1        0.1180
      7 C          -1.2971    2.8321   26.2472 C.ar    1  UNL1        0.0845
      8 N          -1.1224    2.8293   24.7574 N.ar    1  UNL1       -0.2888
      9 C          -0.1569    2.1117   23.8614 C.ar    1  UNL1        0.0814
     10 C           2.6730    0.1561   19.6879 C.ar    1  UNL1        0.0536
     11 C           3.0688    1.4515   20.3326 C.ar    1  UNL1        0.0045
     12 C           2.1033    2.1691   21.2285 C.ar    1  UNL1        0.0002
     13 C           0.7420    1.5914   21.4799 C.ar    1  UNL1        0.0015
     14 C           0.3462    0.2962   20.8353 C.ar    1  UNL1        0.0002
     15 C           1.3117   -0.4215   19.9393 C.ar    1  UNL1        0.0045
     16 C           7.7864   -4.1979   21.1521 C.3     1  UNL1        0.0897
     17 N           6.7495   -3.2888   20.5621 N.3     1  UNL1       -0.2686
     18 C           5.7840   -2.5712   21.4581 C.3     1  UNL1        0.0939
     19 C           4.7469   -1.6621   20.8680 C.3     1  UNL1        0.1110
     20 N           4.6755   -1.4706   19.3820 N.am    1  UNL1       -0.2732
     21 C           3.6385   -0.5615   18.7920 C.2     1  UNL1        0.2491
     22 O           3.5670   -0.3700   17.3060 O.2     1  UNL1       -0.2699
     23 C           5.6410   -2.1883   18.4860 C.3     1  UNL1        0.1110
     24 C           6.6780   -3.0974   19.0761 C.3     1  UNL1        0.0939
     25 C          -0.4759    2.0546   27.2326 C.ar    1  UNL1        0.0177
     26 C          -1.0800    0.8887   27.9578 C.ar    1  UNL1        0.0022
     27 C          -0.2589    0.1112   28.9432 C.ar    1  UNL1        0.0103
     28 C           1.1664    0.4994   29.2036 C.ar    1  UNL1        0.0684
     29 C           1.7705    1.6653   28.4785 C.ar    1  UNL1        0.0103
     30 C           0.9494    2.4428   27.4930 C.ar    1  UNL1        0.0022
     31 C           1.9875   -0.2781   30.1890 C.1     1  UNL1        0.1004
     32 N           2.8087   -1.0557   31.1745 N.1     1  UNL1       -0.1908
@<TRIPOS>BOND
     1    16    17    1
     2    17    18    1
     3    18    19    1
     4    19    20    1
     5    20    21   am
     6    21    22    2
     7    21    10    1
     8    10    11   ar
     9    11    12   ar
    10    12    13   ar
    11    13     1    1
    12     1     2   ar
    13     2     3   ar
    14     3     4   ar
    15     4     5   ar
    16     5     6   ar
    17     6     7   ar
    18     7    25    1
    19    25    26   ar
    20    26    27   ar
    21    27    28   ar
    22    28    31    1
    23    31    32    3
    24    28    29   ar
    25    29    30   ar
    26     7     8   ar
    27     8     9   ar
    28    13    14   ar
    29    14    15   ar
    30    20    23    1
    31    23    24    1
    32    24    17    1
    33    15    10   ar
    34     9     1   ar
    35     8     4   ar
    36    30    25   ar
@<TRIPOS>MOLECULE
*****
 32 36 0 0 0
SMALL
GASTEIGER

@<TRIPOS>ATOM
      1 C          -0.6129    2.6267   24.6596 C.ar    1  UNL1        0.0177
      2 C          -1.7765    3.5625   24.8019 C.ar    1  UNL1        0.0046
      3 C          -2.4658    4.0933   23.5800 C.ar    1  UNL1        0.0374
      4 C          -1.9915    3.6883   22.2158 C.ar    1  UNL1        0.1478
      5 N          -2.4692    4.0466   20.8397 N.ar    1  UNL1       -0.2249
      6 C          -1.6008    3.3322   19.8470 C.ar    1  UNL1        0.1180
      7 C          -0.5864    2.5324   20.6095 C.ar    1  UNL1        0.0845
      8 N          -0.8279    2.7525   22.0735 N.ar    1  UNL1       -0.2888
      9 C          -0.1386    2.2217   23.2954 C.ar    1  UNL1        0.0814
     10 C           1.4553    1.0343   28.3254 C.ar    1  UNL1        0.0536
     11 C           2.2523    1.7067   27.2470 C.ar    1  UNL1        0.0045
     12 C           1.5629    2.2375   26.0252 C.ar    1  UNL1        0.0002
     13 C           0.0765    2.0959   25.8816 C.ar    1  UNL1        0.0015
     14 C          -0.7205    1.4235   26.9598 C.ar    1  UNL1        0.0002
     15 C          -0.0311    0.8927   28.1817 C.ar    1  UNL1        0.0045
     16 C           1.9606    3.6040   34.6807 C.3     1  UNL1        0.0897
     17 N           2.0066    2.8289   33.3973 N.3     1  UNL1       -0.2686
     18 C           1.3172    3.3597   32.1755 C.3     1  UNL1        0.0939
     19 C           1.3632    2.5845   30.8920 C.3     1  UNL1        0.1110
     20 N           2.0986    1.2786   30.8305 N.am    1  UNL1       -0.2732
     21 C           2.1446    0.5035   29.5472 C.2     1  UNL1        0.2491
     22 O           2.8801   -0.8024   29.4857 O.2     1  UNL1       -0.2699
     23 C           2.7880    0.7479   32.0525 C.3     1  UNL1        0.1110
     24 C           2.7420    1.5230   33.3358 C.3     1  UNL1        0.0939
     25 C           0.4819    1.6648   20.0129 C.ar    1  UNL1        0.0177
     26 C           0.5704    0.2162   20.3920 C.ar    1  UNL1        0.0022
     27 C           1.6387   -0.6513   19.7953 C.ar    1  UNL1        0.0103
     28 C           2.6186   -0.0704   18.8195 C.ar    1  UNL1        0.0684
     29 C           2.5301    1.3782   18.4404 C.ar    1  UNL1        0.0103
     30 C           1.4618    2.2458   19.0370 C.ar    1  UNL1        0.0022
     31 C           3.6869   -0.9379   18.2228 C.1     1  UNL1        0.1004
     32 N           4.7552   -1.8055   17.6262 N.1     1  UNL1       -0.1908
@<TRIPOS>BOND
     1    16    17    1
     2    17    18    1
     3    18    19    1
     4    19    20    1
     5    20    21   am
     6    21    22    2
     7    21    10    1
     8    10    11   ar
     9    11    12   ar
    10    12    13   ar
    11    13     1    1
    12     1     2   ar
    13     2     3   ar
    14     3     4   ar
    15     4     5   ar
    16     5     6   ar
    17     6     7   ar
    18     7    25    1
    19    25    26   ar
    20    26    27   ar
    21    27    28   ar
    22    28    31    1
    23    31    32    3
    24    28    29   ar
    25    29    30   ar
    26     7     8   ar
    27     8     9   ar
    28    13    14   ar
    29    14    15   ar
    30    20    23    1
    31    23    24    1
    32    24    17    1
    33    15    10   ar
    34     9     1   ar
    35     8     4   ar
    36    30    25   ar
@<TRIPOS>MOLECULE
*****
 32 36 0 0 0
SMALL
GASTEIGER

@<TRIPOS>ATOM
      1 C           1.1459    2.7154   31.2749 C.ar    1  UNL1        0.0177
      2 C           0.6972    3.7337   32.2807 C.ar    1  UNL1        0.0046
      3 C           1.2633    3.7159   33.6697 C.ar    1  UNL1        0.0374
      4 C           2.2781    2.6799   34.0528 C.ar    1  UNL1        0.1478
      5 N           3.0075    2.4160   35.3367 N.ar    1  UNL1       -0.2249
      6 C           3.9070    1.2345   35.1244 C.ar    1  UNL1        0.1180
      7 C           3.7335    0.7683   33.7092 C.ar    1  UNL1        0.0845
      8 N           2.7268    1.6616   33.0470 N.ar    1  UNL1       -0.2888
      9 C           2.1607    1.6794   31.6581 C.ar    1  UNL1        0.0814
     10 C          -0.5523    2.7685   27.1079 C.ar    1  UNL1        0.0536
     11 C          -0.6133    1.5132   27.9268 C.ar    1  UNL1        0.0045
     12 C          -0.0472    1.4955   29.3158 C.ar    1  UNL1        0.0002
     13 C           0.5798    2.7331   29.8859 C.ar    1  UNL1        0.0015
     14 C           0.6408    3.9884   29.0671 C.ar    1  UNL1        0.0002
     15 C           0.0747    4.0062   27.6781 C.ar    1  UNL1        0.0045
     16 C          -6.6370    4.9349   24.7558 C.3     1  UNL1        0.0897
     17 N          -5.2573    4.3977   24.9966 N.3     1  UNL1       -0.2686
     18 C          -4.6913    4.3801   26.3855 C.3     1  UNL1        0.0939
     19 C          -3.3116    3.8429   26.6264 C.3     1  UNL1        0.1110
     20 N          -2.4980    3.3234   25.4782 N.am    1  UNL1       -0.2732
     21 C          -1.1184    2.7862   25.7190 C.2     1  UNL1        0.2491
     22 O          -0.3048    2.2667   24.5709 O.2     1  UNL1       -0.2699
     23 C          -3.0642    3.3411   24.0892 C.3     1  UNL1        0.1110
     24 C          -4.4438    3.8782   23.8484 C.3     1  UNL1        0.0939
     25 C           4.4423   -0.3881   33.0688 C.ar    1  UNL1        0.0177
     26 C           4.3158   -1.7631   33.6549 C.ar    1  UNL1        0.0022
     27 C           5.0246   -2.9195   33.0145 C.ar    1  UNL1        0.0103
     28 C           5.8599   -2.7012   31.7879 C.ar    1  UNL1        0.0684
     29 C           5.9864   -1.3262   31.2017 C.ar    1  UNL1        0.0103
     30 C           5.2776   -0.1698   31.8422 C.ar    1  UNL1        0.0022
     31 C           6.5687   -3.8576   31.1474 C.1     1  UNL1        0.1004
     32 N           7.2774   -5.0141   30.5070 N.1     1  UNL1       -0.1908
@<TRIPOS>BOND
     1    16    17    1
     2    17    18    1
     3    18    19    1
     4    19    20    1
     5    20    21   am
     6    21    22    2
     7    21    10    1
     8    10    11   ar
     9    11    12   ar
    10    12    13   ar
    11    13     1    1
    12     1     2   ar
    13     2     3   ar
    14     3     4   ar
    15     4     5   ar
    16     5     6   ar
    17     6     7   ar
    18     7    25    1
    19    25    26   ar
    20    26    27   ar
    21    27    28   ar
    22    28    31    1
    23    31    32    3
    24    28    29   ar
    25    29    30   ar
    26     7     8   ar
    27     8     9   ar
    28    13    14   ar
    29    14    15   ar
    30    20    23    1
    31    23    24    1
    32    24    17    1
    33    15    10   ar
    34     9     1   ar
    35     8     4   ar
    36    30    25   ar
@<TRIPOS>MOLECULE
*****
 32 36 0 0 0
SMALL
GASTEIGER

@<TRIPOS>ATOM
      1 C          -0.7673    2.8545   25.3424 C.ar    1  UNL1        0.0177
      2 C          -1.9286    3.8015   25.2769 C.ar    1  UNL1        0.0046
      3 C          -2.4909    4.2079   23.9470 C.ar    1  UNL1        0.0374
      4 C          -1.8918    3.6671   22.6826 C.ar    1  UNL1        0.1478
      5 N          -2.2306    3.8860   21.2377 N.ar    1  UNL1       -0.2249
      6 C          -1.2785    3.0742   20.4104 C.ar    1  UNL1        0.1180
      7 C          -0.3515    2.3536   21.3438 C.ar    1  UNL1        0.0845
      8 N          -0.7305    2.7200   22.7481 N.ar    1  UNL1       -0.2888
      9 C          -0.1682    2.3137   24.0780 C.ar    1  UNL1        0.0814
     10 C           0.9196    1.6353   29.3322 C.ar    1  UNL1        0.0536
     11 C          -0.0693    0.7497   28.6337 C.ar    1  UNL1        0.0045
     12 C          -0.6316    1.1561   27.3039 C.ar    1  UNL1        0.0002
     13 C          -0.2050    2.4481   26.6723 C.ar    1  UNL1        0.0015
     14 C           0.7839    3.3336   27.3707 C.ar    1  UNL1        0.0002
     15 C           1.3463    2.9273   28.7007 C.ar    1  UNL1        0.0045
     16 C           6.4316   -2.1524   30.9196 C.3     1  UNL1        0.0897
     17 N           5.1942   -1.3071   30.8552 N.3     1  UNL1       -0.2686
     18 C           4.6319   -0.9007   29.5254 C.3     1  UNL1        0.0939
     19 C           3.3945   -0.0553   29.4609 C.3     1  UNL1        0.1110
     20 N           2.7193    0.3836   30.7264 N.am    1  UNL1       -0.2732
     21 C           1.4819    1.2289   30.6621 C.2     1  UNL1        0.2491
     22 O           0.8068    1.6678   31.9276 O.2     1  UNL1       -0.2699
     23 C           3.2817   -0.0229   32.0564 C.3     1  UNL1        0.1110
     24 C           4.5191   -0.8682   32.1208 C.3     1  UNL1        0.0939
     25 C           0.7596    1.4289   20.9433 C.ar    1  UNL1        0.0177
     26 C           0.4509    0.0205   20.5296 C.ar    1  UNL1        0.0022
     27 C           1.5619   -0.9042   20.1291 C.ar    1  UNL1        0.0103
     28 C           2.9817   -0.4206   20.1422 C.ar    1  UNL1        0.0684
     29 C           3.2905    0.9878   20.5558 C.ar    1  UNL1        0.0103
     30 C           2.1794    1.9125   20.9563 C.ar    1  UNL1        0.0022
     31 C           4.0928   -1.3453   19.7416 C.1     1  UNL1        0.1004
     32 N           5.2039   -2.2700   19.3411 N.1     1  UNL1       -0.1908
@<TRIPOS>BOND
     1    16    17    1
     2    17    18    1
     3    18    19    1
     4    19    20    1
     5    20    21   am
     6    21    22    2
     7    21    10    1
     8    10    11   ar
     9    11    12   ar
    10    12    13   ar
    11    13     1    1
    12     1     2   ar
    13     2     3   ar
    14     3     4   ar
    15     4     5   ar
    16     5     6   ar
    17     6     7   ar
    18     7    25    1
    19    25    26   ar
    20    26    27   ar
    21    27    28   ar
    22    28    31    1
    23    31    32    3
    24    28    29   ar
    25    29    30   ar
    26     7     8   ar
    27     8     9   ar
    28    13    14   ar
    29    14    15   ar
    30    20    23    1
    31    23    24    1
    32    24    17    1
    33    15    10   ar
    34     9     1   ar
    35     8     4   ar
    36    30    25   ar
@<TRIPOS>MOLECULE
*****
 32 36 0 0 0
SMALL
GASTEIGER

@<TRIPOS>ATOM
      1 C           4.9690   -2.0074   24.0433 C.ar    1  UNL1        0.0177
      2 C           5.7607   -3.2812   24.0681 C.ar    1  UNL1        0.0046
      3 C           5.8563   -4.1289   22.8343 C.ar    1  UNL1        0.0374
      4 C           5.1602   -3.7029   21.5758 C.ar    1  UNL1        0.1478
      5 N           5.0752   -4.3281   20.2149 N.ar    1  UNL1       -0.2249
      6 C           4.2309   -3.4407   19.3491 C.ar    1  UNL1        0.1180
      7 C           3.7941   -2.2670   20.1749 C.ar    1  UNL1        0.0845
      8 N           4.3685   -2.4291   21.5510 N.ar    1  UNL1       -0.2888
      9 C           4.2729   -1.5814   22.7848 C.ar    1  UNL1        0.0814
     10 C           4.6822    0.5359   27.7446 C.ar    1  UNL1        0.0536
     11 C           6.0249    0.2105   27.1603 C.ar    1  UNL1        0.0045
     12 C           6.1205   -0.6372   25.9266 C.ar    1  UNL1        0.0002
     13 C           4.8734   -1.1596   25.2771 C.ar    1  UNL1        0.0015
     14 C           3.5307   -0.8343   25.8613 C.ar    1  UNL1        0.0002
     15 C           3.4351    0.0135   27.0951 C.ar    1  UNL1        0.0045
     16 C           4.4840   -1.1996   34.3928 C.3     1  UNL1        0.0897
     17 N           4.5097   -0.5538   33.0392 N.3     1  UNL1       -0.2686
     18 C           4.6052   -1.4016   31.8055 C.3     1  UNL1        0.0939
     19 C           4.6309   -0.7557   30.4518 C.3     1  UNL1        0.1110
     20 N           4.5610    0.7378   30.3319 N.am    1  UNL1       -0.2732
     21 C           4.5866    1.3836   28.9784 C.2     1  UNL1        0.2491
     22 O           4.5167    2.8772   28.8585 O.2     1  UNL1       -0.2699
     23 C           4.4654    1.5856   31.5658 C.3     1  UNL1        0.1110
     24 C           4.4397    0.9398   32.9193 C.3     1  UNL1        0.0939
     25 C           2.9341   -1.1308   19.7067 C.ar    1  UNL1        0.0177
     26 C           3.4293   -0.2085   18.6324 C.ar    1  UNL1        0.0022
     27 C           2.5692    0.9278   18.1642 C.ar    1  UNL1        0.0103
     28 C           1.2139    1.1417   18.7702 C.ar    1  UNL1        0.0684
     29 C           0.7187    0.2194   19.8445 C.ar    1  UNL1        0.0103
     30 C           1.5788   -0.9168   20.3127 C.ar    1  UNL1        0.0022
     31 C           0.3538    2.2780   18.3020 C.1     1  UNL1        0.1004
     32 N          -0.5063    3.4142   17.8339 N.1     1  UNL1       -0.1908
@<TRIPOS>BOND
     1    16    17    1
     2    17    18    1
     3    18    19    1
     4    19    20    1
     5    20    21   am
     6    21    22    2
     7    21    10    1
     8    10    11   ar
     9    11    12   ar
    10    12    13   ar
    11    13     1    1
    12     1     2   ar
    13     2     3   ar
    14     3     4   ar
    15     4     5   ar
    16     5     6   ar
    17     6     7   ar
    18     7    25    1
    19    25    26   ar
    20    26    27   ar
    21    27    28   ar
    22    28    31    1
    23    31    32    3
    24    28    29   ar
    25    29    30   ar
    26     7     8   ar
    27     8     9   ar
    28    13    14   ar
    29    14    15   ar
    30    20    23    1
    31    23    24    1
    32    24    17    1
    33    15    10   ar
    34     9     1   ar
    35     8     4   ar
    36    30    25   ar
