@<TRIPOS>MOLECULE
*****
 18 20 0 0 0
SMALL
GASTEIGER

@<TRIPOS>ATOM
      1 C          -9.9657  -16.6811   22.8090 C.3     1  UNL1        0.0992
      2 CL         -5.3091  -14.9765   26.1869 Cl      1  UNL1       -0.0814
      3 C          -6.4733  -15.4026   25.3424 C.ar    1  UNL1        0.0682
      4 C          -6.2753  -15.6939   23.8844 C.ar    1  UNL1        0.0120
      5 C          -7.4395  -16.1201   23.0399 C.ar    1  UNL1       -0.0020
      6 C          -8.8016  -16.2550   23.6535 C.ar    1  UNL1       -0.0052
      7 C          -8.9995  -15.9637   25.1115 C.ar    1  UNL1        0.0093
      8 C          -7.8353  -15.5375   25.9560 C.ar    1  UNL1        0.0679
      9 CL         -8.0333  -15.2462   27.4141 Cl      1  UNL1       -0.0814
     10 N         -10.1475  -18.1280   22.4576 N.3     1  UNL1       -0.2691
     11 C         -10.0633  -19.1760   23.5275 C.3     1  UNL1        0.0894
     12 C          -9.2510  -20.4204   23.7316 C.3     1  UNL1        0.0862
     13 N          -9.9441  -20.6582   25.0404 N.3     1  UNL1       -0.2951
     14 C         -10.7564  -19.4138   24.8363 C.3     1  UNL1        0.0862
     15 H          -9.3261  -20.6237   25.8512 H       1  UNL1        0.1233
     16 C         -10.4135  -18.5269   21.0363 C.3     1  UNL1        0.0579
     17 C         -10.9811  -18.2135   19.6836 C.3     1  UNL1        0.0173
     18 C         -10.3067  -19.5311   19.9272 C.3     1  UNL1        0.0173
@<TRIPOS>BOND
     1     2     3    1
     2     3     4   ar
     3     4     5   ar
     4     5     6   ar
     5     6     1    1
     6     1    10    1
     7    10    16    1
     8    16    17    1
     9    17    18    1
    10    10    11    1
    11    11    12    1
    12    12    13    1
    13    13    14    1
    14     6     7   ar
    15     7     8   ar
    16     8     9    1
    17     8     3   ar
    18    18    16    1
    19    14    11    1
    20    13    15    1
@<TRIPOS>MOLECULE
*****
 18 20 0 0 0
SMALL
GASTEIGER

@<TRIPOS>ATOM
      1 C          -7.0970  -19.7779   22.0531 C.3     1  UNL1        0.0992
      2 CL         -1.4404  -18.8992   20.2558 Cl      1  UNL1       -0.0814
      3 C          -2.8545  -19.1189   20.7051 C.ar    1  UNL1        0.0682
      4 C          -3.8044  -19.8937   19.8406 C.ar    1  UNL1        0.0120
      5 C          -5.2185  -20.1134   20.2899 C.ar    1  UNL1       -0.0020
      6 C          -5.6829  -19.5582   21.6037 C.ar    1  UNL1       -0.0052
      7 C          -4.7330  -18.7834   22.4682 C.ar    1  UNL1        0.0093
      8 C          -3.3189  -18.5637   22.0189 C.ar    1  UNL1        0.0679
      9 CL         -2.3690  -17.7888   22.8835 Cl      1  UNL1       -0.0814
     10 N          -8.1946  -18.8980   21.5325 N.3     1  UNL1       -0.2691
     11 C          -8.5069  -17.6020   22.2203 C.3     1  UNL1        0.0894
     12 C          -9.6238  -16.6036   22.1450 C.3     1  UNL1        0.0862
     13 N          -8.9487  -15.7693   23.1929 N.3     1  UNL1       -0.2951
     14 C          -7.8318  -16.7678   23.2682 C.3     1  UNL1        0.0862
     15 H          -9.4819  -15.6749   24.0573 H       1  UNL1        0.1233
     16 C          -8.9800  -19.3140   20.3241 C.3     1  UNL1        0.0579
     17 C          -9.0352  -19.9478   18.9657 C.3     1  UNL1        0.0173
     18 C         -10.2849  -19.4009   19.5896 C.3     1  UNL1        0.0173
@<TRIPOS>BOND
     1     2     3    1
     2     3     4   ar
     3     4     5   ar
     4     5     6   ar
     5     6     1    1
     6     1    10    1
     7    10    16    1
     8    16    17    1
     9    17    18    1
    10    10    11    1
    11    11    12    1
    12    12    13    1
    13    13    14    1
    14     6     7   ar
    15     7     8   ar
    16     8     9    1
    17     8     3   ar
    18    18    16    1
    19    14    11    1
    20    13    15    1
@<TRIPOS>MOLECULE
*****
 18 20 0 0 0
SMALL
GASTEIGER

@<TRIPOS>ATOM
      1 C          -7.7390  -18.5865   22.1839 C.3     1  UNL1        0.0992
      2 CL        -13.4897  -18.0228   23.7999 Cl      1  UNL1       -0.0814
      3 C         -12.0520  -18.1638   23.3959 C.ar    1  UNL1        0.0682
      4 C         -11.0713  -18.8121   24.3274 C.ar    1  UNL1        0.0120
      5 C          -9.6336  -18.9530   23.9234 C.ar    1  UNL1       -0.0020
      6 C          -9.1766  -18.4456   22.5879 C.ar    1  UNL1       -0.0052
      7 C         -10.1574  -17.7972   21.6564 C.ar    1  UNL1        0.0093
      8 C         -11.5951  -17.6563   22.0604 C.ar    1  UNL1        0.0679
      9 CL        -12.5758  -17.0078   21.1288 Cl      1  UNL1       -0.0814
     10 N          -6.7036  -17.6689   22.7636 N.3     1  UNL1       -0.2691
     11 C          -7.1080  -16.3320   23.3105 C.3     1  UNL1        0.0894
     12 C          -7.7236  -15.0920   22.7330 C.3     1  UNL1        0.0862
     13 N          -7.6800  -14.4412   24.0838 N.3     1  UNL1       -0.2951
     14 C          -7.0644  -15.6812   24.6613 C.3     1  UNL1        0.0862
     15 H          -8.5978  -14.2148   24.4668 H       1  UNL1        0.1233
     16 C          -5.2638  -18.0883   22.7966 C.3     1  UNL1        0.0579
     17 C          -3.8566  -17.8663   23.2659 C.3     1  UNL1        0.0173
     18 C          -4.1773  -19.0367   22.3842 C.3     1  UNL1        0.0173
@<TRIPOS>BOND
     1     2     3    1
     2     3     4   ar
     3     4     5   ar
     4     5     6   ar
     5     6     1    1
     6     1    10    1
     7    10    16    1
     8    16    17    1
     9    17    18    1
    10    10    11    1
    11    11    12    1
    12    12    13    1
    13    13    14    1
    14     6     7   ar
    15     7     8   ar
    16     8     9    1
    17     8     3   ar
    18    18    16    1
    19    14    11    1
    20    13    15    1
@<TRIPOS>MOLECULE
*****
 18 20 0 0 0
SMALL
GASTEIGER

@<TRIPOS>ATOM
      1 C          -7.7740  -17.9217   22.4779 C.3     1  UNL1        0.0992
      2 CL        -13.5248  -18.1837   24.1688 Cl      1  UNL1       -0.0814
      3 C         -12.0871  -18.1182   23.7461 C.ar    1  UNL1        0.0682
      4 C         -11.1345  -19.2015   24.1569 C.ar    1  UNL1        0.0120
      5 C          -9.6968  -19.1360   23.7342 C.ar    1  UNL1       -0.0020
      6 C          -9.2117  -17.9872   22.9006 C.ar    1  UNL1       -0.0052
      7 C         -10.1644  -16.9039   22.4898 C.ar    1  UNL1        0.0093
      8 C         -11.6021  -16.9694   22.9125 C.ar    1  UNL1        0.0679
      9 CL        -12.5548  -15.8860   22.5016 Cl      1  UNL1       -0.0814
     10 N          -7.2792  -18.7960   21.3641 N.3     1  UNL1       -0.2691
     11 C          -5.8344  -19.1957   21.3097 C.3     1  UNL1        0.0894
     12 C          -4.7410  -19.3619   22.3230 C.3     1  UNL1        0.0862
     13 N          -3.7912  -19.7610   21.2328 N.3     1  UNL1       -0.2951
     14 C          -4.8846  -19.5948   20.2194 C.3     1  UNL1        0.0862
     15 H          -3.4408  -20.7154   21.3146 H       1  UNL1        0.1233
     16 C          -8.2291  -19.2706   20.3046 C.3     1  UNL1        0.0579
     17 C          -9.6217  -19.6201   19.8706 C.3     1  UNL1        0.0173
     18 C          -8.4816  -19.7432   18.9036 C.3     1  UNL1        0.0173
@<TRIPOS>BOND
     1     2     3    1
     2     3     4   ar
     3     4     5   ar
     4     5     6   ar
     5     6     1    1
     6     1    10    1
     7    10    16    1
     8    16    17    1
     9    17    18    1
    10    10    11    1
    11    11    12    1
    12    12    13    1
    13    13    14    1
    14     6     7   ar
    15     7     8   ar
    16     8     9    1
    17     8     3   ar
    18    18    16    1
    19    14    11    1
    20    13    15    1
@<TRIPOS>MOLECULE
*****
 18 20 0 0 0
SMALL
GASTEIGER

@<TRIPOS>ATOM
      1 C          -8.6668  -16.2036   21.9380 C.3     1  UNL1        0.0992
      2 CL        -14.0066  -18.0606   23.9477 Cl      1  UNL1       -0.0814
      3 C         -12.6716  -17.5964   23.4453 C.ar    1  UNL1        0.0682
      4 C         -12.5929  -16.4778   22.4490 C.ar    1  UNL1        0.0120
      5 C         -11.2579  -16.0136   21.9466 C.ar    1  UNL1       -0.0020
      6 C         -10.0018  -16.6678   22.4404 C.ar    1  UNL1       -0.0052
      7 C         -10.0806  -17.7864   23.4367 C.ar    1  UNL1        0.0093
      8 C         -11.4155  -18.2506   23.9392 C.ar    1  UNL1        0.0679
      9 CL        -11.4942  -19.3692   24.9355 Cl      1  UNL1       -0.0814
     10 N          -7.4090  -16.8328   22.4595 N.3     1  UNL1       -0.2691
     11 C          -6.5929  -16.1262   23.5010 C.3     1  UNL1        0.0894
     12 C          -5.1628  -16.1873   23.9494 C.3     1  UNL1        0.0862
     13 N          -5.4387  -15.1269   24.9738 N.3     1  UNL1       -0.2951
     14 C          -6.8688  -15.0658   24.5254 C.3     1  UNL1        0.0862
     15 H          -4.9191  -14.2615   24.8276 H       1  UNL1        0.1233
     16 C          -6.9673  -18.1686   21.9395 C.3     1  UNL1        0.0579
     17 C          -6.7700  -19.6415   22.1436 C.3     1  UNL1        0.0173
     18 C          -6.3994  -19.0094   20.8347 C.3     1  UNL1        0.0173
@<TRIPOS>BOND
     1     2     3    1
     2     3     4   ar
     3     4     5   ar
     4     5     6   ar
     5     6     1    1
     6     1    10    1
     7    10    16    1
     8    16    17    1
     9    17    18    1
    10    10    11    1
    11    11    12    1
    12    12    13    1
    13    13    14    1
    14     6     7   ar
    15     7     8   ar
    16     8     9    1
    17     8     3   ar
    18    18    16    1
    19    14    11    1
    20    13    15    1
@<TRIPOS>MOLECULE
*****
 18 20 0 0 0
SMALL
GASTEIGER

@<TRIPOS>ATOM
      1 C          -8.1319  -18.2676   21.9076 C.3     1  UNL1        0.0992
      2 CL         -2.4581  -20.0344   21.0789 Cl      1  UNL1       -0.0814
      3 C          -3.8765  -19.5927   21.2861 C.ar    1  UNL1        0.0682
      4 C          -4.9717  -20.1631   20.4345 C.ar    1  UNL1        0.0120
      5 C          -6.3901  -19.7214   20.6417 C.ar    1  UNL1       -0.0020
      6 C          -6.7134  -18.7093   21.7004 C.ar    1  UNL1       -0.0052
      7 C          -5.6183  -18.1388   22.5520 C.ar    1  UNL1        0.0093
      8 C          -4.1998  -18.5805   22.3448 C.ar    1  UNL1        0.0679
      9 CL         -3.1047  -18.0100   23.1965 Cl      1  UNL1       -0.0814
     10 N          -8.6227  -17.9441   23.2876 N.3     1  UNL1       -0.2691
     11 C          -9.3130  -18.9962   24.1040 C.3     1  UNL1        0.0894
     12 C          -9.4386  -20.4888   24.0230 C.3     1  UNL1        0.0862
     13 N         -10.2892  -20.4843   25.2585 N.3     1  UNL1       -0.2951
     14 C         -10.1637  -18.9917   25.3395 C.3     1  UNL1        0.0862
     15 H          -9.8778  -20.9803   26.0491 H       1  UNL1        0.1233
     16 C          -8.4232  -16.5684   23.8513 C.3     1  UNL1        0.0579
     17 C          -8.8039  -15.4982   24.8309 C.3     1  UNL1        0.0173
     18 C          -7.6970  -15.2559   23.8480 C.3     1  UNL1        0.0173
@<TRIPOS>BOND
     1     2     3    1
     2     3     4   ar
     3     4     5   ar
     4     5     6   ar
     5     6     1    1
     6     1    10    1
     7    10    16    1
     8    16    17    1
     9    17    18    1
    10    10    11    1
    11    11    12    1
    12    12    13    1
    13    13    14    1
    14     6     7   ar
    15     7     8   ar
    16     8     9    1
    17     8     3   ar
    18    18    16    1
    19    14    11    1
    20    13    15    1
@<TRIPOS>MOLECULE
*****
 18 20 0 0 0
SMALL
GASTEIGER

@<TRIPOS>ATOM
      1 C          -8.0877  -18.8790   21.6136 C.3     1  UNL1        0.0992
      2 CL         -2.1989  -19.9005   21.0856 Cl      1  UNL1       -0.0814
      3 C          -3.6711  -19.6452   21.2176 C.ar    1  UNL1        0.0682
      4 C          -4.6347  -20.3100   20.2798 C.ar    1  UNL1        0.0120
      5 C          -6.1068  -20.0546   20.4118 C.ar    1  UNL1       -0.0020
      6 C          -6.6155  -19.1344   21.4816 C.ar    1  UNL1       -0.0052
      7 C          -5.6519  -18.4696   22.4194 C.ar    1  UNL1        0.0093
      8 C          -4.1797  -18.7250   22.2874 C.ar    1  UNL1        0.0679
      9 CL         -3.2161  -18.0601   23.2253 Cl      1  UNL1       -0.0814
     10 N          -8.6295  -18.2410   22.8583 N.3     1  UNL1       -0.2691
     11 C          -8.3818  -16.7855   23.1239 C.3     1  UNL1        0.0894
     12 C          -8.1290  -15.5794   22.2687 C.3     1  UNL1        0.0862
     13 N          -8.0316  -14.7273   23.4994 N.3     1  UNL1       -0.2951
     14 C          -8.2843  -15.9335   24.3545 C.3     1  UNL1        0.0862
     15 H          -8.7534  -14.0099   23.5674 H       1  UNL1        0.1233
     16 C          -9.4191  -19.0582   23.8374 C.3     1  UNL1        0.0579
     17 C         -10.3750  -19.1373   24.9906 C.3     1  UNL1        0.0173
     18 C          -9.8308  -20.3947   24.3799 C.3     1  UNL1        0.0173
@<TRIPOS>BOND
     1     2     3    1
     2     3     4   ar
     3     4     5   ar
     4     5     6   ar
     5     6     1    1
     6     1    10    1
     7    10    16    1
     8    16    17    1
     9    17    18    1
    10    10    11    1
    11    11    12    1
    12    12    13    1
    13    13    14    1
    14     6     7   ar
    15     7     8   ar
    16     8     9    1
    17     8     3   ar
    18    18    16    1
    19    14    11    1
    20    13    15    1
@<TRIPOS>MOLECULE
*****
 18 20 0 0 0
SMALL
GASTEIGER

@<TRIPOS>ATOM
      1 C          -8.4340  -16.8661   22.0114 C.3     1  UNL1        0.0992
      2 CL         -7.0336  -15.2579   27.6197 Cl      1  UNL1       -0.0814
      3 C          -7.3837  -15.6599   26.2176 C.ar    1  UNL1        0.0682
      4 C          -8.7719  -16.1287   25.8962 C.ar    1  UNL1        0.0120
      5 C          -9.1220  -16.5307   24.4942 C.ar    1  UNL1       -0.0020
      6 C          -8.0839  -16.4641   23.4135 C.ar    1  UNL1       -0.0052
      7 C          -6.6958  -15.9954   23.7348 C.ar    1  UNL1        0.0093
      8 C          -6.3457  -15.5933   25.1369 C.ar    1  UNL1        0.0679
      9 CL         -4.9574  -15.1246   25.4582 Cl      1  UNL1       -0.0814
     10 N          -8.5110  -18.3186   21.6447 N.3     1  UNL1       -0.2691
     11 C          -7.2605  -19.0729   21.3021 C.3     1  UNL1        0.0894
     12 C          -6.3644  -20.0284   22.0328 C.3     1  UNL1        0.0862
     13 N          -5.4922  -20.1398   20.8175 N.3     1  UNL1       -0.2951
     14 C          -6.3883  -19.1843   20.0868 C.3     1  UNL1        0.0862
     15 H          -5.4612  -21.0749   20.4115 H       1  UNL1        0.1233
     16 C          -9.8384  -19.0167   21.6207 C.3     1  UNL1        0.0579
     17 C         -11.1582  -19.2754   20.9566 C.3     1  UNL1        0.0173
     18 C         -10.8177  -19.9672   22.2433 C.3     1  UNL1        0.0173
@<TRIPOS>BOND
     1     2     3    1
     2     3     4   ar
     3     4     5   ar
     4     5     6   ar
     5     6     1    1
     6     1    10    1
     7    10    16    1
     8    16    17    1
     9    17    18    1
    10    10    11    1
    11    11    12    1
    12    12    13    1
    13    13    14    1
    14     6     7   ar
    15     7     8   ar
    16     8     9    1
    17     8     3   ar
    18    18    16    1
    19    14    11    1
    20    13    15    1
@<TRIPOS>MOLECULE
*****
 18 20 0 0 0
SMALL
GASTEIGER

@<TRIPOS>ATOM
      1 C          -8.6933  -19.4176   20.7126 C.3     1  UNL1        0.0992
      2 CL         -2.8742  -19.0529   22.1289 Cl      1  UNL1       -0.0814
      3 C          -4.3290  -19.1441   21.7748 C.ar    1  UNL1        0.0682
      4 C          -5.3384  -18.3381   22.5373 C.ar    1  UNL1        0.0120
      5 C          -6.7932  -18.4293   22.1833 C.ar    1  UNL1       -0.0020
      6 C          -7.2385  -19.3264   21.0667 C.ar    1  UNL1       -0.0052
      7 C          -6.2291  -20.1324   20.3042 C.ar    1  UNL1        0.0093
      8 C          -4.7743  -20.0412   20.6583 C.ar    1  UNL1        0.0679
      9 CL         -3.7649  -20.8473   19.8957 Cl      1  UNL1       -0.0814
     10 N          -9.7300  -18.8877   21.6583 N.3     1  UNL1       -0.2691
     11 C         -10.5775  -17.7152   21.2618 C.3     1  UNL1        0.0894
     12 C         -10.8342  -16.3513   21.8310 C.3     1  UNL1        0.0862
     13 N         -11.7760  -16.0571   20.7012 N.3     1  UNL1       -0.2951
     14 C         -11.5192  -17.4210   20.1320 C.3     1  UNL1        0.0862
     15 H         -11.4763  -15.2910   20.0981 H       1  UNL1        0.1233
     16 C          -9.9192  -19.5301   23.0005 C.3     1  UNL1        0.0579
     17 C         -10.7073  -19.6841   24.2674 C.3     1  UNL1        0.0173
     18 C          -9.4589  -20.4888   24.0582 C.3     1  UNL1        0.0173
@<TRIPOS>BOND
     1     2     3    1
     2     3     4   ar
     3     4     5   ar
     4     5     6   ar
     5     6     1    1
     6     1    10    1
     7    10    16    1
     8    16    17    1
     9    17    18    1
    10    10    11    1
    11    11    12    1
    12    12    13    1
    13    13    14    1
    14     6     7   ar
    15     7     8   ar
    16     8     9    1
    17     8     3   ar
    18    18    16    1
    19    14    11    1
    20    13    15    1
