@<TRIPOS>MOLECULE
*****
 31 34 0 0 0
SMALL
GASTEIGER

@<TRIPOS>ATOM
      1 C          -7.6771  -18.3139   21.6477 C.ar    1  UNL1        0.0424
      2 C          -7.5404  -17.3937   22.8244 C.ar    1  UNL1        0.0779
      3 N          -8.8658  -16.7281   23.0486 N.ar    1  UNL1       -0.3253
      4 C          -9.8216  -17.2368   22.0105 C.ar    1  UNL1        0.0707
      5 C         -11.2659  -16.9342   21.7418 C.ar    1  UNL1        0.0734
      6 CL        -12.0006  -15.9540   22.6077 Cl      1  UNL1       -0.0807
      7 C         -11.9757  -17.6117   20.6073 C.ar    1  UNL1        0.0129
      8 C         -11.2410  -18.5918   19.7414 C.ar    1  UNL1        0.0010
      9 C          -9.7967  -18.8944   20.0101 C.ar    1  UNL1        0.0016
     10 C          -9.0870  -18.2169   21.1447 C.ar    1  UNL1        0.0200
     11 C          -4.4353  -19.9515   20.2786 C.ar    1  UNL1        0.0822
     12 C          -5.4200  -21.0699   20.1066 C.ar    1  UNL1        0.0530
     13 S          -6.7543  -20.5926   20.5985 S.2     1  UNL1       -0.0662
     14 C          -6.5942  -19.1792   21.0745 C.ar    1  UNL1        0.1119
     15 N          -5.1611  -18.7830   20.8768 N.ar    1  UNL1       -0.2412
     16 C          -2.9805  -19.9942   19.9160 C.3     1  UNL1        0.1192
     17 N          -2.0332  -18.9859   20.4957 N.3     1  UNL1       -0.2668
     18 C          -1.9011  -17.6017   18.3011 C.3     1  UNL1        0.0174
     19 C          -1.2827  -18.0548   19.5904 C.3     1  UNL1        0.0580
     20 C           0.0863  -17.5768   19.9743 C.3     1  UNL1        0.0174
     21 C          -1.8364  -18.9088   21.9808 C.3     1  UNL1        0.1045
     22 C          -2.4679  -17.7965   22.7642 C.3     1  UNL1        0.1544
     23 O          -3.1792  -16.6856   22.0499 O.3     1  UNL1       -0.3805
     24 H          -2.5400  -16.1747   21.5290 H       1  UNL1        0.2105
     25 C          -9.1802  -15.7290   24.1224 C.3     1  UNL1        0.1062
     26 C          -8.2049  -15.4950   25.2379 C.3     1  UNL1        0.0276
     27 C          -8.6660  -15.5623   26.6637 C.3     1  UNL1        0.0341
     28 C          -7.6909  -15.3283   27.7792 C.3     1  UNL1        0.1422
     29 O          -6.2546  -15.0270   27.4688 O.3     1  UNL1       -0.3538
     30 C          -5.7935  -14.9597   26.0431 C.3     1  UNL1        0.1422
     31 C          -6.7686  -15.1937   24.9276 C.3     1  UNL1        0.0341
@<TRIPOS>BOND
     1    18    19    1
     2    19    20    1
     3    19    17    1
     4    17    21    1
     5    21    22    1
     6    22    23    1
     7    17    16    1
     8    16    11    1
     9    11    12   ar
    10    12    13   ar
    11    13    14   ar
    12    14     1    1
    13     1     2   ar
    14     2     3   ar
    15     3    25    1
    16    25    26    1
    17    26    27    1
    18    27    28    1
    19    28    29    1
    20    29    30    1
    21    30    31    1
    22     3     4   ar
    23     4     5   ar
    24     5     6    1
    25     5     7   ar
    26     7     8   ar
    27     8     9   ar
    28     9    10   ar
    29    14    15   ar
    30    15    11   ar
    31    10     1   ar
    32    31    26    1
    33    10     4   ar
    34    23    24    1
@<TRIPOS>MOLECULE
*****
 31 34 0 0 0
SMALL
GASTEIGER

@<TRIPOS>ATOM
      1 C           0.7051    1.1030   20.6205 C.ar    1  UNL1        0.0424
      2 C           1.1787    0.1564   19.5577 C.ar    1  UNL1        0.0779
      3 N           2.1482   -0.7996   20.1871 N.ar    1  UNL1       -0.3253
      4 C           2.2738   -0.4438   21.6388 C.ar    1  UNL1        0.0707
      5 C           3.0851   -1.0387   22.7514 C.ar    1  UNL1        0.0734
      6 CL          3.9770   -2.2146   22.4835 Cl      1  UNL1       -0.0807
      7 C           3.0044   -0.4577   24.1320 C.ar    1  UNL1        0.0129
      8 C           2.1125    0.7182   24.3999 C.ar    1  UNL1        0.0010
      9 C           1.3012    1.3131   23.2873 C.ar    1  UNL1        0.0016
     10 C           1.3819    0.7320   21.9068 C.ar    1  UNL1        0.0200
     11 C          -2.0921    3.7879   20.8007 C.ar    1  UNL1        0.0822
     12 C          -1.4668    4.1092   19.4756 C.ar    1  UNL1        0.0530
     13 S          -0.3429    3.1425   19.2468 S.2     1  UNL1       -0.0662
     14 C          -0.2736    2.2238   20.4305 C.ar    1  UNL1        0.1119
     15 N          -1.3546    2.6227   21.3908 N.ar    1  UNL1       -0.2412
     16 C          -3.2513    4.5058   21.4258 C.3     1  UNL1        0.1192
     17 N          -4.6051    3.8607   21.4558 N.3     1  UNL1       -0.2668
     18 C          -6.8343    4.8326   20.5415 C.3     1  UNL1        0.0174
     19 C          -5.5614    4.0708   20.3194 C.3     1  UNL1        0.0580
     20 C          -5.2448    3.5192   18.9610 C.3     1  UNL1        0.0174
     21 C          -5.0027    3.0054   22.6222 C.3     1  UNL1        0.1045
     22 C          -4.5724    3.3814   24.0091 C.3     1  UNL1        0.1544
     23 O          -5.5227    3.2214   25.1586 O.3     1  UNL1       -0.3805
     24 H          -6.2684    3.8319   25.0490 H       1  UNL1        0.2105
     25 C           2.8661   -1.9155   19.4875 C.3     1  UNL1        0.1062
     26 C           4.1289   -1.6350   18.7278 C.3     1  UNL1        0.0276
     27 C           4.2234   -0.4208   17.8522 C.3     1  UNL1        0.0341
     28 C           5.4860   -0.1403   17.0926 C.3     1  UNL1        0.1422
     29 O           6.6541   -1.0741   17.2085 O.3     1  UNL1       -0.3538
     30 C           6.5596   -2.2884   18.0841 C.3     1  UNL1        0.1422
     31 C           5.2970   -2.5689   18.8437 C.3     1  UNL1        0.0341
@<TRIPOS>BOND
     1    18    19    1
     2    19    20    1
     3    19    17    1
     4    17    21    1
     5    21    22    1
     6    22    23    1
     7    17    16    1
     8    16    11    1
     9    11    12   ar
    10    12    13   ar
    11    13    14   ar
    12    14     1    1
    13     1     2   ar
    14     2     3   ar
    15     3    25    1
    16    25    26    1
    17    26    27    1
    18    27    28    1
    19    28    29    1
    20    29    30    1
    21    30    31    1
    22     3     4   ar
    23     4     5   ar
    24     5     6    1
    25     5     7   ar
    26     7     8   ar
    27     8     9   ar
    28     9    10   ar
    29    14    15   ar
    30    15    11   ar
    31    10     1   ar
    32    31    26    1
    33    10     4   ar
    34    23    24    1
@<TRIPOS>MOLECULE
*****
 31 34 0 0 0
SMALL
GASTEIGER

@<TRIPOS>ATOM
      1 C           0.5903    1.1808   20.4490 C.ar    1  UNL1        0.0424
      2 C           1.1258    0.2218   19.4273 C.ar    1  UNL1        0.0779
      3 N           2.0846   -0.7027   20.1171 N.ar    1  UNL1       -0.3253
      4 C           2.1419   -0.3151   21.5651 C.ar    1  UNL1        0.0707
      5 C           2.9156   -0.8718   22.7232 C.ar    1  UNL1        0.0734
      6 CL          3.8391   -2.0358   22.5181 Cl      1  UNL1       -0.0807
      7 C           2.7658   -0.2644   24.0865 C.ar    1  UNL1        0.0129
      8 C           1.8422    0.8996   24.2916 C.ar    1  UNL1        0.0010
      9 C           1.0685    1.4563   23.1335 C.ar    1  UNL1        0.0016
     10 C           1.2183    0.8489   21.7702 C.ar    1  UNL1        0.0200
     11 C          -2.4024    3.6467   20.2800 C.ar    1  UNL1        0.0822
     12 C          -1.4420    4.2904   19.3242 C.ar    1  UNL1        0.0530
     13 S          -0.2041    3.4450   19.2712 S.2     1  UNL1       -0.0662
     14 C          -0.3993    2.2788   20.1942 C.ar    1  UNL1        0.1119
     15 N          -1.7579    2.4035   20.8176 N.ar    1  UNL1       -0.2412
     16 C          -3.7674    4.1566   20.6356 C.3     1  UNL1        0.1192
     17 N          -4.2586    4.0616   22.0497 N.3     1  UNL1       -0.2668
     18 C          -2.8804    5.9427   23.1950 C.3     1  UNL1        0.0174
     19 C          -3.3901    4.5321   23.1785 C.3     1  UNL1        0.0580
     20 C          -3.0313    3.5919   24.2909 C.3     1  UNL1        0.0174
     21 C          -5.6184    3.4962   22.3349 C.3     1  UNL1        0.1045
     22 C          -6.7193    4.3955   22.8137 C.3     1  UNL1        0.1544
     23 O          -8.0739    3.8270   23.1167 O.3     1  UNL1       -0.3805
     24 H          -8.4773    3.4985   22.2980 H       1  UNL1        0.2105
     25 C           2.8517   -1.8188   19.4722 C.3     1  UNL1        0.1062
     26 C           4.1072   -1.5217   18.7070 C.3     1  UNL1        0.0276
     27 C           4.2053   -0.2724   17.8827 C.3     1  UNL1        0.0341
     28 C           5.4608    0.0247   17.1175 C.3     1  UNL1        0.1422
     29 O           6.6182   -0.9277   17.1766 O.3     1  UNL1       -0.3538
     30 C           6.5201   -2.1770   18.0009 C.3     1  UNL1        0.1422
     31 C           5.2646   -2.4741   18.7661 C.3     1  UNL1        0.0341
@<TRIPOS>BOND
     1    18    19    1
     2    19    20    1
     3    19    17    1
     4    17    21    1
     5    21    22    1
     6    22    23    1
     7    17    16    1
     8    16    11    1
     9    11    12   ar
    10    12    13   ar
    11    13    14   ar
    12    14     1    1
    13     1     2   ar
    14     2     3   ar
    15     3    25    1
    16    25    26    1
    17    26    27    1
    18    27    28    1
    19    28    29    1
    20    29    30    1
    21    30    31    1
    22     3     4   ar
    23     4     5   ar
    24     5     6    1
    25     5     7   ar
    26     7     8   ar
    27     8     9   ar
    28     9    10   ar
    29    14    15   ar
    30    15    11   ar
    31    10     1   ar
    32    31    26    1
    33    10     4   ar
    34    23    24    1
@<TRIPOS>MOLECULE
*****
 31 34 0 0 0
SMALL
GASTEIGER

@<TRIPOS>ATOM
      1 C           7.1251   -4.1640   24.0938 C.ar    1  UNL1        0.0424
      2 C           6.4408   -4.0405   25.4229 C.ar    1  UNL1        0.0779
      3 N           6.8103   -5.2378   26.2475 N.ar    1  UNL1       -0.3253
      4 C           7.7230   -6.1012   25.4281 C.ar    1  UNL1        0.0707
      5 C           8.4021   -7.4060   25.7221 C.ar    1  UNL1        0.0734
      6 CL          8.2075   -8.0696   27.0532 Cl      1  UNL1       -0.0807
      7 C           9.2757   -8.0471   24.6850 C.ar    1  UNL1        0.0129
      8 C           9.4703   -7.3835   23.3539 C.ar    1  UNL1        0.0010
      9 C           8.7913   -6.0788   23.0600 C.ar    1  UNL1        0.0016
     10 C           7.9176   -5.4376   24.0971 C.ar    1  UNL1        0.0200
     11 C           6.1847   -1.8952   21.0883 C.ar    1  UNL1        0.0822
     12 C           7.5988   -1.4654   21.3446 C.ar    1  UNL1        0.0530
     13 S           8.1232   -2.2630   22.5017 S.2     1  UNL1       -0.0662
     14 C           7.0332   -3.1857   22.9605 C.ar    1  UNL1        0.1119
     15 N           5.8352   -2.9584   22.0870 N.ar    1  UNL1       -0.2412
     16 C           5.2792   -1.3564   20.0208 C.3     1  UNL1        0.1192
     17 N           3.8713   -1.8608   19.9066 N.3     1  UNL1       -0.2668
     18 C           2.9580   -0.9430   22.1590 C.3     1  UNL1        0.0174
     19 C           2.7744   -1.2076   20.6940 C.3     1  UNL1        0.0580
     20 C           1.4938   -0.8189   20.0164 C.3     1  UNL1        0.0174
     21 C           3.5602   -3.0186   19.0050 C.3     1  UNL1        0.1045
     22 C           3.7482   -4.4233   19.4961 C.3     1  UNL1        0.1544
     23 O           5.1225   -4.9241   19.8286 O.3     1  UNL1       -0.3805
     24 H           5.6572   -4.9619   19.0202 H       1  UNL1        0.2105
     25 C           6.3482   -5.5218   27.6460 C.3     1  UNL1        0.1062
     26 C           7.2098   -5.1390   28.8129 C.3     1  UNL1        0.0276
     27 C           8.3308   -4.1597   28.6281 C.3     1  UNL1        0.0341
     28 C           9.1924   -3.7770   29.7948 C.3     1  UNL1        0.1422
     29 O           8.9327   -4.3736   31.1463 O.3     1  UNL1       -0.3538
     30 C           7.8117   -5.3529   31.3311 C.3     1  UNL1        0.1422
     31 C           6.9501   -5.7356   30.1644 C.3     1  UNL1        0.0341
@<TRIPOS>BOND
     1    18    19    1
     2    19    20    1
     3    19    17    1
     4    17    21    1
     5    21    22    1
     6    22    23    1
     7    17    16    1
     8    16    11    1
     9    11    12   ar
    10    12    13   ar
    11    13    14   ar
    12    14     1    1
    13     1     2   ar
    14     2     3   ar
    15     3    25    1
    16    25    26    1
    17    26    27    1
    18    27    28    1
    19    28    29    1
    20    29    30    1
    21    30    31    1
    22     3     4   ar
    23     4     5   ar
    24     5     6    1
    25     5     7   ar
    26     7     8   ar
    27     8     9   ar
    28     9    10   ar
    29    14    15   ar
    30    15    11   ar
    31    10     1   ar
    32    31    26    1
    33    10     4   ar
    34    23    24    1
@<TRIPOS>MOLECULE
*****
 31 34 0 0 0
SMALL
GASTEIGER

@<TRIPOS>ATOM
      1 C           2.5837   -0.1096   23.0126 C.ar    1  UNL1        0.0424
      2 C           3.1574   -1.1950   22.1508 C.ar    1  UNL1        0.0779
      3 N           2.6896   -0.9658   20.7441 N.ar    1  UNL1       -0.3253
      4 C           1.8268    0.2612   20.7367 C.ar    1  UNL1        0.0707
      5 C           1.0923    0.9650   19.6344 C.ar    1  UNL1        0.0734
      6 CL          1.1577    0.4359   18.2323 Cl      1  UNL1       -0.0807
      7 C           0.2924    2.1980   19.9341 C.ar    1  UNL1        0.0129
      8 C           0.2270    2.7272   21.3362 C.ar    1  UNL1        0.0010
      9 C           0.9615    2.0233   22.4385 C.ar    1  UNL1        0.0016
     10 C           1.7614    0.7904   22.1387 C.ar    1  UNL1        0.0200
     11 C           2.6513    0.8756   26.7664 C.ar    1  UNL1        0.0822
     12 C           3.5903   -0.2941   26.7567 C.ar    1  UNL1        0.0530
     13 S           3.6793   -0.8055   25.3494 S.2     1  UNL1       -0.0662
     14 C           2.7953    0.0481   24.4893 C.ar    1  UNL1        0.1119
     15 N           2.1600    1.0870   25.3650 N.ar    1  UNL1       -0.2412
     16 C           2.2705    1.6906   27.9666 C.3     1  UNL1        0.1192
     17 N           1.1440    1.2434   28.8502 N.3     1  UNL1       -0.2668
     18 C          -0.8318    1.9418   27.3146 C.3     1  UNL1        0.0174
     19 C          -0.2053    0.9597   28.2596 C.3     1  UNL1        0.0580
     20 C          -0.9281   -0.3060   28.6139 C.3     1  UNL1        0.0174
     21 C           1.3668    1.0798   30.3246 C.3     1  UNL1        0.1045
     22 C           2.5073    0.2423   30.8224 C.3     1  UNL1        0.1544
     23 O           2.3326   -1.2378   30.9928 O.3     1  UNL1       -0.3805
     24 H           1.6869   -1.4082   31.6964 H       1  UNL1        0.2105
     25 C           3.0255   -1.8146   19.5539 C.3     1  UNL1        0.1062
     26 C           4.2895   -1.5632   18.7862 C.3     1  UNL1        0.0276
     27 C           4.4546   -0.2910   18.0090 C.3     1  UNL1        0.0341
     28 C           5.7185   -0.0396   17.2413 C.3     1  UNL1        0.1422
     29 O           6.8174   -1.0606   17.2510 O.3     1  UNL1       -0.3538
     30 C           6.6524   -2.3328   18.0282 C.3     1  UNL1        0.1422
     31 C           5.3885   -2.5842   18.7958 C.3     1  UNL1        0.0341
@<TRIPOS>BOND
     1    18    19    1
     2    19    20    1
     3    19    17    1
     4    17    21    1
     5    21    22    1
     6    22    23    1
     7    17    16    1
     8    16    11    1
     9    11    12   ar
    10    12    13   ar
    11    13    14   ar
    12    14     1    1
    13     1     2   ar
    14     2     3   ar
    15     3    25    1
    16    25    26    1
    17    26    27    1
    18    27    28    1
    19    28    29    1
    20    29    30    1
    21    30    31    1
    22     3     4   ar
    23     4     5   ar
    24     5     6    1
    25     5     7   ar
    26     7     8   ar
    27     8     9   ar
    28     9    10   ar
    29    14    15   ar
    30    15    11   ar
    31    10     1   ar
    32    31    26    1
    33    10     4   ar
    34    23    24    1
@<TRIPOS>MOLECULE
*****
 31 34 0 0 0
SMALL
GASTEIGER

@<TRIPOS>ATOM
      1 C           5.6087   -2.6606   22.3454 C.ar    1  UNL1        0.0424
      2 C           4.1468   -2.4110   22.1206 C.ar    1  UNL1        0.0779
      3 N           3.9464   -2.1108   20.6647 N.ar    1  UNL1       -0.3253
      4 C           5.2844   -2.1748   19.9897 C.ar    1  UNL1        0.0707
      5 C           5.7001   -1.9676   18.5634 C.ar    1  UNL1        0.0734
      6 CL          4.6727   -1.6279   17.5246 Cl      1  UNL1       -0.0807
      7 C           7.1430   -2.1002   18.1760 C.ar    1  UNL1        0.0129
      8 C           8.1704   -2.4400   19.2148 C.ar    1  UNL1        0.0010
      9 C           7.7548   -2.6472   20.6410 C.ar    1  UNL1        0.0016
     10 C           6.3118   -2.5146   21.0285 C.ar    1  UNL1        0.0200
     11 C           7.6834   -4.0190   25.3314 C.ar    1  UNL1        0.0822
     12 C           6.8115   -3.0106   26.0191 C.ar    1  UNL1        0.0530
     13 S           5.9281   -2.3790   24.9843 S.2     1  UNL1       -0.0662
     14 C           6.2542   -2.9970   23.6570 C.ar    1  UNL1        0.1119
     15 N           7.3389   -4.0105   23.8715 N.ar    1  UNL1       -0.2412
     16 C           8.7181   -4.8838   25.9882 C.3     1  UNL1        0.1192
     17 N           8.2950   -6.0370   26.8491 N.3     1  UNL1       -0.2668
     18 C           8.0596   -8.6079   27.1404 C.3     1  UNL1        0.0174
     19 C           8.1418   -7.4035   26.2500 C.3     1  UNL1        0.0580
     20 C           8.0708   -7.5658   24.7604 C.3     1  UNL1        0.0174
     21 C           8.0251   -5.8235   28.3091 C.3     1  UNL1        0.1045
     22 C           6.6295   -5.5407   28.7803 C.3     1  UNL1        0.1544
     23 O           5.4647   -5.7921   27.8691 O.3     1  UNL1       -0.3805
     24 H           5.5075   -5.1842   27.1145 H       1  UNL1        0.2105
     25 C           2.6377   -1.8010   20.0003 C.3     1  UNL1        0.1062
     26 C           2.0880   -0.4059   20.0404 C.3     1  UNL1        0.0276
     27 C           2.9676    0.7573   19.6892 C.3     1  UNL1        0.0341
     28 C           2.4180    2.1523   19.7293 C.3     1  UNL1        0.1422
     29 O           0.9886    2.3842   20.1206 O.3     1  UNL1       -0.3538
     30 C           0.1090    1.2211   20.4718 C.3     1  UNL1        0.1422
     31 C           0.6586   -0.1739   20.4317 C.3     1  UNL1        0.0341
@<TRIPOS>BOND
     1    18    19    1
     2    19    20    1
     3    19    17    1
     4    17    21    1
     5    21    22    1
     6    22    23    1
     7    17    16    1
     8    16    11    1
     9    11    12   ar
    10    12    13   ar
    11    13    14   ar
    12    14     1    1
    13     1     2   ar
    14     2     3   ar
    15     3    25    1
    16    25    26    1
    17    26    27    1
    18    27    28    1
    19    28    29    1
    20    29    30    1
    21    30    31    1
    22     3     4   ar
    23     4     5   ar
    24     5     6    1
    25     5     7   ar
    26     7     8   ar
    27     8     9   ar
    28     9    10   ar
    29    14    15   ar
    30    15    11   ar
    31    10     1   ar
    32    31    26    1
    33    10     4   ar
    34    23    24    1
@<TRIPOS>MOLECULE
*****
 31 34 0 0 0
SMALL
GASTEIGER

@<TRIPOS>ATOM
      1 C          -6.7052  -18.6625   21.5385 C.ar    1  UNL1        0.0424
      2 C          -6.4258  -17.7241   22.6748 C.ar    1  UNL1        0.0779
      3 N          -4.9463  -17.7233   22.9221 N.ar    1  UNL1       -0.3253
      4 C          -4.3114  -18.6612   21.9386 C.ar    1  UNL1        0.0707
      5 C          -2.8839  -19.0617   21.7112 C.ar    1  UNL1        0.0734
      6 CL         -1.7968  -18.4812   22.5664 Cl      1  UNL1       -0.0807
      7 C          -2.5435  -20.0426   20.6287 C.ar    1  UNL1        0.0129
      8 C          -3.6306  -20.6231   19.7736 C.ar    1  UNL1        0.0010
      9 C          -5.0581  -20.2226   20.0009 C.ar    1  UNL1        0.0016
     10 C          -5.3985  -19.2417   21.0834 C.ar    1  UNL1        0.0200
     11 C         -10.4586  -19.1121   20.6574 C.ar    1  UNL1        0.0822
     12 C          -9.8033  -19.7647   19.4764 C.ar    1  UNL1        0.0530
     13 S          -8.3176  -19.6758   19.6627 S.2     1  UNL1       -0.0662
     14 C          -8.0546  -18.9681   20.9589 C.ar    1  UNL1        0.1119
     15 N          -9.3777  -18.6198   21.5736 N.ar    1  UNL1       -0.2412
     16 C         -11.9352  -18.9758   20.8826 C.3     1  UNL1        0.1192
     17 N         -12.4607  -17.8907   21.7751 N.3     1  UNL1       -0.2668
     18 C         -14.0901  -17.9712   23.7972 C.3     1  UNL1        0.0174
     19 C         -12.7177  -18.1718   23.2260 C.3     1  UNL1        0.0580
     20 C         -11.6022  -18.6534   24.1056 C.3     1  UNL1        0.0174
     21 C         -12.7293  -16.5247   21.2168 C.3     1  UNL1        0.1045
     22 C         -11.9029  -16.0040   20.0784 C.3     1  UNL1        0.1544
     23 O         -12.5717  -15.3742   18.8926 O.3     1  UNL1       -0.3805
     24 H         -13.0927  -16.0435   18.4220 H       1  UNL1        0.2105
     25 C          -4.2278  -16.9248   23.9691 C.3     1  UNL1        0.1062
     26 C          -4.9911  -16.3360   25.1184 C.3     1  UNL1        0.0276
     27 C          -5.7834  -15.0769   24.9260 C.3     1  UNL1        0.0341
     28 C          -6.5467  -14.4880   26.0751 C.3     1  UNL1        0.1422
     29 O          -6.5177  -15.1583   27.4167 O.3     1  UNL1       -0.3538
     30 C          -5.7254  -16.4174   27.6091 C.3     1  UNL1        0.1422
     31 C          -4.9621  -17.0062   26.4600 C.3     1  UNL1        0.0341
@<TRIPOS>BOND
     1    18    19    1
     2    19    20    1
     3    19    17    1
     4    17    21    1
     5    21    22    1
     6    22    23    1
     7    17    16    1
     8    16    11    1
     9    11    12   ar
    10    12    13   ar
    11    13    14   ar
    12    14     1    1
    13     1     2   ar
    14     2     3   ar
    15     3    25    1
    16    25    26    1
    17    26    27    1
    18    27    28    1
    19    28    29    1
    20    29    30    1
    21    30    31    1
    22     3     4   ar
    23     4     5   ar
    24     5     6    1
    25     5     7   ar
    26     7     8   ar
    27     8     9   ar
    28     9    10   ar
    29    14    15   ar
    30    15    11   ar
    31    10     1   ar
    32    31    26    1
    33    10     4   ar
    34    23    24    1
@<TRIPOS>MOLECULE
*****
 31 34 0 0 0
SMALL
GASTEIGER

@<TRIPOS>ATOM
      1 C           2.6690    0.0715   23.3800 C.ar    1  UNL1        0.0424
      2 C           3.4646   -0.7213   22.3858 C.ar    1  UNL1        0.0779
      3 N           2.9184   -0.4324   21.0190 N.ar    1  UNL1       -0.3253
      4 C           1.7852    0.5390   21.1685 C.ar    1  UNL1        0.0707
      5 C           0.8739    1.1802   20.1644 C.ar    1  UNL1        0.0734
      6 CL          1.0280    0.8688   18.7052 Cl      1  UNL1       -0.0807
      7 C          -0.1916    2.1329   20.6195 C.ar    1  UNL1        0.0129
      8 C          -0.3458    2.4443   22.0787 C.ar    1  UNL1        0.0010
      9 C           0.5656    1.8031   23.0828 C.ar    1  UNL1        0.0016
     10 C           1.6311    0.8505   22.6277 C.ar    1  UNL1        0.0200
     11 C           2.7910    0.7332   27.2027 C.ar    1  UNL1        0.0822
     12 C           3.5935   -0.5300   27.1014 C.ar    1  UNL1        0.0530
     13 S           3.6454   -0.9317   25.6571 S.2     1  UNL1       -0.0662
     14 C           2.8751    0.0834   24.8658 C.ar    1  UNL1        0.1119
     15 N           2.3471    1.1123   25.8210 N.ar    1  UNL1       -0.2412
     16 C           2.4862    1.4853   28.4641 C.3     1  UNL1        0.1192
     17 N           1.0782    1.9062   28.7647 N.3     1  UNL1       -0.2668
     18 C          -0.9034    1.6880   27.0987 C.3     1  UNL1        0.0174
     19 C          -0.0737    1.1204   28.2119 C.3     1  UNL1        0.0580
     20 C          -0.3960   -0.2332   28.7724 C.3     1  UNL1        0.0174
     21 C           0.8220    3.1129   29.6181 C.3     1  UNL1        0.1045
     22 C           0.7098    2.9686   31.1069 C.3     1  UNL1        0.1544
     23 O           0.0923    1.7352   31.6964 O.3     1  UNL1       -0.3805
     24 H          -0.8473    1.6986   31.4585 H       1  UNL1        0.2105
     25 C           3.4176   -1.0129   19.7292 C.3     1  UNL1        0.1062
     26 C           4.0733   -2.3621   19.7180 C.3     1  UNL1        0.0276
     27 C           5.5007   -2.5060   20.1560 C.3     1  UNL1        0.0341
     28 C           6.1563   -3.8550   20.1449 C.3     1  UNL1        0.1422
     29 O           5.3846   -5.0602   19.6956 O.3     1  UNL1       -0.3538
     30 C           3.9572   -4.9164   19.2576 C.3     1  UNL1        0.1422
     31 C           3.3015   -3.5673   19.2688 C.3     1  UNL1        0.0341
@<TRIPOS>BOND
     1    18    19    1
     2    19    20    1
     3    19    17    1
     4    17    21    1
     5    21    22    1
     6    22    23    1
     7    17    16    1
     8    16    11    1
     9    11    12   ar
    10    12    13   ar
    11    13    14   ar
    12    14     1    1
    13     1     2   ar
    14     2     3   ar
    15     3    25    1
    16    25    26    1
    17    26    27    1
    18    27    28    1
    19    28    29    1
    20    29    30    1
    21    30    31    1
    22     3     4   ar
    23     4     5   ar
    24     5     6    1
    25     5     7   ar
    26     7     8   ar
    27     8     9   ar
    28     9    10   ar
    29    14    15   ar
    30    15    11   ar
    31    10     1   ar
    32    31    26    1
    33    10     4   ar
    34    23    24    1
@<TRIPOS>MOLECULE
*****
 31 34 0 0 0
SMALL
GASTEIGER

@<TRIPOS>ATOM
      1 C           0.1547    2.0278   22.2430 C.ar    1  UNL1        0.0424
      2 C          -0.6249    3.1558   21.6349 C.ar    1  UNL1        0.0779
      3 N          -1.3769    3.8452   22.7346 N.ar    1  UNL1       -0.3253
      4 C          -1.0620    3.1432   24.0223 C.ar    1  UNL1        0.0707
      5 C          -1.5150    3.3818   25.4322 C.ar    1  UNL1        0.0734
      6 CL         -2.4616    4.5050   25.7360 Cl      1  UNL1       -0.0807
      7 C          -1.0214    2.4970   26.5383 C.ar    1  UNL1        0.0129
      8 C          -0.0748    1.3738   26.2345 C.ar    1  UNL1        0.0010
      9 C           0.3782    1.1353   24.8246 C.ar    1  UNL1        0.0016
     10 C          -0.1155    2.0200   23.7185 C.ar    1  UNL1        0.0200
     11 C           3.0171   -0.1149   20.7325 C.ar    1  UNL1        0.0822
     12 C           1.8266   -0.6686   20.0071 C.ar    1  UNL1        0.0530
     13 S           0.6095    0.0666   20.4846 S.2     1  UNL1       -0.0662
     14 C           1.0477    1.0748   21.5052 C.ar    1  UNL1        0.1119
     15 N           2.5356    0.9626   21.6584 N.ar    1  UNL1       -0.2412
     16 C           4.4391   -0.5604   20.5620 C.3     1  UNL1        0.1192
     17 N           4.7912   -1.5529   19.4940 N.3     1  UNL1       -0.2668
     18 C           4.5116   -3.5083   21.1816 C.3     1  UNL1        0.0174
     19 C           4.6896   -3.0231   19.7735 C.3     1  UNL1        0.0580
     20 C           4.7658   -4.0082   18.6448 C.3     1  UNL1        0.0174
     21 C           5.2450   -1.0753   18.1464 C.3     1  UNL1        0.1045
     22 C           4.2407   -0.5756   17.1505 C.3     1  UNL1        0.1544
     23 O           3.6595   -1.5148   16.1356 O.3     1  UNL1       -0.3805
     24 H           4.3575   -1.8078   15.5291 H       1  UNL1        0.2105
     25 C          -2.2844    5.0288   22.5747 C.3     1  UNL1        0.1062
     26 C          -3.7288    4.8246   22.2252 C.3     1  UNL1        0.0276
     27 C          -4.1022    3.9842   21.0402 C.3     1  UNL1        0.0341
     28 C          -5.5465    3.7799   20.6907 C.3     1  UNL1        0.1422
     29 O          -6.6175    4.4161   21.5263 O.3     1  UNL1       -0.3538
     30 C          -6.2441    5.2565   22.7113 C.3     1  UNL1        0.1422
     31 C          -4.7998    5.4607   23.0608 C.3     1  UNL1        0.0341
@<TRIPOS>BOND
     1    18    19    1
     2    19    20    1
     3    19    17    1
     4    17    21    1
     5    21    22    1
     6    22    23    1
     7    17    16    1
     8    16    11    1
     9    11    12   ar
    10    12    13   ar
    11    13    14   ar
    12    14     1    1
    13     1     2   ar
    14     2     3   ar
    15     3    25    1
    16    25    26    1
    17    26    27    1
    18    27    28    1
    19    28    29    1
    20    29    30    1
    21    30    31    1
    22     3     4   ar
    23     4     5   ar
    24     5     6    1
    25     5     7   ar
    26     7     8   ar
    27     8     9   ar
    28     9    10   ar
    29    14    15   ar
    30    15    11   ar
    31    10     1   ar
    32    31    26    1
    33    10     4   ar
    34    23    24    1
