@<TRIPOS>MOLECULE
*****
 29 32 0 0 0
SMALL
GASTEIGER

@<TRIPOS>ATOM
      1 N           2.7909    0.2138   18.8706 N.pl3   1  UNL1       -0.3017
      2 C           1.2935    0.2220   18.9572 C.3     1  UNL1        0.1124
      3 C           0.5454    1.5203   18.8893 C.3     1  UNL1        0.1152
      4 N           1.2948    2.8106   18.7349 N.am    1  UNL1       -0.2713
      5 C           0.5467    4.1089   18.6670 C.2     1  UNL1        0.2666
      6 O           1.2961    5.3990   18.5126 O.2     1  UNL1       -0.2683
      7 C           2.7922    2.8024   18.6483 C.3     1  UNL1        0.1152
      8 C           3.5403    1.5039   18.7161 C.3     1  UNL1        0.1124
      9 C           4.5816   -1.4042   17.9085 C.ar    1  UNL1        0.1519
     10 C           5.3297   -2.7026   17.9764 C.ar    1  UNL1        0.0382
     11 C           5.0351   -3.6814   19.0742 C.ar    1  UNL1        0.0032
     12 C           3.9925   -3.3618   20.1041 C.ar    1  UNL1        0.0015
     13 C           3.2444   -2.0634   20.0362 C.ar    1  UNL1        0.0176
     14 C           3.5390   -1.0846   18.9384 C.ar    1  UNL1        0.0824
     15 C           6.2060    0.2667   16.7598 C.3     1  UNL1        0.2525
     16 O           4.8762   -0.4254   16.8107 O.3     1  UNL1       -0.4702
     17 C          -0.9508    4.1171   18.7536 C.ar    1  UNL1        0.1328
     18 C          -1.7608    4.1542   20.0156 C.ar    1  UNL1        0.0442
     19 C          -3.2118    4.1497   19.6354 C.ar    1  UNL1        0.1025
     20 N          -3.2986    4.1097   18.1384 N.ar    1  UNL1       -0.1691
     21 N          -1.9012    4.0895   17.5935 N.ar    1  UNL1       -0.2444
     22 C          -1.5210    4.0490   16.1430 C.3     1  UNL1        0.1539
     23 C          -4.3723    4.1798   20.5853 C.ar    1  UNL1        0.0194
     24 C          -4.3250    3.3789   21.8527 C.ar    1  UNL1        0.0024
     25 C          -5.4853    3.4090   22.8027 C.ar    1  UNL1        0.0114
     26 C          -6.6931    4.2400   22.4852 C.ar    1  UNL1        0.0577
     27 CL         -7.8536    4.2701   23.4353 Cl      1  UNL1       -0.0822
     28 C          -6.7404    5.0409   21.2178 C.ar    1  UNL1        0.0114
     29 C          -5.5801    5.0108   20.2679 C.ar    1  UNL1        0.0024
@<TRIPOS>BOND
     1    15    16    1
     2    16     9    1
     3     9    10   ar
     4    10    11   ar
     5    11    12   ar
     6    12    13   ar
     7    13    14   ar
     8    14     1    1
     9     1     2    1
    10     2     3    1
    11     3     4    1
    12     4     5   am
    13     5     6    2
    14     5    17    1
    15    17    18   ar
    16    18    19   ar
    17    19    23    1
    18    23    24   ar
    19    24    25   ar
    20    25    26   ar
    21    26    27    1
    22    26    28   ar
    23    28    29   ar
    24    19    20   ar
    25    20    21   ar
    26    21    22    1
    27     4     7    1
    28     7     8    1
    29    14     9   ar
    30     8     1    1
    31    21    17   ar
    32    29    23   ar
@<TRIPOS>MOLECULE
*****
 29 32 0 0 0
SMALL
GASTEIGER

@<TRIPOS>ATOM
      1 N         -12.8401   -0.9680   17.9355 N.pl3   1  UNL1       -0.3017
      2 C         -13.8323   -2.0728   17.7233 C.3     1  UNL1        0.1124
      3 C         -13.4509   -3.4916   18.0256 C.3     1  UNL1        0.1152
      4 N         -12.0773   -3.8057   18.5400 N.am    1  UNL1       -0.2713
      5 C         -11.6959   -5.2245   18.8423 C.2     1  UNL1        0.2666
      6 O         -10.3224   -5.5386   19.3567 O.2     1  UNL1       -0.2683
      7 C         -11.0851   -2.7009   18.7522 C.3     1  UNL1        0.1152
      8 C         -11.4666   -1.2820   18.4500 C.3     1  UNL1        0.1124
      9 C         -14.3846    1.0817   18.3399 C.ar    1  UNL1        0.1519
     10 C         -14.7660    2.5006   18.0377 C.ar    1  UNL1        0.0382
     11 C         -13.9844    3.2886   17.0286 C.ar    1  UNL1        0.0032
     12 C         -12.8214    2.6578   16.3219 C.ar    1  UNL1        0.0015
     13 C         -12.4400    1.2390   16.6242 C.ar    1  UNL1        0.0176
     14 C         -13.2216    0.4509   17.6332 C.ar    1  UNL1        0.0824
     15 C         -16.6587    0.1990   19.2338 C.3     1  UNL1        0.2525
     16 O         -15.1662    0.2937   19.3490 O.3     1  UNL1       -0.4702
     17 C         -12.6881   -6.3293   18.6301 C.ar    1  UNL1        0.1328
     18 C         -14.0726   -6.3932   19.2036 C.ar    1  UNL1        0.0442
     19 C         -14.7102   -7.6676   18.7351 C.ar    1  UNL1        0.1025
     20 N         -13.7196   -8.3914   17.8720 N.ar    1  UNL1       -0.1691
     21 N         -12.4699   -7.5643   17.8071 N.ar    1  UNL1       -0.2444
     22 C         -11.2213   -7.9113   17.0518 C.3     1  UNL1        0.1539
     23 C         -16.0951   -8.1359   19.0708 C.ar    1  UNL1        0.0194
     24 C         -17.0658   -7.1982   19.7251 C.ar    1  UNL1        0.0024
     25 C         -18.4507   -7.6665   20.0608 C.ar    1  UNL1        0.0114
     26 C         -18.8648   -9.0725   19.7421 C.ar    1  UNL1        0.0577
     27 CL        -20.2498   -9.5408   20.0778 Cl      1  UNL1       -0.0822
     28 C         -17.8940  -10.0102   19.0877 C.ar    1  UNL1        0.0114
     29 C         -16.5092   -9.5420   18.7520 C.ar    1  UNL1        0.0024
@<TRIPOS>BOND
     1    15    16    1
     2    16     9    1
     3     9    10   ar
     4    10    11   ar
     5    11    12   ar
     6    12    13   ar
     7    13    14   ar
     8    14     1    1
     9     1     2    1
    10     2     3    1
    11     3     4    1
    12     4     5   am
    13     5     6    2
    14     5    17    1
    15    17    18   ar
    16    18    19   ar
    17    19    23    1
    18    23    24   ar
    19    24    25   ar
    20    25    26   ar
    21    26    27    1
    22    26    28   ar
    23    28    29   ar
    24    19    20   ar
    25    20    21   ar
    26    21    22    1
    27     4     7    1
    28     7     8    1
    29    14     9   ar
    30     8     1    1
    31    21    17   ar
    32    29    23   ar
@<TRIPOS>MOLECULE
*****
 29 32 0 0 0
SMALL
GASTEIGER

@<TRIPOS>ATOM
      1 N           2.5143   -0.1548   19.9782 N.pl3   1  UNL1       -0.3017
      2 C           1.0212   -0.0328   20.0538 C.3     1  UNL1        0.1124
      3 C           0.3531    1.2527   19.6652 C.3     1  UNL1        0.1152
      4 N           1.1781    2.4163   19.2009 N.am    1  UNL1       -0.2713
      5 C           0.5100    3.7018   18.8122 C.2     1  UNL1        0.2666
      6 O           1.3351    4.8653   18.3479 O.2     1  UNL1       -0.2683
      7 C           2.6712    2.2943   19.1252 C.3     1  UNL1        0.1152
      8 C           3.3393    1.0087   19.5139 C.3     1  UNL1        0.1124
      9 C           3.6257   -1.6569   21.7834 C.ar    1  UNL1        0.1519
     10 C           4.2937   -2.9424   22.1720 C.ar    1  UNL1        0.0382
     11 C           4.5185   -4.0115   21.1441 C.ar    1  UNL1        0.0032
     12 C           4.0752   -3.7950   19.7276 C.ar    1  UNL1        0.0015
     13 C           3.4071   -2.5095   19.3390 C.ar    1  UNL1        0.0176
     14 C           3.1824   -1.4404   20.3669 C.ar    1  UNL1        0.0824
     15 C           3.5270   -0.9119   24.2704 C.3     1  UNL1        0.2525
     16 O           3.4009   -0.5878   22.8113 O.3     1  UNL1       -0.4702
     17 C          -0.9831    3.8238   18.8878 C.ar    1  UNL1        0.1328
     18 C          -1.8030    3.8516   20.1436 C.ar    1  UNL1        0.0442
     19 C          -3.2451    3.9845   19.7528 C.ar    1  UNL1        0.1025
     20 N          -3.3165    4.0387   18.2555 N.ar    1  UNL1       -0.1691
     21 N          -1.9185    3.9394   17.7209 N.ar    1  UNL1       -0.2444
     22 C          -1.5250    3.9533   16.2735 C.3     1  UNL1        0.1539
     23 C          -4.4110    4.0513   20.6941 C.ar    1  UNL1        0.0194
     24 C          -4.3379    3.3695   22.0282 C.ar    1  UNL1        0.0024
     25 C          -5.5038    3.4363   22.9695 C.ar    1  UNL1        0.0114
     26 C          -6.7429    4.1849   22.5768 C.ar    1  UNL1        0.0577
     27 CL         -7.9089    4.2517   23.5181 Cl      1  UNL1       -0.0822
     28 C          -6.8160    4.8666   21.2427 C.ar    1  UNL1        0.0114
     29 C          -5.6501    4.7999   20.3013 C.ar    1  UNL1        0.0024
@<TRIPOS>BOND
     1    15    16    1
     2    16     9    1
     3     9    10   ar
     4    10    11   ar
     5    11    12   ar
     6    12    13   ar
     7    13    14   ar
     8    14     1    1
     9     1     2    1
    10     2     3    1
    11     3     4    1
    12     4     5   am
    13     5     6    2
    14     5    17    1
    15    17    18   ar
    16    18    19   ar
    17    19    23    1
    18    23    24   ar
    19    24    25   ar
    20    25    26   ar
    21    26    27    1
    22    26    28   ar
    23    28    29   ar
    24    19    20   ar
    25    20    21   ar
    26    21    22    1
    27     4     7    1
    28     7     8    1
    29    14     9   ar
    30     8     1    1
    31    21    17   ar
    32    29    23   ar
@<TRIPOS>MOLECULE
*****
 29 32 0 0 0
SMALL
GASTEIGER

@<TRIPOS>ATOM
      1 N         -13.0197   -3.3248   18.5961 N.pl3   1  UNL1       -0.3017
      2 C         -13.8536   -2.9577   19.7877 C.3     1  UNL1        0.1124
      3 C         -14.8545   -1.8449   19.6886 C.3     1  UNL1        0.1152
      4 N         -15.0216   -1.0992   18.3978 N.am    1  UNL1       -0.2713
      5 C         -16.0225    0.0136   18.2987 C.2     1  UNL1        0.2666
      6 O         -16.1895    0.7593   17.0080 O.2     1  UNL1       -0.2683
      7 C         -14.1877   -1.4663   17.2062 C.3     1  UNL1        0.1152
      8 C         -13.1868   -2.5791   17.3054 C.3     1  UNL1        0.1124
      9 C         -12.4571   -5.8597   18.5068 C.ar    1  UNL1        0.1519
     10 C         -11.4562   -6.9724   18.6060 C.ar    1  UNL1        0.0382
     11 C         -10.0169   -6.6631   18.8937 C.ar    1  UNL1        0.0032
     12 C          -9.5785   -5.2411   19.0821 C.ar    1  UNL1        0.0015
     13 C         -10.5795   -4.1283   18.9830 C.ar    1  UNL1        0.0176
     14 C         -12.0188   -4.4376   18.6953 C.ar    1  UNL1        0.0824
     15 C         -14.8174   -6.5599   19.3367 C.3     1  UNL1        0.2525
     16 O         -13.8964   -6.1690   18.2192 O.3     1  UNL1       -0.4702
     17 C         -16.8563    0.3807   19.4903 C.ar    1  UNL1        0.1328
     18 C         -16.6254    1.5495   20.4017 C.ar    1  UNL1        0.0442
     19 C         -17.6938    1.5346   21.4544 C.ar    1  UNL1        0.1025
     20 N         -18.5851    0.3567   21.1936 N.ar    1  UNL1       -0.1691
     21 N         -18.0675   -0.3565   19.9797 N.ar    1  UNL1       -0.2444
     22 C         -18.6575   -1.5902   19.3635 C.3     1  UNL1        0.1539
     23 C         -17.8445    2.5240   22.5717 C.ar    1  UNL1        0.0194
     24 C         -16.7192    3.4591   22.9023 C.ar    1  UNL1        0.0024
     25 C         -16.8698    4.4485   24.0195 C.ar    1  UNL1        0.0114
     26 C         -18.1458    4.5028   24.8063 C.ar    1  UNL1        0.0577
     27 CL        -18.2964    5.4923   25.9236 Cl      1  UNL1       -0.0822
     28 C         -19.2711    3.5677   24.4757 C.ar    1  UNL1        0.0114
     29 C         -19.1205    2.5783   23.3585 C.ar    1  UNL1        0.0024
@<TRIPOS>BOND
     1    15    16    1
     2    16     9    1
     3     9    10   ar
     4    10    11   ar
     5    11    12   ar
     6    12    13   ar
     7    13    14   ar
     8    14     1    1
     9     1     2    1
    10     2     3    1
    11     3     4    1
    12     4     5   am
    13     5     6    2
    14     5    17    1
    15    17    18   ar
    16    18    19   ar
    17    19    23    1
    18    23    24   ar
    19    24    25   ar
    20    25    26   ar
    21    26    27    1
    22    26    28   ar
    23    28    29   ar
    24    19    20   ar
    25    20    21   ar
    26    21    22    1
    27     4     7    1
    28     7     8    1
    29    14     9   ar
    30     8     1    1
    31    21    17   ar
    32    29    23   ar
@<TRIPOS>MOLECULE
*****
 29 32 0 0 0
SMALL
GASTEIGER

@<TRIPOS>ATOM
      1 N          -3.8192    4.3239   21.2237 N.pl3   1  UNL1       -0.3017
      2 C          -2.5663    3.5939   21.6073 C.3     1  UNL1        0.1124
      3 C          -1.5028    3.3386   20.5808 C.3     1  UNL1        0.1152
      4 N          -1.6922    3.8133   19.1705 N.am    1  UNL1       -0.2713
      5 C          -0.6288    3.5581   18.1440 C.2     1  UNL1        0.2666
      6 O          -0.8183    4.0328   16.7338 O.2     1  UNL1       -0.2683
      7 C          -2.9452    4.5434   18.7869 C.3     1  UNL1        0.1152
      8 C          -4.0087    4.7987   19.8135 C.3     1  UNL1        0.1124
      9 C          -4.5748    5.4147   23.4574 C.ar    1  UNL1        0.1519
     10 C          -5.6382    5.6699   24.4839 C.ar    1  UNL1        0.0382
     11 C          -7.0096    5.0897   24.3034 C.ar    1  UNL1        0.0032
     12 C          -7.3176    4.2542   23.0963 C.ar    1  UNL1        0.0015
     13 C          -6.2541    3.9990   22.0698 C.ar    1  UNL1        0.0176
     14 C          -4.8827    4.5792   22.2503 C.ar    1  UNL1        0.0824
     15 C          -2.4799    5.8188   24.9400 C.3     1  UNL1        0.2525
     16 O          -3.2034    5.9949   23.6379 O.3     1  UNL1       -0.4702
     17 C           0.6242    2.8280   18.5276 C.ar    1  UNL1        0.1328
     18 C           0.8928    1.3672   18.3180 C.ar    1  UNL1        0.0442
     19 C           2.2631    1.0670   18.8491 C.ar    1  UNL1        0.1025
     20 N           2.8415    2.3423   19.3869 N.ar    1  UNL1       -0.1691
     21 N           1.8285    3.4306   19.1883 N.ar    1  UNL1       -0.2444
     22 C           1.9914    4.8690   19.5812 C.3     1  UNL1        0.1539
     23 C           2.9368   -0.2732   18.8434 C.ar    1  UNL1        0.0194
     24 C           2.5979   -1.2875   19.8951 C.ar    1  UNL1        0.0024
     25 C           3.2715   -2.6276   19.8895 C.ar    1  UNL1        0.0114
     26 C           4.2841   -2.9535   18.8319 C.ar    1  UNL1        0.0577
     27 CL          4.9578   -4.2938   18.8262 Cl      1  UNL1       -0.0822
     28 C           4.6231   -1.9392   17.7801 C.ar    1  UNL1        0.0114
     29 C           3.9495   -0.5991   17.7858 C.ar    1  UNL1        0.0024
@<TRIPOS>BOND
     1    15    16    1
     2    16     9    1
     3     9    10   ar
     4    10    11   ar
     5    11    12   ar
     6    12    13   ar
     7    13    14   ar
     8    14     1    1
     9     1     2    1
    10     2     3    1
    11     3     4    1
    12     4     5   am
    13     5     6    2
    14     5    17    1
    15    17    18   ar
    16    18    19   ar
    17    19    23    1
    18    23    24   ar
    19    24    25   ar
    20    25    26   ar
    21    26    27    1
    22    26    28   ar
    23    28    29   ar
    24    19    20   ar
    25    20    21   ar
    26    21    22    1
    27     4     7    1
    28     7     8    1
    29    14     9   ar
    30     8     1    1
    31    21    17   ar
    32    29    23   ar
@<TRIPOS>MOLECULE
*****
 29 32 0 0 0
SMALL
GASTEIGER

@<TRIPOS>ATOM
      1 N           2.9588   -0.9849   19.4935 N.pl3   1  UNL1       -0.3017
      2 C           2.0686   -0.6215   20.6448 C.3     1  UNL1        0.1124
      3 C           1.2721    0.6489   20.6051 C.3     1  UNL1        0.1152
      4 N           1.3657    1.5560   19.4141 N.am    1  UNL1       -0.2713
      5 C           0.5692    2.8264   19.3744 C.2     1  UNL1        0.2666
      6 O           0.6629    3.7334   18.1834 O.2     1  UNL1       -0.2683
      7 C           2.2559    1.1926   18.2627 C.3     1  UNL1        0.1152
      8 C           3.0524   -0.0779   18.3025 C.3     1  UNL1        0.1124
      9 C           5.1866   -2.2296   19.9811 C.ar    1  UNL1        0.1519
     10 C           5.9830   -3.5000   20.0208 C.ar    1  UNL1        0.0382
     11 C           5.3482   -4.7963   19.6126 C.ar    1  UNL1        0.0032
     12 C           3.9169   -4.8221   19.1646 C.ar    1  UNL1        0.0015
     13 C           3.1204   -3.5517   19.1249 C.ar    1  UNL1        0.0176
     14 C           3.7553   -2.2554   19.5332 C.ar    1  UNL1        0.0824
     15 C           5.7219   -0.4643   21.8107 C.3     1  UNL1        0.2525
     16 O           5.8214   -0.9333   20.3894 O.3     1  UNL1       -0.4702
     17 C          -0.3209    3.1898   20.5257 C.ar    1  UNL1        0.1328
     18 C          -1.8207    3.2114   20.5081 C.ar    1  UNL1        0.0442
     19 C          -2.2943    3.6304   21.8683 C.ar    1  UNL1        0.1025
     20 N          -1.0872    3.8677   22.7266 N.ar    1  UNL1       -0.1691
     21 N           0.1323    3.5953   21.8969 N.ar    1  UNL1       -0.2444
     22 C           1.5554    3.7087   22.3575 C.3     1  UNL1        0.1539
     23 C          -3.7239    3.7849   22.2952 C.ar    1  UNL1        0.0194
     24 C          -4.7864    4.0594   21.2726 C.ar    1  UNL1        0.0024
     25 C          -6.2160    4.2139   21.6994 C.ar    1  UNL1        0.0114
     26 C          -6.5831    4.0940   23.1489 C.ar    1  UNL1        0.0577
     27 CL         -8.0129    4.2485   23.5757 Cl      1  UNL1       -0.0822
     28 C          -5.5206    3.8195   24.1714 C.ar    1  UNL1        0.0114
     29 C          -4.0910    3.6650   23.7446 C.ar    1  UNL1        0.0024
@<TRIPOS>BOND
     1    15    16    1
     2    16     9    1
     3     9    10   ar
     4    10    11   ar
     5    11    12   ar
     6    12    13   ar
     7    13    14   ar
     8    14     1    1
     9     1     2    1
    10     2     3    1
    11     3     4    1
    12     4     5   am
    13     5     6    2
    14     5    17    1
    15    17    18   ar
    16    18    19   ar
    17    19    23    1
    18    23    24   ar
    19    24    25   ar
    20    25    26   ar
    21    26    27    1
    22    26    28   ar
    23    28    29   ar
    24    19    20   ar
    25    20    21   ar
    26    21    22    1
    27     4     7    1
    28     7     8    1
    29    14     9   ar
    30     8     1    1
    31    21    17   ar
    32    29    23   ar
@<TRIPOS>MOLECULE
*****
 29 32 0 0 0
SMALL
GASTEIGER

@<TRIPOS>ATOM
      1 N           8.2086   -5.0114   23.6950 N.pl3   1  UNL1       -0.3017
      2 C           6.7670   -4.6868   23.4374 C.3     1  UNL1        0.1124
      3 C           6.3722   -3.9732   22.1786 C.3     1  UNL1        0.1152
      4 N           7.4191   -3.5840   21.1772 N.am    1  UNL1       -0.2713
      5 C           7.0243   -2.8704   19.9183 C.2     1  UNL1        0.2666
      6 O           8.0711   -2.4813   18.9170 O.2     1  UNL1       -0.2683
      7 C           8.8607   -3.9086   21.4347 C.3     1  UNL1        0.1152
      8 C           9.2555   -4.6223   22.6937 C.3     1  UNL1        0.1124
      9 C           8.9669   -4.9394   26.1790 C.ar    1  UNL1        0.1519
     10 C           9.3617   -5.6531   27.4378 C.ar    1  UNL1        0.0382
     11 C           9.3929   -7.1524   27.4717 C.ar    1  UNL1        0.0032
     12 C           9.0294   -7.9380   26.2467 C.ar    1  UNL1        0.0015
     13 C           8.6347   -7.2243   24.9879 C.ar    1  UNL1        0.0176
     14 C           8.6034   -5.7250   24.9540 C.ar    1  UNL1        0.0824
     15 C           7.7178   -2.7044   26.6200 C.3     1  UNL1        0.2525
     16 O           8.9357   -3.4401   26.1451 O.3     1  UNL1       -0.4702
     17 C           5.5826   -2.5459   19.6607 C.ar    1  UNL1        0.1328
     18 C           4.9307   -1.2096   19.8589 C.ar    1  UNL1        0.0442
     19 C           3.4849   -1.3385   19.4804 C.ar    1  UNL1        0.1025
     20 N           3.2434   -2.7544   19.0484 N.ar    1  UNL1       -0.1691
     21 N           4.5398   -3.5006   19.1598 N.ar    1  UNL1       -0.2444
     22 C           4.7555   -4.9476   18.8285 C.3     1  UNL1        0.1539
     23 C           2.4606   -0.2436   19.5260 C.ar    1  UNL1        0.0194
     24 C           1.2675   -0.3698   20.4262 C.ar    1  UNL1        0.0024
     25 C           0.2432    0.7249   20.4719 C.ar    1  UNL1        0.0114
     26 C           0.4121    1.9461   19.6172 C.ar    1  UNL1        0.0577
     27 CL         -0.6123    3.0409   19.6629 Cl      1  UNL1       -0.0822
     28 C           1.6052    2.0723   18.7170 C.ar    1  UNL1        0.0114
     29 C           2.6295    0.9775   18.6714 C.ar    1  UNL1        0.0024
@<TRIPOS>BOND
     1    15    16    1
     2    16     9    1
     3     9    10   ar
     4    10    11   ar
     5    11    12   ar
     6    12    13   ar
     7    13    14   ar
     8    14     1    1
     9     1     2    1
    10     2     3    1
    11     3     4    1
    12     4     5   am
    13     5     6    2
    14     5    17    1
    15    17    18   ar
    16    18    19   ar
    17    19    23    1
    18    23    24   ar
    19    24    25   ar
    20    25    26   ar
    21    26    27    1
    22    26    28   ar
    23    28    29   ar
    24    19    20   ar
    25    20    21   ar
    26    21    22    1
    27     4     7    1
    28     7     8    1
    29    14     9   ar
    30     8     1    1
    31    21    17   ar
    32    29    23   ar
@<TRIPOS>MOLECULE
*****
 29 32 0 0 0
SMALL
GASTEIGER

@<TRIPOS>ATOM
      1 N          -0.0501    2.9375   26.8540 N.pl3   1  UNL1       -0.3017
      2 C           1.0318    2.5511   25.8896 C.3     1  UNL1        0.1124
      3 C           0.7432    2.5037   24.4184 C.3     1  UNL1        0.1152
      4 N          -0.6273    2.8427   23.9116 N.am    1  UNL1       -0.2713
      5 C          -0.9159    2.7953   22.4404 C.2     1  UNL1        0.2666
      6 O          -2.2864    3.1344   21.9337 O.2     1  UNL1       -0.2683
      7 C          -1.7092    3.2292   24.8761 C.3     1  UNL1        0.1152
      8 C          -1.4205    3.2766   26.3473 C.3     1  UNL1        0.1124
      9 C           0.2621    1.7169   29.1262 C.ar    1  UNL1        0.1519
     10 C           0.5508    1.7644   30.5974 C.ar    1  UNL1        0.0382
     11 C           0.8159    3.0798   31.2676 C.ar    1  UNL1        0.0032
     12 C           0.7924    4.3478   30.4667 C.ar    1  UNL1        0.0015
     13 C           0.5038    4.3004   28.9955 C.ar    1  UNL1        0.0176
     14 C           0.2386    2.9849   28.3253 C.ar    1  UNL1        0.0824
     15 C          -1.2656   -0.3514   28.7545 C.3     1  UNL1        0.2525
     16 O          -0.0031    0.4014   28.4560 O.3     1  UNL1       -0.4702
     17 C           0.1659    2.4089   21.4760 C.ar    1  UNL1        0.1328
     18 C           0.7290    1.0313   21.2883 C.ar    1  UNL1        0.0442
     19 C           1.7858    1.1031   20.2262 C.ar    1  UNL1        0.1025
     20 N           1.8758    2.5251   19.7574 N.ar    1  UNL1       -0.1691
     21 N           0.8747    3.3321   20.5298 N.ar    1  UNL1       -0.2444
     22 C           0.6261    4.8039   20.3819 C.3     1  UNL1        0.1539
     23 C           2.6081   -0.0454   19.7215 C.ar    1  UNL1        0.0194
     24 C           3.2018    0.0051   18.3449 C.ar    1  UNL1        0.0024
     25 C           4.0241   -1.1433   17.8402 C.ar    1  UNL1        0.0114
     26 C           4.2527   -2.3423   18.7120 C.ar    1  UNL1        0.0577
     27 CL          5.0750   -3.4909   18.2073 Cl      1  UNL1       -0.0822
     28 C           3.6589   -2.3928   20.0886 C.ar    1  UNL1        0.0114
     29 C           2.8367   -1.2444   20.5933 C.ar    1  UNL1        0.0024
@<TRIPOS>BOND
     1    15    16    1
     2    16     9    1
     3     9    10   ar
     4    10    11   ar
     5    11    12   ar
     6    12    13   ar
     7    13    14   ar
     8    14     1    1
     9     1     2    1
    10     2     3    1
    11     3     4    1
    12     4     5   am
    13     5     6    2
    14     5    17    1
    15    17    18   ar
    16    18    19   ar
    17    19    23    1
    18    23    24   ar
    19    24    25   ar
    20    25    26   ar
    21    26    27    1
    22    26    28   ar
    23    28    29   ar
    24    19    20   ar
    25    20    21   ar
    26    21    22    1
    27     4     7    1
    28     7     8    1
    29    14     9   ar
    30     8     1    1
    31    21    17   ar
    32    29    23   ar
@<TRIPOS>MOLECULE
*****
 29 32 0 0 0
SMALL
GASTEIGER

@<TRIPOS>ATOM
      1 N           7.8154   -4.4474   27.2201 N.pl3   1  UNL1       -0.3017
      2 C           6.3547   -4.1251   27.3331 C.3     1  UNL1        0.1124
      3 C           5.8901   -3.0805   28.3040 C.3     1  UNL1        0.1152
      4 N           6.8861   -2.3580   29.1620 N.am    1  UNL1       -0.2713
      5 C           6.4214   -1.3133   30.1329 C.2     1  UNL1        0.2666
      6 O           7.4173   -0.5909   30.9909 O.2     1  UNL1       -0.2683
      7 C           8.3467   -2.6802   29.0490 C.3     1  UNL1        0.1152
      8 C           8.8113   -3.7249   28.0781 C.3     1  UNL1        0.1124
      9 C           8.4010   -6.9217   26.6866 C.ar    1  UNL1        0.1519
     10 C           8.8657   -7.9663   25.7156 C.ar    1  UNL1        0.0382
     11 C           9.2093   -7.5813   24.3072 C.ar    1  UNL1        0.0032
     12 C           9.0882   -6.1517   23.8697 C.ar    1  UNL1        0.0015
     13 C           8.6236   -5.1071   24.8407 C.ar    1  UNL1        0.0176
     14 C           8.2800   -5.4921   26.2491 C.ar    1  UNL1        0.0824
     15 C           9.1250   -7.3275   29.1485 C.3     1  UNL1        0.2525
     16 O           8.0574   -7.3067   28.0950 O.3     1  UNL1       -0.4702
     17 C           4.9608   -0.9911   30.2459 C.ar    1  UNL1        0.1328
     18 C           4.1463   -0.2275   29.2442 C.ar    1  UNL1        0.0442
     19 C           2.7403   -0.1404   29.7596 C.ar    1  UNL1        0.1025
     20 N           2.6858   -0.8501   31.0799 N.ar    1  UNL1       -0.1691
     21 N           4.0582   -1.3759   31.3805 N.ar    1  UNL1       -0.2444
     22 C           4.4577   -2.1505   32.6013 C.3     1  UNL1        0.1539
     23 C           1.5907    0.5375   29.0749 C.ar    1  UNL1        0.0194
     24 C           1.7440    1.9385   28.5614 C.ar    1  UNL1        0.0024
     25 C           0.5945    2.6164   27.8767 C.ar    1  UNL1        0.0114
     26 C          -0.7085    1.8933   27.7055 C.ar    1  UNL1        0.0577
     27 CL         -1.8582    2.5712   27.0207 Cl      1  UNL1       -0.0822
     28 C          -0.8619    0.4923   28.2189 C.ar    1  UNL1        0.0114
     29 C           0.2877   -0.1856   28.9036 C.ar    1  UNL1        0.0024
@<TRIPOS>BOND
     1    15    16    1
     2    16     9    1
     3     9    10   ar
     4    10    11   ar
     5    11    12   ar
     6    12    13   ar
     7    13    14   ar
     8    14     1    1
     9     1     2    1
    10     2     3    1
    11     3     4    1
    12     4     5   am
    13     5     6    2
    14     5    17    1
    15    17    18   ar
    16    18    19   ar
    17    19    23    1
    18    23    24   ar
    19    24    25   ar
    20    25    26   ar
    21    26    27    1
    22    26    28   ar
    23    28    29   ar
    24    19    20   ar
    25    20    21   ar
    26    21    22    1
    27     4     7    1
    28     7     8    1
    29    14     9   ar
    30     8     1    1
    31    21    17   ar
    32    29    23   ar
