@<TRIPOS>MOLECULE
*****
 31 34 0 0 0
SMALL
GASTEIGER

@<TRIPOS>ATOM
      1 C          -4.2333    5.3407   23.4382 C.3     1  UNL1        0.0061
      2 C          -4.8791    4.8373   22.1814 C.3     1  UNL1        0.0373
      3 C          -5.9489    4.4579   21.2008 C.3     1  UNL1        0.0075
      4 C          -5.5736    3.8962   19.8615 C.3     1  UNL1        0.0219
      5 C          -4.1285    3.7139   19.5028 C.3     1  UNL1        0.0950
      6 N          -3.0588    4.0933   20.4834 N.am    1  UNL1       -0.2639
      7 C          -1.6137    3.9110   20.1248 C.2     1  UNL1        0.3042
      8 O          -0.5440    4.2904   21.1055 O.2     1  UNL1       -0.2526
      9 N          -1.2385    3.3493   18.7855 N.am    1  UNL1       -0.2847
     10 C          -3.4340    4.6550   21.8227 C.3     1  UNL1        0.0989
     11 H          -1.9406    3.1003   18.1419 H       1  UNL1        0.1513
     12 C          -6.0999    5.1944   22.9765 C.ar    1  UNL1       -0.0212
     13 C          -6.1935    6.5333   23.6462 C.ar    1  UNL1       -0.0042
     14 C          -7.4143    6.8904   24.4413 C.ar    1  UNL1       -0.0003
     15 C          -8.5413    5.9086   24.5668 C.ar    1  UNL1       -0.0000
     16 C          -8.4477    4.5697   23.8971 C.ar    1  UNL1       -0.0003
     17 C          -7.2270    4.2126   23.1020 C.ar    1  UNL1       -0.0042
     18 C           0.2066    3.1671   18.4269 C.3     1  UNL1        0.1177
     19 C           0.9516    1.9569   18.9073 C.ar    1  UNL1       -0.0025
     20 C           2.3880    1.7590   18.5230 C.ar    1  UNL1       -0.0026
     21 C           3.1329    0.5489   19.0033 C.ar    1  UNL1       -0.0003
     22 C           2.4416   -0.4633   19.8678 C.ar    1  UNL1        0.0000
     23 C           1.0051   -0.2653   20.2521 C.ar    1  UNL1       -0.0003
     24 C           0.2602    0.9448   19.7718 C.ar    1  UNL1       -0.0026
     25 C           3.1865   -1.6734   20.3482 C.ar    1  UNL1        0.0008
     26 C           3.6568   -1.7488   21.7706 C.ar    1  UNL1        0.0001
     27 C           4.4018   -2.9589   22.2509 C.ar    1  UNL1        0.0009
     28 C           4.6763   -4.0935   21.3090 C.ar    1  UNL1        0.0114
     29 C           4.2060   -4.0181   19.8866 C.ar    1  UNL1        0.0577
     30 CL          4.4806   -5.1527   18.9447 Cl      1  UNL1       -0.0822
     31 C           3.4611   -2.8080   19.4063 C.ar    1  UNL1        0.0114
@<TRIPOS>BOND
     1     1     2    1
     2     2    12    1
     3    12    13   ar
     4    13    14   ar
     5    14    15   ar
     6    15    16   ar
     7    16    17   ar
     8     2     3    1
     9     3     4    1
    10     4     5    1
    11     5     6    1
    12     6     7   am
    13     7     8    2
    14     7     9   am
    15     9    18    1
    16    18    19    1
    17    19    20   ar
    18    20    21   ar
    19    21    22   ar
    20    22    25    1
    21    25    26   ar
    22    26    27   ar
    23    27    28   ar
    24    28    29   ar
    25    29    30    1
    26    29    31   ar
    27    22    23   ar
    28    23    24   ar
    29     6    10    1
    30    10     2    1
    31    17    12   ar
    32    24    19   ar
    33    31    25   ar
    34     9    11    1
@<TRIPOS>MOLECULE
*****
 31 34 0 0 0
SMALL
GASTEIGER

@<TRIPOS>ATOM
      1 C          -3.8534    6.1799   24.9295 C.3     1  UNL1        0.0061
      2 C          -4.7191    5.2493   24.1328 C.3     1  UNL1        0.0373
      3 C          -5.9282    4.4773   23.6944 C.3     1  UNL1        0.0075
      4 C          -5.8479    3.5719   22.5012 C.3     1  UNL1        0.0219
      5 C          -4.5584    3.4385   21.7464 C.3     1  UNL1        0.0950
      6 N          -3.3494    4.2104   22.1848 N.am    1  UNL1       -0.2639
      7 C          -2.0600    4.0770   21.4300 C.2     1  UNL1        0.3042
      8 O          -0.8510    4.8490   21.8685 O.2     1  UNL1       -0.2526
      9 N          -1.9797    3.1716   20.2368 N.am    1  UNL1       -0.2847
     10 C          -3.4297    5.1159   23.3780 C.3     1  UNL1        0.0989
     11 H          -2.7732    2.6649   19.9490 H       1  UNL1        0.1513
     12 C          -5.7079    5.7059   25.1643 C.ar    1  UNL1       -0.0212
     13 C          -6.9863    6.3645   24.7380 C.ar    1  UNL1       -0.0042
     14 C          -7.9750    6.8211   25.7695 C.ar    1  UNL1       -0.0003
     15 C          -7.6852    6.6192   27.2273 C.ar    1  UNL1       -0.0000
     16 C          -6.4068    5.9606   27.6536 C.ar    1  UNL1       -0.0003
     17 C          -5.4181    5.5040   26.6221 C.ar    1  UNL1       -0.0042
     18 C          -0.6903    3.0382   19.4821 C.3     1  UNL1        0.1177
     19 C           0.2291    1.8873   19.7658 C.ar    1  UNL1       -0.0025
     20 C           1.0016    1.2514   18.6482 C.ar    1  UNL1       -0.0026
     21 C           1.9209    0.1006   18.9319 C.ar    1  UNL1       -0.0003
     22 C           2.0678   -0.4143   20.3330 C.ar    1  UNL1        0.0000
     23 C           1.2953    0.2217   21.4506 C.ar    1  UNL1       -0.0003
     24 C           0.3760    1.3725   21.1669 C.ar    1  UNL1       -0.0026
     25 C           2.9872   -1.5650   20.6167 C.ar    1  UNL1        0.0008
     26 C           3.6140   -1.7076   21.9720 C.ar    1  UNL1        0.0001
     27 C           4.5334   -2.8584   22.2557 C.ar    1  UNL1        0.0009
     28 C           4.8259   -3.8665   21.1843 C.ar    1  UNL1        0.0114
     29 C           4.1990   -3.7240   19.8290 C.ar    1  UNL1        0.0577
     30 CL          4.4915   -4.7322   18.7576 Cl      1  UNL1       -0.0822
     31 C           3.2797   -2.5732   19.5453 C.ar    1  UNL1        0.0114
@<TRIPOS>BOND
     1     1     2    1
     2     2    12    1
     3    12    13   ar
     4    13    14   ar
     5    14    15   ar
     6    15    16   ar
     7    16    17   ar
     8     2     3    1
     9     3     4    1
    10     4     5    1
    11     5     6    1
    12     6     7   am
    13     7     8    2
    14     7     9   am
    15     9    18    1
    16    18    19    1
    17    19    20   ar
    18    20    21   ar
    19    21    22   ar
    20    22    25    1
    21    25    26   ar
    22    26    27   ar
    23    27    28   ar
    24    28    29   ar
    25    29    30    1
    26    29    31   ar
    27    22    23   ar
    28    23    24   ar
    29     6    10    1
    30    10     2    1
    31    17    12   ar
    32    24    19   ar
    33    31    25   ar
    34     9    11    1
@<TRIPOS>MOLECULE
*****
 31 34 0 0 0
SMALL
GASTEIGER

@<TRIPOS>ATOM
      1 C          -6.0903    4.2454   23.8018 C.3     1  UNL1        0.0061
      2 C          -4.9195    5.1544   24.0323 C.3     1  UNL1        0.0373
      3 C          -4.0738    6.2396   24.6297 C.3     1  UNL1        0.0075
      4 C          -2.6988    6.5016   24.0905 C.3     1  UNL1        0.0219
      5 C          -2.1696    5.6783   22.9538 C.3     1  UNL1        0.0950
      6 N          -3.0153    4.5930   22.3563 N.am    1  UNL1       -0.2639
      7 C          -2.4861    3.7697   21.2196 C.2     1  UNL1        0.3042
      8 O          -3.3319    2.6845   20.6222 O.2     1  UNL1       -0.2526
      9 N          -1.1111    4.0317   20.6804 N.am    1  UNL1       -0.2847
     10 C          -4.3903    4.3311   22.8956 C.3     1  UNL1        0.0989
     11 H          -0.5560    4.7439   21.0725 H       1  UNL1        0.1513
     12 C          -5.8554    5.6620   25.0890 C.ar    1  UNL1       -0.0212
     13 C          -7.2125    6.1735   24.7060 C.ar    1  UNL1       -0.0042
     14 C          -8.1483    6.6811   25.7627 C.ar    1  UNL1       -0.0003
     15 C          -7.7270    6.6772   27.2023 C.ar    1  UNL1       -0.0000
     16 C          -6.3699    6.1657   27.5853 C.ar    1  UNL1       -0.0003
     17 C          -5.4341    5.6581   26.5286 C.ar    1  UNL1       -0.0042
     18 C          -0.5819    3.2083   19.5437 C.3     1  UNL1        0.1177
     19 C           0.3012    2.0277   19.8203 C.ar    1  UNL1       -0.0025
     20 C           0.4934    1.5485   21.2287 C.ar    1  UNL1       -0.0026
     21 C           1.3765    0.3680   21.5052 C.ar    1  UNL1       -0.0003
     22 C           2.0673   -0.3334   20.3736 C.ar    1  UNL1        0.0000
     23 C           1.8751    0.1459   18.9652 C.ar    1  UNL1       -0.0003
     24 C           0.9920    1.3264   18.6886 C.ar    1  UNL1       -0.0026
     25 C           2.9504   -1.5139   20.6501 C.ar    1  UNL1        0.0008
     26 C           3.5808   -1.6787   22.0012 C.ar    1  UNL1        0.0001
     27 C           4.4639   -2.8592   22.2777 C.ar    1  UNL1        0.0009
     28 C           4.7166   -3.8749   21.2033 C.ar    1  UNL1        0.0114
     29 C           4.0862   -3.7101   19.8521 C.ar    1  UNL1        0.0577
     30 CL          4.3390   -4.7257   18.7777 Cl      1  UNL1       -0.0822
     31 C           3.2032   -2.5295   19.5756 C.ar    1  UNL1        0.0114
@<TRIPOS>BOND
     1     1     2    1
     2     2    12    1
     3    12    13   ar
     4    13    14   ar
     5    14    15   ar
     6    15    16   ar
     7    16    17   ar
     8     2     3    1
     9     3     4    1
    10     4     5    1
    11     5     6    1
    12     6     7   am
    13     7     8    2
    14     7     9   am
    15     9    18    1
    16    18    19    1
    17    19    20   ar
    18    20    21   ar
    19    21    22   ar
    20    22    25    1
    21    25    26   ar
    22    26    27   ar
    23    27    28   ar
    24    28    29   ar
    25    29    30    1
    26    29    31   ar
    27    22    23   ar
    28    23    24   ar
    29     6    10    1
    30    10     2    1
    31    17    12   ar
    32    24    19   ar
    33    31    25   ar
    34     9    11    1
@<TRIPOS>MOLECULE
*****
 31 34 0 0 0
SMALL
GASTEIGER

@<TRIPOS>ATOM
      1 C          -6.3315    5.2282   21.1281 C.3     1  UNL1        0.0061
      2 C          -5.4320    4.7922   22.2466 C.3     1  UNL1        0.0373
      3 C          -4.9420    4.5256   23.6389 C.3     1  UNL1        0.0075
      4 C          -3.5855    3.9227   23.8541 C.3     1  UNL1        0.0219
      5 C          -2.7190    3.5864   22.6768 C.3     1  UNL1        0.0950
      6 N          -3.2089    3.8529   21.2844 N.am    1  UNL1       -0.2639
      7 C          -2.3424    3.5166   20.1071 C.2     1  UNL1        0.3042
      8 O          -2.8325    3.7832   18.7147 O.2     1  UNL1       -0.2526
      9 N          -0.9859    2.9137   20.3222 N.am    1  UNL1       -0.2847
     10 C          -4.5655    4.4559   21.0692 C.3     1  UNL1        0.0989
     11 H          -0.6642    2.7387   21.2361 H       1  UNL1        0.1513
     12 C          -6.6110    5.2800   23.0354 C.ar    1  UNL1       -0.0212
     13 C          -7.6890    4.3203   23.4438 C.ar    1  UNL1       -0.0042
     14 C          -8.8679    4.8081   24.2326 C.ar    1  UNL1       -0.0003
     15 C          -8.9687    6.2556   24.6130 C.ar    1  UNL1       -0.0000
     16 C          -7.8907    7.2152   24.2046 C.ar    1  UNL1       -0.0003
     17 C          -6.7118    6.7274   23.4158 C.ar    1  UNL1       -0.0042
     18 C          -0.1194    2.5774   19.1449 C.3     1  UNL1        0.1177
     19 C           0.8271    1.4159   19.2178 C.ar    1  UNL1       -0.0025
     20 C           0.5363    0.2680   20.1387 C.ar    1  UNL1       -0.0026
     21 C           1.4828   -0.8933   20.2115 C.ar    1  UNL1       -0.0003
     22 C           2.7201   -0.9069   19.3636 C.ar    1  UNL1        0.0000
     23 C           3.0108    0.2410   18.4428 C.ar    1  UNL1       -0.0003
     24 C           2.0643    1.4023   18.3699 C.ar    1  UNL1       -0.0026
     25 C           3.6666   -2.0683   19.4365 C.ar    1  UNL1        0.0008
     26 C           3.1611   -3.4628   19.2130 C.ar    1  UNL1        0.0001
     27 C           4.1076   -4.6242   19.2858 C.ar    1  UNL1        0.0009
     28 C           5.5595   -4.3911   19.5821 C.ar    1  UNL1        0.0114
     29 C           6.0649   -2.9966   19.8056 C.ar    1  UNL1        0.0577
     30 CL          7.5167   -2.7636   20.1019 Cl      1  UNL1       -0.0822
     31 C           5.1184   -1.8353   19.7328 C.ar    1  UNL1        0.0114
@<TRIPOS>BOND
     1     1     2    1
     2     2    12    1
     3    12    13   ar
     4    13    14   ar
     5    14    15   ar
     6    15    16   ar
     7    16    17   ar
     8     2     3    1
     9     3     4    1
    10     4     5    1
    11     5     6    1
    12     6     7   am
    13     7     8    2
    14     7     9   am
    15     9    18    1
    16    18    19    1
    17    19    20   ar
    18    20    21   ar
    19    21    22   ar
    20    22    25    1
    21    25    26   ar
    22    26    27   ar
    23    27    28   ar
    24    28    29   ar
    25    29    30    1
    26    29    31   ar
    27    22    23   ar
    28    23    24   ar
    29     6    10    1
    30    10     2    1
    31    17    12   ar
    32    24    19   ar
    33    31    25   ar
    34     9    11    1
@<TRIPOS>MOLECULE
*****
 31 34 0 0 0
SMALL
GASTEIGER

@<TRIPOS>ATOM
      1 C           8.9369   -3.9069   27.4593 C.3     1  UNL1        0.0061
      2 C           8.1817   -4.7124   28.4746 C.3     1  UNL1        0.0373
      3 C           7.4421   -5.8594   29.0969 C.3     1  UNL1        0.0075
      4 C           6.9200   -5.7433   30.4983 C.3     1  UNL1        0.0219
      5 C           7.1375   -4.4800   31.2774 C.3     1  UNL1        0.0950
      6 N           7.8771   -3.3330   30.6551 N.am    1  UNL1       -0.2639
      7 C           8.0946   -2.0698   31.4342 C.2     1  UNL1        0.3042
      8 O           8.8342   -0.9228   30.8119 O.2     1  UNL1       -0.2526
      9 N           7.5725   -1.9536   32.8356 N.am    1  UNL1       -0.2847
     10 C           8.3992   -3.4491   29.2537 C.3     1  UNL1        0.0989
     11 H           7.0870   -2.7065   33.2441 H       1  UNL1        0.1513
     12 C           8.2265   -5.6959   27.3428 C.ar    1  UNL1       -0.0212
     13 C           8.8808   -7.0318   27.5356 C.ar    1  UNL1       -0.0042
     14 C           8.9255   -8.0152   26.4038 C.ar    1  UNL1       -0.0003
     15 C           8.3160   -7.6626   25.0793 C.ar    1  UNL1       -0.0000
     16 C           7.6618   -6.3267   24.8866 C.ar    1  UNL1       -0.0003
     17 C           7.6170   -5.3433   26.0183 C.ar    1  UNL1       -0.0042
     18 C           7.7900   -0.6904   33.6146 C.3     1  UNL1        0.1177
     19 C           6.6956   -0.1489   34.4861 C.ar    1  UNL1       -0.0025
     20 C           5.5579    0.6137   33.8744 C.ar    1  UNL1       -0.0026
     21 C           4.4637    1.1552   34.7458 C.ar    1  UNL1       -0.0003
     22 C           4.5071    0.9342   36.2288 C.ar    1  UNL1        0.0000
     23 C           5.6449    0.1715   36.8404 C.ar    1  UNL1       -0.0003
     24 C           6.7391   -0.3699   35.9689 C.ar    1  UNL1       -0.0026
     25 C           3.4128    1.4757   37.1002 C.ar    1  UNL1        0.0008
     26 C           2.9784    2.9044   36.9579 C.ar    1  UNL1        0.0001
     27 C           1.8842    3.4458   37.8293 C.ar    1  UNL1        0.0009
     28 C           1.2244    2.5588   38.8430 C.ar    1  UNL1        0.0114
     29 C           1.6588    1.1301   38.9854 C.ar    1  UNL1        0.0577
     30 CL          0.9989    0.2431   39.9991 Cl      1  UNL1       -0.0822
     31 C           2.7530    0.5886   38.1140 C.ar    1  UNL1        0.0114
@<TRIPOS>BOND
     1     1     2    1
     2     2    12    1
     3    12    13   ar
     4    13    14   ar
     5    14    15   ar
     6    15    16   ar
     7    16    17   ar
     8     2     3    1
     9     3     4    1
    10     4     5    1
    11     5     6    1
    12     6     7   am
    13     7     8    2
    14     7     9   am
    15     9    18    1
    16    18    19    1
    17    19    20   ar
    18    20    21   ar
    19    21    22   ar
    20    22    25    1
    21    25    26   ar
    22    26    27   ar
    23    27    28   ar
    24    28    29   ar
    25    29    30    1
    26    29    31   ar
    27    22    23   ar
    28    23    24   ar
    29     6    10    1
    30    10     2    1
    31    17    12   ar
    32    24    19   ar
    33    31    25   ar
    34     9    11    1
@<TRIPOS>MOLECULE
*****
 31 34 0 0 0
SMALL
GASTEIGER

@<TRIPOS>ATOM
      1 C           2.0005    3.9982   29.6649 C.3     1  UNL1        0.0061
      2 C           1.1228    2.7822   29.6308 C.3     1  UNL1        0.0373
      3 C           0.3134    1.6142   30.1109 C.3     1  UNL1        0.0075
      4 C          -0.3877    0.7304   29.1223 C.3     1  UNL1        0.0219
      5 C          -0.2793    1.0147   27.6534 C.3     1  UNL1        0.0950
      6 N           0.5301    2.1827   27.1733 N.am    1  UNL1       -0.2639
      7 C           0.6385    2.4670   25.7044 C.2     1  UNL1        0.3042
      8 O           1.4479    3.6351   25.2244 O.2     1  UNL1       -0.2526
      9 N          -0.0626    1.5833   24.7158 N.am    1  UNL1       -0.2847
     10 C           1.2312    3.0665   28.1619 C.3     1  UNL1        0.0989
     11 H          -0.5939    0.8166   25.0309 H       1  UNL1        0.1513
     12 C           1.3193    2.9202   31.1115 C.ar    1  UNL1       -0.0212
     13 C           2.1038    1.8864   31.8636 C.ar    1  UNL1       -0.0042
     14 C           2.3002    2.0245   33.3442 C.ar    1  UNL1       -0.0003
     15 C           1.7122    3.1964   34.0728 C.ar    1  UNL1       -0.0000
     16 C           0.9277    4.2302   33.3207 C.ar    1  UNL1       -0.0003
     17 C           0.7312    4.0922   31.8401 C.ar    1  UNL1       -0.0042
     18 C           0.0458    1.8676   23.2470 C.3     1  UNL1        0.1177
     19 C           0.9613    1.0450   22.3894 C.ar    1  UNL1       -0.0025
     20 C           2.3381    0.7021   22.8762 C.ar    1  UNL1       -0.0026
     21 C           3.2534   -0.1205   22.0186 C.ar    1  UNL1       -0.0003
     22 C           2.7921   -0.6001   20.6744 C.ar    1  UNL1        0.0000
     23 C           1.4153   -0.2572   20.1877 C.ar    1  UNL1       -0.0003
     24 C           0.4999    0.5654   21.0452 C.ar    1  UNL1       -0.0026
     25 C           3.7075   -1.4227   19.8168 C.ar    1  UNL1        0.0008
     26 C           4.7604   -0.7517   18.9853 C.ar    1  UNL1        0.0001
     27 C           5.6757   -1.5743   18.1277 C.ar    1  UNL1        0.0009
     28 C           5.5383   -3.0677   18.1016 C.ar    1  UNL1        0.0114
     29 C           4.4855   -3.7387   18.9331 C.ar    1  UNL1        0.0577
     30 CL          4.3481   -5.2321   18.9069 Cl      1  UNL1       -0.0822
     31 C           3.5701   -2.9161   19.7906 C.ar    1  UNL1        0.0114
@<TRIPOS>BOND
     1     1     2    1
     2     2    12    1
     3    12    13   ar
     4    13    14   ar
     5    14    15   ar
     6    15    16   ar
     7    16    17   ar
     8     2     3    1
     9     3     4    1
    10     4     5    1
    11     5     6    1
    12     6     7   am
    13     7     8    2
    14     7     9   am
    15     9    18    1
    16    18    19    1
    17    19    20   ar
    18    20    21   ar
    19    21    22   ar
    20    22    25    1
    21    25    26   ar
    22    26    27   ar
    23    27    28   ar
    24    28    29   ar
    25    29    30    1
    26    29    31   ar
    27    22    23   ar
    28    23    24   ar
    29     6    10    1
    30    10     2    1
    31    17    12   ar
    32    24    19   ar
    33    31    25   ar
    34     9    11    1
@<TRIPOS>MOLECULE
*****
 31 34 0 0 0
SMALL
GASTEIGER

@<TRIPOS>ATOM
      1 C          -4.7891    4.5985   26.8936 C.3     1  UNL1        0.0061
      2 C          -4.5891    4.6715   25.4088 C.3     1  UNL1        0.0373
      3 C          -4.8352    5.0099   23.9683 C.3     1  UNL1        0.0075
      4 C          -3.8664    4.5587   22.9158 C.3     1  UNL1        0.0219
      5 C          -2.6514    3.7691   23.3038 C.3     1  UNL1        0.0950
      6 N          -2.4053    3.4307   24.7442 N.am    1  UNL1       -0.2639
      7 C          -1.1904    2.6411   25.1322 C.2     1  UNL1        0.3042
      8 O          -0.9444    2.3027   26.5727 O.2     1  UNL1       -0.2526
      9 N          -0.2216    2.1899   24.0797 N.am    1  UNL1       -0.2847
     10 C          -3.3742    3.8819   25.7967 C.3     1  UNL1        0.0989
     11 H          -0.3830    2.4120   23.1342 H       1  UNL1        0.1513
     12 C          -5.8735    5.4358   25.5365 C.ar    1  UNL1       -0.0212
     13 C          -7.0113    5.1520   24.6011 C.ar    1  UNL1       -0.0042
     14 C          -8.2956    5.9163   24.7289 C.ar    1  UNL1       -0.0003
     15 C          -8.4422    6.9643   25.7921 C.ar    1  UNL1       -0.0000
     16 C          -7.3044    7.2480   26.7274 C.ar    1  UNL1       -0.0003
     17 C          -6.0201    6.4837   26.5996 C.ar    1  UNL1       -0.0042
     18 C           0.9933    1.4003   24.4677 C.3     1  UNL1        0.1177
     19 C           1.7700    0.6566   23.4218 C.ar    1  UNL1       -0.0025
     20 C           1.5194    0.9271   21.9678 C.ar    1  UNL1       -0.0026
     21 C           2.2961    0.1834   20.9220 C.ar    1  UNL1       -0.0003
     22 C           3.3232   -0.8307   21.3301 C.ar    1  UNL1        0.0000
     23 C           3.5737   -1.1011   22.7841 C.ar    1  UNL1       -0.0003
     24 C           2.7971   -0.3574   23.8299 C.ar    1  UNL1       -0.0026
     25 C           4.0999   -1.5743   20.2843 C.ar    1  UNL1        0.0008
     26 C           5.1034   -0.8486   19.4379 C.ar    1  UNL1        0.0001
     27 C           5.8801   -1.5923   18.3921 C.ar    1  UNL1        0.0009
     28 C           5.6533   -3.0616   18.1926 C.ar    1  UNL1        0.0114
     29 C           4.6498   -3.7873   19.0390 C.ar    1  UNL1        0.0577
     30 CL          4.4230   -5.2565   18.8396 Cl      1  UNL1       -0.0822
     31 C           3.8731   -3.0436   20.0848 C.ar    1  UNL1        0.0114
@<TRIPOS>BOND
     1     1     2    1
     2     2    12    1
     3    12    13   ar
     4    13    14   ar
     5    14    15   ar
     6    15    16   ar
     7    16    17   ar
     8     2     3    1
     9     3     4    1
    10     4     5    1
    11     5     6    1
    12     6     7   am
    13     7     8    2
    14     7     9   am
    15     9    18    1
    16    18    19    1
    17    19    20   ar
    18    20    21   ar
    19    21    22   ar
    20    22    25    1
    21    25    26   ar
    22    26    27   ar
    23    27    28   ar
    24    28    29   ar
    25    29    30    1
    26    29    31   ar
    27    22    23   ar
    28    23    24   ar
    29     6    10    1
    30    10     2    1
    31    17    12   ar
    32    24    19   ar
    33    31    25   ar
    34     9    11    1
@<TRIPOS>MOLECULE
*****
 31 34 0 0 0
SMALL
GASTEIGER

@<TRIPOS>ATOM
      1 C           2.5317   -0.6282   20.4955 C.3     1  UNL1        0.0061
      2 C           3.3406   -1.1370   21.6518 C.3     1  UNL1        0.0373
      3 C           4.3920   -1.8866   22.4149 C.3     1  UNL1        0.0075
      4 C           4.4638   -1.7662   23.9084 C.3     1  UNL1        0.0219
      5 C           3.4841   -0.8961   24.6386 C.3     1  UNL1        0.0950
      6 N           2.4326   -0.1466   23.8754 N.am    1  UNL1       -0.2639
      7 C           1.4528    0.7234   24.6057 C.2     1  UNL1        0.3042
      8 O           0.4014    1.4730   23.8424 O.2     1  UNL1       -0.2526
      9 N           1.5246    0.8438   26.0991 N.am    1  UNL1       -0.2847
     10 C           2.3608   -0.2670   22.3820 C.3     1  UNL1        0.0989
     11 H           2.2148    0.3519   26.6000 H       1  UNL1        0.1513
     12 C           4.0394   -1.8303   20.5199 C.ar    1  UNL1       -0.0212
     13 C           5.2375   -1.1965   19.8774 C.ar    1  UNL1       -0.0042
     14 C           5.9362   -1.8898   18.7456 C.ar    1  UNL1       -0.0003
     15 C           5.4370   -3.2169   18.2563 C.ar    1  UNL1       -0.0000
     16 C           4.2389   -3.8508   18.8988 C.ar    1  UNL1       -0.0003
     17 C           3.5401   -3.1575   20.0306 C.ar    1  UNL1       -0.0042
     18 C           0.5449    1.7138   26.8292 C.3     1  UNL1        0.1177
     19 C           0.7799    2.0631   28.2691 C.ar    1  UNL1       -0.0025
     20 C           0.7182    3.4946   28.7132 C.ar    1  UNL1       -0.0026
     21 C           0.9532    3.8438   30.1529 C.ar    1  UNL1       -0.0003
     22 C           1.2498    2.7617   31.1485 C.ar    1  UNL1        0.0000
     23 C           1.3115    1.3303   30.7042 C.ar    1  UNL1       -0.0003
     24 C           1.0765    0.9811   29.2645 C.ar    1  UNL1       -0.0026
     25 C           1.4848    3.1109   32.5882 C.ar    1  UNL1        0.0008
     26 C           2.2488    2.1708   33.4728 C.ar    1  UNL1        0.0001
     27 C           2.4837    2.5200   34.9126 C.ar    1  UNL1        0.0009
     28 C           1.9549    3.8092   35.4677 C.ar    1  UNL1        0.0114
     29 C           1.1910    4.7494   34.5830 C.ar    1  UNL1        0.0577
     30 CL          0.6622    6.0386   35.1381 Cl      1  UNL1       -0.0822
     31 C           0.9560    4.4002   33.1433 C.ar    1  UNL1        0.0114
@<TRIPOS>BOND
     1     1     2    1
     2     2    12    1
     3    12    13   ar
     4    13    14   ar
     5    14    15   ar
     6    15    16   ar
     7    16    17   ar
     8     2     3    1
     9     3     4    1
    10     4     5    1
    11     5     6    1
    12     6     7   am
    13     7     8    2
    14     7     9   am
    15     9    18    1
    16    18    19    1
    17    19    20   ar
    18    20    21   ar
    19    21    22   ar
    20    22    25    1
    21    25    26   ar
    22    26    27   ar
    23    27    28   ar
    24    28    29   ar
    25    29    30    1
    26    29    31   ar
    27    22    23   ar
    28    23    24   ar
    29     6    10    1
    30    10     2    1
    31    17    12   ar
    32    24    19   ar
    33    31    25   ar
    34     9    11    1
@<TRIPOS>MOLECULE
*****
 31 34 0 0 0
SMALL
GASTEIGER

@<TRIPOS>ATOM
      1 C           6.9120   -0.6376   31.1123 C.3     1  UNL1        0.0061
      2 C           6.8347   -2.1135   31.3687 C.3     1  UNL1        0.0373
      3 C           6.5786   -3.4090   32.0800 C.3     1  UNL1        0.0075
      4 C           6.8639   -4.7113   31.3924 C.3     1  UNL1        0.0219
      5 C           7.4053   -4.7180   29.9935 C.3     1  UNL1        0.0950
      6 N           7.6613   -3.4224   29.2822 N.am    1  UNL1       -0.2639
      7 C           8.2026   -3.4291   27.8832 C.2     1  UNL1        0.3042
      8 O           8.4586   -2.1335   27.1720 O.2     1  UNL1       -0.2526
      9 N           8.4879   -4.7314   27.1957 N.am    1  UNL1       -0.2847
     10 C           7.3760   -2.1202   29.9697 C.3     1  UNL1        0.0989
     11 H           8.3199   -5.5817   27.6625 H       1  UNL1        0.1513
     12 C           6.3202   -1.5942   32.6786 C.ar    1  UNL1       -0.0212
     13 C           7.2224   -0.8023   33.5778 C.ar    1  UNL1       -0.0042
     14 C           6.7080   -0.2830   34.8877 C.ar    1  UNL1       -0.0003
     15 C           5.2912   -0.5557   35.2982 C.ar    1  UNL1       -0.0000
     16 C           4.3890   -1.3476   34.3989 C.ar    1  UNL1       -0.0003
     17 C           4.9035   -1.8669   33.0891 C.ar    1  UNL1       -0.0042
     18 C           9.0292   -4.7380   25.7968 C.3     1  UNL1        0.1177
     19 C           8.1294   -4.4076   24.6429 C.ar    1  UNL1       -0.0025
     20 C           8.6670   -4.4286   23.2427 C.ar    1  UNL1       -0.0026
     21 C           7.7672   -4.0982   22.0889 C.ar    1  UNL1       -0.0003
     22 C           6.3300   -3.7469   22.3352 C.ar    1  UNL1        0.0000
     23 C           5.7924   -3.7259   23.7355 C.ar    1  UNL1       -0.0003
     24 C           6.6922   -4.0563   24.8893 C.ar    1  UNL1       -0.0026
     25 C           5.4302   -3.4165   21.1815 C.ar    1  UNL1        0.0008
     26 C           5.6650   -4.0497   19.8421 C.ar    1  UNL1        0.0001
     27 C           4.7652   -3.7193   18.6883 C.ar    1  UNL1        0.0009
     28 C           3.6307   -2.7558   18.8738 C.ar    1  UNL1        0.0114
     29 C           3.3958   -2.1227   20.2132 C.ar    1  UNL1        0.0577
     30 CL          2.2613   -1.1592   20.3988 Cl      1  UNL1       -0.0822
     31 C           4.2956   -2.4530   21.3670 C.ar    1  UNL1        0.0114
@<TRIPOS>BOND
     1     1     2    1
     2     2    12    1
     3    12    13   ar
     4    13    14   ar
     5    14    15   ar
     6    15    16   ar
     7    16    17   ar
     8     2     3    1
     9     3     4    1
    10     4     5    1
    11     5     6    1
    12     6     7   am
    13     7     8    2
    14     7     9   am
    15     9    18    1
    16    18    19    1
    17    19    20   ar
    18    20    21   ar
    19    21    22   ar
    20    22    25    1
    21    25    26   ar
    22    26    27   ar
    23    27    28   ar
    24    28    29   ar
    25    29    30    1
    26    29    31   ar
    27    22    23   ar
    28    23    24   ar
    29     6    10    1
    30    10     2    1
    31    17    12   ar
    32    24    19   ar
    33    31    25   ar
    34     9    11    1
