@<TRIPOS>MOLECULE
*****
 34 37 0 0 0
SMALL
GASTEIGER

@<TRIPOS>ATOM
      1 C           8.3712   -3.9251   25.4849 C.3     1  UNL1        0.1166
      2 C           8.2791   -5.3338   25.9917 C.ar    1  UNL1       -0.0026
      3 C           8.0987   -6.4678   25.0265 C.ar    1  UNL1       -0.0025
      4 C           8.0066   -7.8766   25.5332 C.ar    1  UNL1        0.0042
      5 C           8.0949   -8.1514   27.0052 C.ar    1  UNL1        0.0533
      6 C           8.2753   -7.0175   27.9704 C.ar    1  UNL1        0.0042
      7 C           8.3674   -5.6086   27.4636 C.ar    1  UNL1       -0.0025
      8 C           8.0028   -9.5602   27.5119 C.2     1  UNL1        0.2461
      9 O           9.2512  -10.3144   27.8621 O.2     1  UNL1       -0.2701
     10 N           6.6623  -10.2148   27.6685 N.am    1  UNL1       -0.2969
     11 H           5.8429   -9.7198   27.4387 H       1  UNL1        0.1501
     12 C           6.5702  -11.6236   28.1753 C.3     1  UNL1        0.1166
     13 C           5.2573  -12.3483   28.1418 C.ar    1  UNL1       -0.0026
     14 C           4.2517  -12.1293   29.2330 C.ar    1  UNL1       -0.0026
     15 C           2.9388  -12.8541   29.1996 C.ar    1  UNL1       -0.0003
     16 C           2.6316  -13.7979   28.0750 C.ar    1  UNL1       -0.0000
     17 C           3.6372  -14.0170   26.9837 C.ar    1  UNL1       -0.0003
     18 C           4.9501  -13.2922   27.0171 C.ar    1  UNL1       -0.0026
     19 C           6.2348   -2.7963   24.5301 C.2     1  UNL1        0.2461
     20 O           5.7533   -2.5276   25.9251 O.2     1  UNL1       -0.2701
     21 N           7.5437   -3.4950   24.3100 N.am    1  UNL1       -0.2969
     22 H           7.8597   -3.6713   23.3944 H       1  UNL1        0.1501
     23 N           3.9249   -1.5700   17.1285 N.pl3   1  UNL1       -0.3375
     24 C           4.1172   -1.6775   18.6122 C.ar    1  UNL1        0.1567
     25 N           3.1609   -1.1956   19.6625 N.ar    1  UNL1       -0.2245
     26 C           3.7522   -1.5061   21.0056 C.ar    1  UNL1        0.0892
     27 C           3.2578   -1.2623   22.4006 C.ar    1  UNL1        0.0198
     28 C           4.0854   -1.6924   23.5754 C.ar    1  UNL1        0.0061
     29 C           5.4073   -2.3662   23.3552 C.ar    1  UNL1        0.0540
     30 C           5.9017   -2.6100   21.9602 C.ar    1  UNL1        0.0126
     31 C           5.0741   -2.1799   20.7854 C.ar    1  UNL1        0.0498
     32 S           5.2997   -2.2859   19.3062 S.2     1  UNL1       -0.0520
     33 H           3.1104   -1.1516   16.7668 H       1  UNL1        0.1442
     34 H           4.6132   -1.9177   16.5165 H       1  UNL1        0.1442
@<TRIPOS>BOND
     1    23    24    1
     2    24    25   ar
     3    25    26   ar
     4    26    27   ar
     5    27    28   ar
     6    28    29   ar
     7    29    19    1
     8    19    20    2
     9    19    21   am
    10    21     1    1
    11     1     2    1
    12     2     3   ar
    13     3     4   ar
    14     4     5   ar
    15     5     8    1
    16     8     9    2
    17     8    10   am
    18    10    12    1
    19    12    13    1
    20    13    14   ar
    21    14    15   ar
    22    15    16   ar
    23    16    17   ar
    24    17    18   ar
    25     5     6   ar
    26     6     7   ar
    27    29    30   ar
    28    30    31   ar
    29    31    32   ar
    30    32    24   ar
    31    31    26   ar
    32     7     2   ar
    33    18    13   ar
    34    23    33    1
    35    23    34    1
    36    21    22    1
    37    10    11    1
@<TRIPOS>MOLECULE
*****
 34 37 0 0 0
SMALL
GASTEIGER

@<TRIPOS>ATOM
      1 C           0.0249    2.1423   19.3899 C.3     1  UNL1        0.1166
      2 C           1.0231    1.0227   19.4010 C.ar    1  UNL1       -0.0026
      3 C           2.0956    0.9637   18.3540 C.ar    1  UNL1       -0.0025
      4 C           3.0938   -0.1559   18.3650 C.ar    1  UNL1        0.0042
      5 C           3.0194   -1.2166   19.4231 C.ar    1  UNL1        0.0533
      6 C           1.9468   -1.1577   20.4700 C.ar    1  UNL1        0.0042
      7 C           0.9486   -0.0380   20.4590 C.ar    1  UNL1       -0.0025
      8 C           4.0175   -2.3362   19.4341 C.2     1  UNL1        0.2461
      9 O           3.5738   -3.7394   19.1438 O.2     1  UNL1       -0.2701
     10 N           5.4593   -2.0527   19.7354 N.am    1  UNL1       -0.2969
     11 H           5.7505   -1.1317   19.9259 H       1  UNL1        0.1501
     12 C           6.4574   -3.1723   19.7464 C.3     1  UNL1        0.1166
     13 C           6.8822   -3.7856   21.0477 C.ar    1  UNL1       -0.0026
     14 C           6.0837   -3.5328   22.2921 C.ar    1  UNL1       -0.0026
     15 C           6.5084   -4.1461   23.5934 C.ar    1  UNL1       -0.0003
     16 C           7.7317   -5.0123   23.6503 C.ar    1  UNL1       -0.0000
     17 C           8.5303   -5.2652   22.4060 C.ar    1  UNL1       -0.0003
     18 C           8.1055   -4.6519   21.1047 C.ar    1  UNL1       -0.0026
     19 C          -2.0743    3.2685   20.4267 C.2     1  UNL1        0.2461
     20 O          -2.2759    4.0543   19.1650 O.2     1  UNL1       -0.2701
     21 N          -0.9239    2.3125   20.5392 N.am    1  UNL1       -0.2969
     22 H          -0.7916    1.7968   21.3673 H       1  UNL1        0.1501
     23 N          -4.8298    4.8351   27.6084 N.pl3   1  UNL1       -0.3375
     24 C          -4.5779    4.4750   26.1742 C.ar    1  UNL1        0.1567
     25 N          -5.6119    4.0342   25.1811 N.ar    1  UNL1       -0.2245
     26 C          -4.9208    3.7793   23.8744 C.ar    1  UNL1        0.0892
     27 C          -5.4332    3.3258   22.5396 C.ar    1  UNL1        0.0198
     28 C          -4.4844    3.1556   21.3904 C.ar    1  UNL1        0.0061
     29 C          -3.0231    3.4388   21.5760 C.ar    1  UNL1        0.0540
     30 C          -2.5107    3.8922   22.9108 C.ar    1  UNL1        0.0126
     31 C          -3.4595    4.0625   24.0600 C.ar    1  UNL1        0.0498
     32 S          -3.2476    4.4925   25.4814 S.2     1  UNL1       -0.0520
     33 H          -5.7431    4.7923   27.9735 H       1  UNL1        0.1442
     34 H          -4.0819    5.1143   28.1845 H       1  UNL1        0.1442
@<TRIPOS>BOND
     1    23    24    1
     2    24    25   ar
     3    25    26   ar
     4    26    27   ar
     5    27    28   ar
     6    28    29   ar
     7    29    19    1
     8    19    20    2
     9    19    21   am
    10    21     1    1
    11     1     2    1
    12     2     3   ar
    13     3     4   ar
    14     4     5   ar
    15     5     8    1
    16     8     9    2
    17     8    10   am
    18    10    12    1
    19    12    13    1
    20    13    14   ar
    21    14    15   ar
    22    15    16   ar
    23    16    17   ar
    24    17    18   ar
    25     5     6   ar
    26     6     7   ar
    27    29    30   ar
    28    30    31   ar
    29    31    32   ar
    30    32    24   ar
    31    31    26   ar
    32     7     2   ar
    33    18    13   ar
    34    23    33    1
    35    23    34    1
    36    21    22    1
    37    10    11    1
@<TRIPOS>MOLECULE
*****
 34 37 0 0 0
SMALL
GASTEIGER

@<TRIPOS>ATOM
      1 C           9.0584   -4.5636   22.6917 C.3     1  UNL1        0.1166
      2 C           7.8927   -4.0427   21.9045 C.ar    1  UNL1       -0.0026
      3 C           6.5232   -4.0235   22.5161 C.ar    1  UNL1       -0.0025
      4 C           5.3575   -3.5026   21.7289 C.ar    1  UNL1        0.0042
      5 C           5.5613   -3.0009   20.3300 C.ar    1  UNL1        0.0533
      6 C           6.9308   -3.0201   19.7184 C.ar    1  UNL1        0.0042
      7 C           8.0965   -3.5410   20.5057 C.ar    1  UNL1       -0.0025
      8 C           4.3956   -2.4800   19.5428 C.2     1  UNL1        0.2461
      9 O           3.2115   -3.3633   19.2827 O.2     1  UNL1       -0.2701
     10 N           4.4139   -1.0758   19.0157 N.am    1  UNL1       -0.2969
     11 H           5.1911   -0.4960   19.1864 H       1  UNL1        0.1501
     12 C           3.2482   -0.5549   18.2284 C.3     1  UNL1        0.1166
     13 C           2.1584    0.2100   18.9193 C.ar    1  UNL1       -0.0026
     14 C           1.9281    1.6541   18.5855 C.ar    1  UNL1       -0.0026
     15 C           0.8383    2.4190   19.2763 C.ar    1  UNL1       -0.0003
     16 C          -0.0212    1.7398   20.3009 C.ar    1  UNL1       -0.0000
     17 C           0.2091    0.2956   20.6348 C.ar    1  UNL1       -0.0003
     18 C           1.2989   -0.4693   19.9439 C.ar    1  UNL1       -0.0026
     19 C           8.4649   -6.1068   24.6958 C.2     1  UNL1        0.2461
     20 O           8.1319   -7.2163   23.7428 O.2     1  UNL1       -0.2701
     21 N           8.9281   -4.7805   24.1703 N.am    1  UNL1       -0.2969
     22 H           9.1467   -4.0523   24.7958 H       1  UNL1        0.1501
     23 N           6.4901   -5.0097   32.2137 N.pl3   1  UNL1       -0.3375
     24 C           6.9935   -5.4594   30.8742 C.ar    1  UNL1        0.1567
     25 N           7.7841   -6.7047   30.6020 N.ar    1  UNL1       -0.2245
     26 C           8.0740   -6.7576   29.1313 C.ar    1  UNL1        0.0892
     27 C           8.8157   -7.7533   28.2897 C.ar    1  UNL1        0.0198
     28 C           8.9460   -7.5364   26.8112 C.ar    1  UNL1        0.0061
     29 C           8.3345   -6.3237   26.1743 C.ar    1  UNL1        0.0540
     30 C           7.5928   -5.3280   27.0159 C.ar    1  UNL1        0.0126
     31 C           7.4626   -5.5450   28.4944 C.ar    1  UNL1        0.0498
     32 S           6.7948   -4.7426   29.5716 S.2     1  UNL1       -0.0520
     33 H           6.6724   -5.5514   33.0153 H       1  UNL1        0.1442
     34 H           5.9773   -4.1729   32.2913 H       1  UNL1        0.1442
@<TRIPOS>BOND
     1    23    24    1
     2    24    25   ar
     3    25    26   ar
     4    26    27   ar
     5    27    28   ar
     6    28    29   ar
     7    29    19    1
     8    19    20    2
     9    19    21   am
    10    21     1    1
    11     1     2    1
    12     2     3   ar
    13     3     4   ar
    14     4     5   ar
    15     5     8    1
    16     8     9    2
    17     8    10   am
    18    10    12    1
    19    12    13    1
    20    13    14   ar
    21    14    15   ar
    22    15    16   ar
    23    16    17   ar
    24    17    18   ar
    25     5     6   ar
    26     6     7   ar
    27    29    30   ar
    28    30    31   ar
    29    31    32   ar
    30    32    24   ar
    31    31    26   ar
    32     7     2   ar
    33    18    13   ar
    34    23    33    1
    35    23    34    1
    36    21    22    1
    37    10    11    1
@<TRIPOS>MOLECULE
*****
 34 37 0 0 0
SMALL
GASTEIGER

@<TRIPOS>ATOM
      1 C           8.4512   -4.9820   24.5179 C.3     1  UNL1        0.1166
      2 C           7.5086   -4.5127   23.4496 C.ar    1  UNL1       -0.0026
      3 C           7.9399   -4.5199   22.0129 C.ar    1  UNL1       -0.0025
      4 C           6.9974   -4.0506   20.9446 C.ar    1  UNL1        0.0042
      5 C           5.6235   -3.5742   21.3129 C.ar    1  UNL1        0.0533
      6 C           5.1923   -3.5670   22.7496 C.ar    1  UNL1        0.0042
      7 C           6.1349   -4.0363   23.8179 C.ar    1  UNL1       -0.0025
      8 C           4.6810   -3.1049   20.2446 C.2     1  UNL1        0.2461
      9 O           3.6346   -4.0350   19.7062 O.2     1  UNL1       -0.2701
     10 N           4.7848   -1.7055   19.7146 N.am    1  UNL1       -0.2969
     11 H           5.4716   -1.0950   20.0680 H       1  UNL1        0.1501
     12 C           3.8423   -1.2362   18.6463 C.3     1  UNL1        0.1166
     13 C           2.6398   -0.4181   19.0135 C.ar    1  UNL1       -0.0026
     14 C           2.3152    0.8263   18.2415 C.ar    1  UNL1       -0.0026
     15 C           1.1127    1.6444   18.6087 C.ar    1  UNL1       -0.0003
     16 C           0.2349    1.2181   19.7478 C.ar    1  UNL1       -0.0000
     17 C           0.5595   -0.0264   20.5198 C.ar    1  UNL1       -0.0003
     18 C           1.7620   -0.8445   20.1526 C.ar    1  UNL1       -0.0026
     19 C           7.4769   -5.5109   26.8677 C.2     1  UNL1        0.2461
     20 O           6.9641   -6.8256   26.3591 O.2     1  UNL1       -0.2701
     21 N           8.2204   -4.5891   25.9471 N.am    1  UNL1       -0.2969
     22 H           8.5570   -3.7263   26.2809 H       1  UNL1        0.1501
     23 N           5.6781   -1.2166   33.1880 N.pl3   1  UNL1       -0.3375
     24 C           6.0709   -2.2470   32.1712 C.ar    1  UNL1        0.1567
     25 N           6.4790   -3.6610   32.4612 N.ar    1  UNL1       -0.2245
     26 C           6.7849   -4.3324   31.1551 C.ar    1  UNL1        0.0892
     27 C           7.2345   -5.7243   30.8232 C.ar    1  UNL1        0.0198
     28 C           7.4652   -6.1171   29.3940 C.ar    1  UNL1        0.0061
     29 C           7.2462   -5.1180   28.2969 C.ar    1  UNL1        0.0540
     30 C           6.7966   -3.7261   28.6288 C.ar    1  UNL1        0.0126
     31 C           6.5659   -3.3332   30.0579 C.ar    1  UNL1        0.0498
     32 S           6.1247   -2.0445   30.6859 S.2     1  UNL1       -0.0520
     33 H           5.6737   -1.4463   34.1453 H       1  UNL1        0.1442
     34 H           5.4248   -0.3105   32.8980 H       1  UNL1        0.1442
@<TRIPOS>BOND
     1    23    24    1
     2    24    25   ar
     3    25    26   ar
     4    26    27   ar
     5    27    28   ar
     6    28    29   ar
     7    29    19    1
     8    19    20    2
     9    19    21   am
    10    21     1    1
    11     1     2    1
    12     2     3   ar
    13     3     4   ar
    14     4     5   ar
    15     5     8    1
    16     8     9    2
    17     8    10   am
    18    10    12    1
    19    12    13    1
    20    13    14   ar
    21    14    15   ar
    22    15    16   ar
    23    16    17   ar
    24    17    18   ar
    25     5     6   ar
    26     6     7   ar
    27    29    30   ar
    28    30    31   ar
    29    31    32   ar
    30    32    24   ar
    31    31    26   ar
    32     7     2   ar
    33    18    13   ar
    34    23    33    1
    35    23    34    1
    36    21    22    1
    37    10    11    1
@<TRIPOS>MOLECULE
*****
 34 37 0 0 0
SMALL
GASTEIGER

@<TRIPOS>ATOM
      1 C           2.5750    0.5575   27.1771 C.3     1  UNL1        0.1166
      2 C           1.3848    1.4440   26.9593 C.ar    1  UNL1       -0.0026
      3 C           1.1297    2.5976   27.8834 C.ar    1  UNL1       -0.0025
      4 C          -0.0605    3.4841   27.6656 C.ar    1  UNL1        0.0042
      5 C          -0.9957    3.2170   26.5235 C.ar    1  UNL1        0.0533
      6 C          -0.7406    2.0633   25.5994 C.ar    1  UNL1        0.0042
      7 C           0.4497    1.1768   25.8173 C.ar    1  UNL1       -0.0025
      8 C          -2.1859    4.1034   26.3057 C.2     1  UNL1        0.2461
      9 O          -2.0085    5.4588   25.6880 O.2     1  UNL1       -0.2701
     10 N          -3.5535    3.6346   26.7056 N.am    1  UNL1       -0.2969
     11 H          -3.6699    2.7451   27.1110 H       1  UNL1        0.1501
     12 C          -4.7437    4.5211   26.4877 C.3     1  UNL1        0.1166
     13 C          -5.4951    4.4626   25.1908 C.ar    1  UNL1       -0.0026
     14 C          -6.7585    5.2528   25.0197 C.ar    1  UNL1       -0.0026
     15 C          -7.5099    5.1943   23.7228 C.ar    1  UNL1       -0.0003
     16 C          -6.9980    4.3455   22.5970 C.ar    1  UNL1       -0.0000
     17 C          -5.7345    3.5552   22.7681 C.ar    1  UNL1       -0.0003
     18 C          -4.9831    3.6138   24.0650 C.ar    1  UNL1       -0.0026
     19 C           3.8236   -0.2024   25.0292 C.2     1  UNL1        0.2461
     20 O           4.4055    1.1722   24.8812 O.2     1  UNL1       -0.2701
     21 N           2.9084   -0.5097   26.1771 N.am    1  UNL1       -0.2969
     22 H           2.5265   -1.4119   26.2743 H       1  UNL1        0.1501
     23 N           4.1222   -4.2420   18.3050 N.pl3   1  UNL1       -0.3375
     24 C           4.2303   -3.6825   19.6925 C.ar    1  UNL1        0.1567
     25 N           4.9849   -4.2962   20.8344 N.ar    1  UNL1       -0.2245
     26 C           4.8238   -3.4040   22.0294 C.ar    1  UNL1        0.0892
     27 C           5.3445   -3.5021   23.4326 C.ar    1  UNL1        0.0198
     28 C           5.0111   -2.4349   24.4326 C.ar    1  UNL1        0.0061
     29 C           4.1570   -1.2696   24.0292 C.ar    1  UNL1        0.0540
     30 C           3.6363   -1.1715   22.6259 C.ar    1  UNL1        0.0126
     31 C           3.9697   -2.2387   21.6260 C.ar    1  UNL1        0.0498
     32 S           3.6029   -2.4108   20.1818 S.2     1  UNL1       -0.0520
     33 H           4.5722   -5.0880   18.0789 H       1  UNL1        0.1442
     34 H           3.6012   -3.7633   17.6204 H       1  UNL1        0.1442
@<TRIPOS>BOND
     1    23    24    1
     2    24    25   ar
     3    25    26   ar
     4    26    27   ar
     5    27    28   ar
     6    28    29   ar
     7    29    19    1
     8    19    20    2
     9    19    21   am
    10    21     1    1
    11     1     2    1
    12     2     3   ar
    13     3     4   ar
    14     4     5   ar
    15     5     8    1
    16     8     9    2
    17     8    10   am
    18    10    12    1
    19    12    13    1
    20    13    14   ar
    21    14    15   ar
    22    15    16   ar
    23    16    17   ar
    24    17    18   ar
    25     5     6   ar
    26     6     7   ar
    27    29    30   ar
    28    30    31   ar
    29    31    32   ar
    30    32    24   ar
    31    31    26   ar
    32     7     2   ar
    33    18    13   ar
    34    23    33    1
    35    23    34    1
    36    21    22    1
    37    10    11    1
@<TRIPOS>MOLECULE
*****
 34 37 0 0 0
SMALL
GASTEIGER

@<TRIPOS>ATOM
      1 C           8.0212   -4.0035   20.2975 C.3     1  UNL1        0.1166
      2 C           8.0545   -4.7540   21.5958 C.ar    1  UNL1       -0.0026
      3 C           8.8632   -6.0117   21.7146 C.ar    1  UNL1       -0.0025
      4 C           8.8965   -6.7622   23.0129 C.ar    1  UNL1        0.0042
      5 C           8.1211   -6.2549   24.1925 C.ar    1  UNL1        0.0533
      6 C           7.3124   -4.9972   24.0738 C.ar    1  UNL1        0.0042
      7 C           7.2791   -4.2467   22.7754 C.ar    1  UNL1       -0.0025
      8 C           8.1544   -7.0054   25.4908 C.2     1  UNL1        0.2461
      9 O           7.0949   -8.0221   25.7968 O.2     1  UNL1       -0.2701
     10 N           9.2473   -6.7391   26.4832 N.am    1  UNL1       -0.2969
     11 H           9.9427   -6.0718   26.2824 H       1  UNL1        0.1501
     12 C           9.2806   -7.4896   27.7815 C.3     1  UNL1        0.1166
     13 C           8.6671   -6.8884   29.0112 C.ar    1  UNL1       -0.0026
     14 C           7.4288   -6.0495   28.8982 C.ar    1  UNL1       -0.0026
     15 C           6.8153   -5.4483   30.1279 C.ar    1  UNL1       -0.0003
     16 C           7.4401   -5.6861   31.4707 C.ar    1  UNL1       -0.0000
     17 C           8.6784   -6.5251   31.5838 C.ar    1  UNL1       -0.0003
     18 C           9.2919   -7.1263   30.3541 C.ar    1  UNL1       -0.0026
     19 C           5.6060   -3.3791   19.5716 C.2     1  UNL1        0.2461
     20 O           5.3052   -4.8280   19.3261 O.2     1  UNL1       -0.2701
     21 N           6.9639   -2.9669   20.0573 N.am    1  UNL1       -0.2969
     22 H           7.1613   -2.0159   20.2184 H       1  UNL1        0.1501
     23 N          -0.4711    1.4427   20.7728 N.pl3   1  UNL1       -0.3375
     24 C           0.6927    0.6354   20.2789 C.ar    1  UNL1        0.1567
     25 N           1.2970    0.7070   18.9079 N.ar    1  UNL1       -0.2245
     26 C           2.4343   -0.2693   18.8509 C.ar    1  UNL1        0.0892
     27 C           3.3928   -0.6309   17.7553 C.ar    1  UNL1        0.0198
     28 C           4.4500   -1.6674   17.9955 C.ar    1  UNL1        0.0061
     29 C           4.5487   -2.3425   19.3314 C.ar    1  UNL1        0.0540
     30 C           3.5902   -1.9809   20.4271 C.ar    1  UNL1        0.0126
     31 C           2.5330   -0.9443   20.1868 C.ar    1  UNL1        0.0498
     32 S           1.4567   -0.3852   21.0693 S.2     1  UNL1       -0.0520
     33 H          -0.9091    2.0913   20.1756 H       1  UNL1        0.1442
     34 H          -0.7969    1.3239   21.6942 H       1  UNL1        0.1442
@<TRIPOS>BOND
     1    23    24    1
     2    24    25   ar
     3    25    26   ar
     4    26    27   ar
     5    27    28   ar
     6    28    29   ar
     7    29    19    1
     8    19    20    2
     9    19    21   am
    10    21     1    1
    11     1     2    1
    12     2     3   ar
    13     3     4   ar
    14     4     5   ar
    15     5     8    1
    16     8     9    2
    17     8    10   am
    18    10    12    1
    19    12    13    1
    20    13    14   ar
    21    14    15   ar
    22    15    16   ar
    23    16    17   ar
    24    17    18   ar
    25     5     6   ar
    26     6     7   ar
    27    29    30   ar
    28    30    31   ar
    29    31    32   ar
    30    32    24   ar
    31    31    26   ar
    32     7     2   ar
    33    18    13   ar
    34    23    33    1
    35    23    34    1
    36    21    22    1
    37    10    11    1
@<TRIPOS>MOLECULE
*****
 34 37 0 0 0
SMALL
GASTEIGER

@<TRIPOS>ATOM
      1 C           1.8710    1.0596   26.4113 C.3     1  UNL1        0.1166
      2 C           0.6041    1.7637   26.0253 C.ar    1  UNL1       -0.0026
      3 C          -0.4033    2.1250   27.0763 C.ar    1  UNL1       -0.0025
      4 C          -1.6702    2.8292   26.6903 C.ar    1  UNL1        0.0042
      5 C          -1.9298    3.1720   25.2532 C.ar    1  UNL1        0.0533
      6 C          -0.9225    2.8107   24.2022 C.ar    1  UNL1        0.0042
      7 C           0.3445    2.1065   24.5883 C.ar    1  UNL1       -0.0025
      8 C          -3.1968    3.8761   24.8672 C.2     1  UNL1        0.2461
      9 O          -3.4956    5.2386   25.4189 O.2     1  UNL1       -0.2701
     10 N          -4.1649    3.2178   23.9295 N.am    1  UNL1       -0.2969
     11 H          -3.9688    2.3236   23.5673 H       1  UNL1        0.1501
     12 C          -5.4318    3.9219   23.5435 C.3     1  UNL1        0.1166
     13 C          -5.7968    4.0695   22.0960 C.ar    1  UNL1       -0.0026
     14 C          -5.0557    3.2877   21.0522 C.ar    1  UNL1       -0.0026
     15 C          -5.4207    3.4353   19.6048 C.ar    1  UNL1       -0.0003
     16 C          -6.5266    4.3648   19.2012 C.ar    1  UNL1       -0.0000
     17 C          -7.2677    5.1467   20.2450 C.ar    1  UNL1       -0.0003
     18 C          -6.9028    4.9991   21.6924 C.ar    1  UNL1       -0.0026
     19 C           3.3089    0.1176   24.4632 C.2     1  UNL1        0.2461
     20 O           3.7726    1.5057   24.1342 O.2     1  UNL1       -0.2701
     21 N           2.3582   -0.1055   25.6017 N.am    1  UNL1       -0.2969
     22 H           2.0539   -1.0165   25.8176 H       1  UNL1        0.1501
     23 N           4.5243   -4.7186   18.4004 N.pl3   1  UNL1       -0.3375
     24 C           4.4535   -3.9825   19.7055 C.ar    1  UNL1        0.1567
     25 N           5.1010   -4.4035   20.9914 N.ar    1  UNL1       -0.2245
     26 C           4.7704   -3.3774   22.0345 C.ar    1  UNL1        0.0892
     27 C           5.1350   -3.2675   23.4853 C.ar    1  UNL1        0.0198
     28 C           4.6478   -2.1025   24.2948 C.ar    1  UNL1        0.0061
     29 C           3.7961   -1.0474   23.6535 C.ar    1  UNL1        0.0540
     30 C           3.4316   -1.1573   22.2027 C.ar    1  UNL1        0.0126
     31 C           3.9187   -2.3223   21.3932 C.ar    1  UNL1        0.0498
     32 S           3.7229   -2.6963   19.9538 S.2     1  UNL1       -0.0520
     33 H           5.0317   -5.5599   18.3367 H       1  UNL1        0.1442
     34 H           4.0634   -4.3604   17.6076 H       1  UNL1        0.1442
@<TRIPOS>BOND
     1    23    24    1
     2    24    25   ar
     3    25    26   ar
     4    26    27   ar
     5    27    28   ar
     6    28    29   ar
     7    29    19    1
     8    19    20    2
     9    19    21   am
    10    21     1    1
    11     1     2    1
    12     2     3   ar
    13     3     4   ar
    14     4     5   ar
    15     5     8    1
    16     8     9    2
    17     8    10   am
    18    10    12    1
    19    12    13    1
    20    13    14   ar
    21    14    15   ar
    22    15    16   ar
    23    16    17   ar
    24    17    18   ar
    25     5     6   ar
    26     6     7   ar
    27    29    30   ar
    28    30    31   ar
    29    31    32   ar
    30    32    24   ar
    31    31    26   ar
    32     7     2   ar
    33    18    13   ar
    34    23    33    1
    35    23    34    1
    36    21    22    1
    37    10    11    1
@<TRIPOS>MOLECULE
*****
 34 37 0 0 0
SMALL
GASTEIGER

@<TRIPOS>ATOM
      1 C           2.6275    1.5040   18.4672 C.3     1  UNL1        0.1166
      2 C           1.3032    2.0529   18.9087 C.ar    1  UNL1       -0.0026
      3 C           0.6207    3.1113   18.0938 C.ar    1  UNL1       -0.0025
      4 C          -0.7036    3.6602   18.5353 C.ar    1  UNL1        0.0042
      5 C          -1.3454    3.1507   19.7918 C.ar    1  UNL1        0.0533
      6 C          -0.6629    2.0924   20.6066 C.ar    1  UNL1        0.0042
      7 C           0.6615    1.5435   20.1651 C.ar    1  UNL1       -0.0025
      8 C          -2.6696    3.6996   20.2333 C.2     1  UNL1        0.2461
      9 O          -2.8791    5.1830   20.3088 O.2     1  UNL1       -0.2701
     10 N          -3.7845    2.7652   20.5992 N.am    1  UNL1       -0.2969
     11 H          -3.6470    1.7916   20.5496 H       1  UNL1        0.1501
     12 C          -5.1088    3.3141   21.0407 C.3     1  UNL1        0.1166
     13 C          -5.3234    3.6908   22.4767 C.ar    1  UNL1       -0.0026
     14 C          -6.5717    4.4162   22.8833 C.ar    1  UNL1       -0.0026
     15 C          -6.7864    4.7929   24.3193 C.ar    1  UNL1       -0.0003
     16 C          -5.7526    4.4442   25.3487 C.ar    1  UNL1       -0.0000
     17 C          -4.5042    3.7187   24.9421 C.ar    1  UNL1       -0.0003
     18 C          -4.2896    3.3420   23.5062 C.ar    1  UNL1       -0.0026
     19 C           3.8700   -0.7507   18.8172 C.2     1  UNL1        0.2461
     20 O           3.6018   -1.1203   17.3884 O.2     1  UNL1       -0.2701
     21 N           3.3828    0.5614   19.3566 N.am    1  UNL1       -0.2969
     22 H           3.5589    0.8040   20.2943 H       1  UNL1        0.1501
     23 N           6.4074   -4.4541   25.2569 N.pl3   1  UNL1       -0.3375
     24 C           6.1058   -3.9201   23.8879 C.ar    1  UNL1        0.1567
     25 N           6.7282   -4.3831   22.6041 N.ar    1  UNL1       -0.2245
     26 C           6.1360   -3.5785   21.4852 C.ar    1  UNL1        0.0892
     27 C           6.3691   -3.5962   20.0036 C.ar    1  UNL1        0.0198
     28 C           5.6138   -2.6536   19.1143 C.ar    1  UNL1        0.0061
     29 C           4.6253   -1.6933   19.7066 C.ar    1  UNL1        0.0540
     30 C           4.3922   -1.6757   21.1882 C.ar    1  UNL1        0.0126
     31 C           5.1476   -2.6182   22.0775 C.ar    1  UNL1        0.0498
     32 S           5.1289   -2.8294   23.5625 S.2     1  UNL1       -0.0520
     33 H           7.0681   -5.1752   25.3694 H       1  UNL1        0.1442
     34 H           5.9445   -4.0836   26.0428 H       1  UNL1        0.1442
@<TRIPOS>BOND
     1    23    24    1
     2    24    25   ar
     3    25    26   ar
     4    26    27   ar
     5    27    28   ar
     6    28    29   ar
     7    29    19    1
     8    19    20    2
     9    19    21   am
    10    21     1    1
    11     1     2    1
    12     2     3   ar
    13     3     4   ar
    14     4     5   ar
    15     5     8    1
    16     8     9    2
    17     8    10   am
    18    10    12    1
    19    12    13    1
    20    13    14   ar
    21    14    15   ar
    22    15    16   ar
    23    16    17   ar
    24    17    18   ar
    25     5     6   ar
    26     6     7   ar
    27    29    30   ar
    28    30    31   ar
    29    31    32   ar
    30    32    24   ar
    31    31    26   ar
    32     7     2   ar
    33    18    13   ar
    34    23    33    1
    35    23    34    1
    36    21    22    1
    37    10    11    1
@<TRIPOS>MOLECULE
*****
 34 37 0 0 0
SMALL
GASTEIGER

@<TRIPOS>ATOM
      1 C           6.5132   -3.6785   32.1412 C.3     1  UNL1        0.1166
      2 C           6.5754   -3.8754   30.6555 C.ar    1  UNL1       -0.0026
      3 C           6.7681   -5.2507   30.0886 C.ar    1  UNL1       -0.0025
      4 C           6.8303   -5.4477   28.6030 C.ar    1  UNL1        0.0042
      5 C           6.6998   -4.2692   27.6840 C.ar    1  UNL1        0.0533
      6 C           6.5071   -2.8939   28.2509 C.ar    1  UNL1        0.0042
      7 C           6.4449   -2.6970   29.7367 C.ar    1  UNL1       -0.0025
      8 C           6.7620   -4.4662   26.1984 C.2     1  UNL1        0.2461
      9 O           7.6707   -5.5086   25.6174 O.2     1  UNL1       -0.2701
     10 N           5.9154   -3.6208   25.2936 N.am    1  UNL1       -0.2969
     11 H           5.3189   -2.9366   25.6749 H       1  UNL1        0.1501
     12 C           5.9776   -3.8177   23.8079 C.3     1  UNL1        0.1166
     13 C           5.0424   -3.0617   22.9113 C.ar    1  UNL1       -0.0026
     14 C           4.9085   -3.4501   21.4687 C.ar    1  UNL1       -0.0026
     15 C           3.9733   -2.6941   20.5722 C.ar    1  UNL1       -0.0003
     16 C           3.1720   -1.5496   21.1182 C.ar    1  UNL1       -0.0000
     17 C           3.3059   -1.1612   22.5609 C.ar    1  UNL1       -0.0003
     18 C           4.2411   -1.9172   23.4574 C.ar    1  UNL1       -0.0026
     19 C           4.7845   -2.2276   33.4283 C.2     1  UNL1        0.2461
     20 O           3.8969   -3.4263   33.5874 O.2     1  UNL1       -0.2701
     21 N           6.0926   -2.3536   32.7052 N.am    1  UNL1       -0.2969
     22 H           6.6752   -1.5669   32.6008 H       1  UNL1        0.1501
     23 N           1.4825    4.8677   34.0424 N.pl3   1  UNL1       -0.3375
     24 C           2.2053    3.5620   34.1933 C.ar    1  UNL1        0.1567
     25 N           2.9624    3.1084   35.4062 N.ar    1  UNL1       -0.2245
     26 C           3.5229    1.7467   35.1204 C.ar    1  UNL1        0.0892
     27 C           4.3541    0.8099   35.9459 C.ar    1  UNL1        0.0198
     28 C           4.7747   -0.5148   35.3818 C.ar    1  UNL1        0.0061
     29 C           4.3639   -0.9028   33.9923 C.ar    1  UNL1        0.0540
     30 C           3.5327    0.0340   33.1668 C.ar    1  UNL1        0.0126
     31 C           3.1121    1.3587   33.7309 C.ar    1  UNL1        0.0498
     32 S           2.2978    2.4806   33.1579 S.2     1  UNL1       -0.0520
     33 H           1.4788    5.5167   34.7827 H       1  UNL1        0.1442
     34 H           1.0119    5.0756   33.2030 H       1  UNL1        0.1442
@<TRIPOS>BOND
     1    23    24    1
     2    24    25   ar
     3    25    26   ar
     4    26    27   ar
     5    27    28   ar
     6    28    29   ar
     7    29    19    1
     8    19    20    2
     9    19    21   am
    10    21     1    1
    11     1     2    1
    12     2     3   ar
    13     3     4   ar
    14     4     5   ar
    15     5     8    1
    16     8     9    2
    17     8    10   am
    18    10    12    1
    19    12    13    1
    20    13    14   ar
    21    14    15   ar
    22    15    16   ar
    23    16    17   ar
    24    17    18   ar
    25     5     6   ar
    26     6     7   ar
    27    29    30   ar
    28    30    31   ar
    29    31    32   ar
    30    32    24   ar
    31    31    26   ar
    32     7     2   ar
    33    18    13   ar
    34    23    33    1
    35    23    34    1
    36    21    22    1
    37    10    11    1
