@<TRIPOS>MOLECULE
*****
 25 27 0 0 0
SMALL
GASTEIGER

@<TRIPOS>ATOM
      1 C          -3.9319  -19.4268   20.3479 C.2     1  UNL1        0.0919
      2 C          -4.4252  -20.8228   20.1072 C.2     1  UNL1        0.0183
      3 C          -5.8866  -21.1346   20.2369 C.2     1  UNL1        0.0511
      4 C          -6.8548  -20.0505   20.6074 C.2     1  UNL1        0.2322
      5 N          -8.3414  -20.0578   20.8077 N.2     1  UNL1       -0.0308
      6 C          -8.7669  -18.6664   21.1722 C.2     1  UNL1        0.3752
      7 N          -7.5433  -17.7991   21.1972 N.2     1  UNL1       -0.0347
      8 C          -6.3616  -18.6546   20.8481 C.2     1  UNL1        0.2191
      9 C          -4.9001  -18.3427   20.7184 C.3     1  UNL1        0.1226
     10 C         -10.1697  -18.2205   21.4610 C.ar    1  UNL1        0.0884
     11 C         -10.9317  -17.4318   20.4376 C.ar    1  UNL1        0.0077
     12 C         -12.3344  -16.9860   20.7264 C.ar    1  UNL1        0.0002
     13 C         -12.9752  -17.3289   22.0386 C.ar    1  UNL1        0.0039
     14 C         -12.2132  -18.1176   23.0619 C.ar    1  UNL1        0.0717
     15 C         -10.8105  -18.5634   22.7732 C.ar    1  UNL1        0.0115
     16 C         -12.8541  -18.4604   24.3742 C.3     1  UNL1        0.4186
     17 F         -13.4949  -18.8033   25.6863 F       1  UNL1       -0.1659
     18 F         -14.0879  -17.7106   23.9676 F       1  UNL1       -0.1659
     19 F         -11.6202  -19.2103   24.7808 F       1  UNL1       -0.1659
     20 S          -2.4704  -19.1150   20.2181 S.O2    1  UNL1        0.0054
     21 O          -2.1920  -19.9006   21.4652 O.2     1  UNL1       -0.1689
     22 O          -2.7488  -18.3293   18.9710 O.2     1  UNL1       -0.1689
     23 C          -1.0089  -18.8031   20.0884 C.3     1  UNL1        0.1556
     24 C          -1.3362  -16.4360   21.1080 C.3     1  UNL1        0.0019
     25 C          -0.5194  -17.4013   20.3011 C.3     1  UNL1        0.0257
@<TRIPOS>BOND
     1    24    25    1
     2    25    23    1
     3    23    20    1
     4    20    21    2
     5    20    22    2
     6    20     1    1
     7     1     2    2
     8     2     3    1
     9     3     4    2
    10     4     5    1
    11     5     6    2
    12     6    10    1
    13    10    11   ar
    14    11    12   ar
    15    12    13   ar
    16    13    14   ar
    17    14    16    1
    18    16    17    1
    19    16    18    1
    20    16    19    1
    21    14    15   ar
    22     6     7    1
    23     7     8    2
    24     8     9    1
    25     9     1    1
    26     8     4    1
    27    15    10   ar
@<TRIPOS>MOLECULE
*****
 25 27 0 0 0
SMALL
GASTEIGER

@<TRIPOS>ATOM
      1 C          -3.2627  -19.3744   20.4757 C.2     1  UNL1        0.0919
      2 C          -3.7981  -20.6219   19.8378 C.2     1  UNL1        0.0183
      3 C          -5.2101  -21.0532   20.1030 C.2     1  UNL1        0.0511
      4 C          -6.0866  -20.2371   21.0061 C.2     1  UNL1        0.2322
      5 N          -7.5086  -20.4113   21.4505 N.2     1  UNL1       -0.0308
      6 C          -7.8520  -19.2715   22.3632 C.2     1  UNL1        0.3752
      7 N          -6.6422  -18.3928   22.4828 N.2     1  UNL1       -0.0347
      8 C          -5.5511  -18.9897   21.6441 C.2     1  UNL1        0.2191
      9 C          -4.1391  -18.5583   21.3789 C.3     1  UNL1        0.1226
     10 C          -9.1733  -19.0494   23.0377 C.ar    1  UNL1        0.0884
     11 C          -9.6085  -19.9553   24.1512 C.ar    1  UNL1        0.0077
     12 C         -10.9297  -19.7332   24.8258 C.ar    1  UNL1        0.0002
     13 C         -11.8156  -18.6052   24.3868 C.ar    1  UNL1        0.0039
     14 C         -11.3804  -17.6993   23.2733 C.ar    1  UNL1        0.0717
     15 C         -10.0592  -17.9214   22.5988 C.ar    1  UNL1        0.0115
     16 C         -12.2664  -16.5713   22.8344 C.3     1  UNL1        0.4186
     17 F         -13.1524  -15.4433   22.3955 F       1  UNL1       -0.1659
     18 F         -11.0975  -15.9149   22.1615 F       1  UNL1       -0.1659
     19 F         -13.4354  -17.2276   23.5074 F       1  UNL1       -0.1659
     20 S          -1.8507  -18.9430   20.2105 S.O2    1  UNL1        0.0054
     21 O          -1.4547  -19.3942   21.5851 O.2     1  UNL1       -0.1689
     22 O          -2.2468  -18.4918   18.8359 O.2     1  UNL1       -0.1689
     23 C          -0.4388  -18.5116   19.9453 C.3     1  UNL1        0.1556
     24 C          -0.9540  -16.1631   20.9296 C.3     1  UNL1        0.0019
     25 C          -0.0268  -17.0928   20.2045 C.3     1  UNL1        0.0257
@<TRIPOS>BOND
     1    24    25    1
     2    25    23    1
     3    23    20    1
     4    20    21    2
     5    20    22    2
     6    20     1    1
     7     1     2    2
     8     2     3    1
     9     3     4    2
    10     4     5    1
    11     5     6    2
    12     6    10    1
    13    10    11   ar
    14    11    12   ar
    15    12    13   ar
    16    13    14   ar
    17    14    16    1
    18    16    17    1
    19    16    18    1
    20    16    19    1
    21    14    15   ar
    22     6     7    1
    23     7     8    2
    24     8     9    1
    25     9     1    1
    26     8     4    1
    27    15    10   ar
@<TRIPOS>MOLECULE
*****
 25 27 0 0 0
SMALL
GASTEIGER

@<TRIPOS>ATOM
      1 C         -11.0625  -18.5257   21.8354 C.2     1  UNL1        0.0919
      2 C         -11.1340  -19.2043   20.4996 C.2     1  UNL1        0.0183
      3 C          -9.8722  -19.5776   19.7795 C.2     1  UNL1        0.0511
      4 C          -8.5390  -19.2723   20.3951 C.2     1  UNL1        0.2322
      5 N          -7.1361  -19.5192   19.9250 N.2     1  UNL1       -0.0308
      6 C          -6.1976  -18.9933   20.9703 C.2     1  UNL1        0.3752
      7 N          -7.0204  -18.4212   22.0864 N.2     1  UNL1       -0.0347
      8 C          -8.4675  -18.5936   21.7309 C.2     1  UNL1        0.2191
      9 C          -9.7293  -18.2204   22.4510 C.3     1  UNL1        0.1226
     10 C          -4.6993  -19.0325   20.9100 C.ar    1  UNL1        0.0884
     11 C          -3.9182  -19.6244   22.0455 C.ar    1  UNL1        0.0077
     12 C          -2.4200  -19.6637   21.9853 C.ar    1  UNL1        0.0002
     13 C          -1.7028  -19.1110   20.7894 C.ar    1  UNL1        0.0039
     14 C          -2.4838  -18.5190   19.6539 C.ar    1  UNL1        0.0717
     15 C          -3.9821  -18.4798   19.7141 C.ar    1  UNL1        0.0115
     16 C          -1.7666  -17.9663   18.4580 C.3     1  UNL1        0.4186
     17 F          -1.0494  -17.4135   17.2621 F       1  UNL1       -0.1659
     18 F          -0.4716  -18.5121   18.9823 F       1  UNL1       -0.1659
     19 F          -3.0616  -17.4204   17.9335 F       1  UNL1       -0.1659
     20 S         -12.3243  -18.1524   22.5555 S.O2    1  UNL1        0.0054
     21 O         -11.7082  -18.5775   23.8554 O.2     1  UNL1       -0.1689
     22 O         -12.9404  -17.7274   21.2556 O.2     1  UNL1       -0.1689
     23 C         -13.5861  -17.7792   23.2756 C.3     1  UNL1        0.1556
     24 C         -15.1267  -18.5403   25.2242 C.3     1  UNL1        0.0019
     25 C         -13.7683  -18.1586   24.7153 C.3     1  UNL1        0.0257
@<TRIPOS>BOND
     1    24    25    1
     2    25    23    1
     3    23    20    1
     4    20    21    2
     5    20    22    2
     6    20     1    1
     7     1     2    2
     8     2     3    1
     9     3     4    2
    10     4     5    1
    11     5     6    2
    12     6    10    1
    13    10    11   ar
    14    11    12   ar
    15    12    13   ar
    16    13    14   ar
    17    14    16    1
    18    16    17    1
    19    16    18    1
    20    16    19    1
    21    14    15   ar
    22     6     7    1
    23     7     8    2
    24     8     9    1
    25     9     1    1
    26     8     4    1
    27    15    10   ar
@<TRIPOS>MOLECULE
*****
 25 27 0 0 0
SMALL
GASTEIGER

@<TRIPOS>ATOM
      1 C         -10.7824  -18.7816   23.1357 C.2     1  UNL1        0.0919
      2 C         -10.3897  -20.0590   23.8168 C.2     1  UNL1        0.0183
      3 C          -9.0127  -20.6207   23.6212 C.2     1  UNL1        0.0511
      4 C          -8.0283  -19.9049   22.7445 C.2     1  UNL1        0.2322
      5 N          -6.6103  -20.2151   22.3662 N.2     1  UNL1       -0.0308
      6 C          -6.1266  -19.1293   21.4513 C.2     1  UNL1        0.3752
      7 N          -7.2456  -18.1481   21.2641 N.2     1  UNL1       -0.0347
      8 C          -8.4210  -18.6275   22.0635 C.2     1  UNL1        0.2191
      9 C          -9.7980  -18.0658   22.2590 C.3     1  UNL1        0.1226
     10 C          -4.7632  -19.0403   20.8322 C.ar    1  UNL1        0.0884
     11 C          -4.3154  -20.0831   19.8513 C.ar    1  UNL1        0.0077
     12 C          -2.9521  -19.9942   19.2322 C.ar    1  UNL1        0.0002
     13 C          -2.0365  -18.8625   19.5940 C.ar    1  UNL1        0.0039
     14 C          -2.4843  -17.8197   20.5748 C.ar    1  UNL1        0.0717
     15 C          -3.8476  -17.9086   21.1939 C.ar    1  UNL1        0.0115
     16 C          -1.5686  -16.6879   20.9365 C.3     1  UNL1        0.4186
     17 F          -0.6530  -15.5562   21.2982 F       1  UNL1       -0.1659
     18 F          -0.6605  -17.0600   19.8021 F       1  UNL1       -0.1659
     19 F          -2.4767  -16.3158   22.0710 F       1  UNL1       -0.1659
     20 S         -12.1594  -18.2199   23.3313 S.O2    1  UNL1        0.0054
     21 O         -12.1684  -18.7326   24.7410 O.2     1  UNL1       -0.1689
     22 O         -12.1505  -17.7072   21.9217 O.2     1  UNL1       -0.1689
     23 C         -13.5365  -17.6582   23.5269 C.3     1  UNL1        0.1556
     24 C         -15.7740  -18.6919   24.3486 C.3     1  UNL1        0.0019
     25 C         -14.4012  -18.1640   24.6433 C.3     1  UNL1        0.0257
@<TRIPOS>BOND
     1    24    25    1
     2    25    23    1
     3    23    20    1
     4    20    21    2
     5    20    22    2
     6    20     1    1
     7     1     2    2
     8     2     3    1
     9     3     4    2
    10     4     5    1
    11     5     6    2
    12     6    10    1
    13    10    11   ar
    14    11    12   ar
    15    12    13   ar
    16    13    14   ar
    17    14    16    1
    18    16    17    1
    19    16    18    1
    20    16    19    1
    21    14    15   ar
    22     6     7    1
    23     7     8    2
    24     8     9    1
    25     9     1    1
    26     8     4    1
    27    15    10   ar
@<TRIPOS>MOLECULE
*****
 25 27 0 0 0
SMALL
GASTEIGER

@<TRIPOS>ATOM
      1 C         -11.7885  -18.3536   22.2889 C.2     1  UNL1        0.0919
      2 C         -11.9611  -18.5237   20.8087 C.2     1  UNL1        0.0183
      3 C         -10.7731  -18.8282   19.9451 C.2     1  UNL1        0.0511
      4 C          -9.4123  -18.9626   20.5618 C.2     1  UNL1        0.2322
      5 N          -8.0662  -19.2562   19.9688 N.2     1  UNL1       -0.0308
      6 C          -7.0615  -19.2675   21.0826 C.2     1  UNL1        0.3752
      7 N          -7.7868  -18.9809   22.3640 N.2     1  UNL1       -0.0347
      8 C          -9.2397  -18.7925   22.0420 C.2     1  UNL1        0.2191
      9 C         -10.4278  -18.4880   22.9056 C.3     1  UNL1        0.1226
     10 C          -5.5899  -19.5210   20.9400 C.ar    1  UNL1        0.0884
     11 C          -5.0924  -20.4917   19.9104 C.ar    1  UNL1        0.0077
     12 C          -3.6209  -20.7451   19.7678 C.ar    1  UNL1        0.0002
     13 C          -2.6469  -20.0279   20.6548 C.ar    1  UNL1        0.0039
     14 C          -3.1444  -19.0572   21.6845 C.ar    1  UNL1        0.0717
     15 C          -4.6160  -18.8037   21.8271 C.ar    1  UNL1        0.0115
     16 C          -2.1704  -18.3400   22.5716 C.3     1  UNL1        0.4186
     17 F          -1.1964  -17.6228   23.4586 F       1  UNL1       -0.1659
     18 F          -3.2357  -18.1849   23.6161 F       1  UNL1       -0.1659
     19 F          -1.1050  -18.4950   21.5271 F       1  UNL1       -0.1659
     20 S         -12.9765  -18.0490   23.1525 S.O2    1  UNL1        0.0054
     21 O         -12.1844  -18.4168   24.3720 O.2     1  UNL1       -0.1689
     22 O         -13.7687  -17.6812   21.9330 O.2     1  UNL1       -0.1689
     23 C         -14.1646  -17.7445   24.0161 C.3     1  UNL1        0.1556
     24 C         -14.6439  -18.3554   26.4954 C.3     1  UNL1        0.0019
     25 C         -14.6181  -18.7372   25.0450 C.3     1  UNL1        0.0257
@<TRIPOS>BOND
     1    24    25    1
     2    25    23    1
     3    23    20    1
     4    20    21    2
     5    20    22    2
     6    20     1    1
     7     1     2    2
     8     2     3    1
     9     3     4    2
    10     4     5    1
    11     5     6    2
    12     6    10    1
    13    10    11   ar
    14    11    12   ar
    15    12    13   ar
    16    13    14   ar
    17    14    16    1
    18    16    17    1
    19    16    18    1
    20    16    19    1
    21    14    15   ar
    22     6     7    1
    23     7     8    2
    24     8     9    1
    25     9     1    1
    26     8     4    1
    27    15    10   ar
@<TRIPOS>MOLECULE
*****
 25 27 0 0 0
SMALL
GASTEIGER

@<TRIPOS>ATOM
      1 C           0.2512    1.7082   25.3163 C.2     1  UNL1        0.0919
      2 C          -0.4621    2.6780   24.4216 C.2     1  UNL1        0.0183
      3 C          -0.2099    2.6595   22.9431 C.2     1  UNL1        0.0511
      4 C           0.7556    1.6711   22.3593 C.2     1  UNL1        0.2322
      5 N           1.2038    1.4179   20.9504 N.2     1  UNL1       -0.0308
      6 C           2.1941    0.2915   20.9744 C.2     1  UNL1        0.3752
      7 N           2.3580   -0.1514   22.3981 N.2     1  UNL1       -0.0347
      8 C           1.4689    0.7013   23.2540 C.2     1  UNL1        0.2191
      9 C           1.2167    0.7198   24.7325 C.3     1  UNL1        0.1226
     10 C           2.8972   -0.2898   19.7836 C.ar    1  UNL1        0.0884
     11 C           3.2118    0.5777   18.6010 C.ar    1  UNL1        0.0077
     12 C           3.9148   -0.0036   17.4103 C.ar    1  UNL1        0.0002
     13 C           4.3032   -1.4524   17.4022 C.ar    1  UNL1        0.0039
     14 C           3.9886   -2.3199   18.5848 C.ar    1  UNL1        0.0717
     15 C           3.2856   -1.7386   19.7755 C.ar    1  UNL1        0.0115
     16 C           4.3771   -3.7687   18.5766 C.3     1  UNL1        0.4186
     17 F           4.7656   -5.2175   18.5684 F       1  UNL1       -0.1659
     18 F           2.9818   -4.1452   18.9782 F       1  UNL1       -0.1659
     19 F           5.7725   -3.3923   18.1750 F       1  UNL1       -0.1659
     20 S          -0.0010    1.7267   26.7949 S.O2    1  UNL1        0.0054
     21 O          -1.3580    2.3196   26.5560 O.2     1  UNL1       -0.1689
     22 O           1.3560    1.1338   27.0338 O.2     1  UNL1       -0.1689
     23 C          -0.2532    1.7453   28.2734 C.3     1  UNL1        0.1556
     24 C          -1.1971   -0.6223   28.7767 C.3     1  UNL1        0.0019
     25 C          -1.3190    0.8702   28.8635 C.3     1  UNL1        0.0257
@<TRIPOS>BOND
     1    24    25    1
     2    25    23    1
     3    23    20    1
     4    20    21    2
     5    20    22    2
     6    20     1    1
     7     1     2    2
     8     2     3    1
     9     3     4    2
    10     4     5    1
    11     5     6    2
    12     6    10    1
    13    10    11   ar
    14    11    12   ar
    15    12    13   ar
    16    13    14   ar
    17    14    16    1
    18    16    17    1
    19    16    18    1
    20    16    19    1
    21    14    15   ar
    22     6     7    1
    23     7     8    2
    24     8     9    1
    25     9     1    1
    26     8     4    1
    27    15    10   ar
@<TRIPOS>MOLECULE
*****
 25 27 0 0 0
SMALL
GASTEIGER

@<TRIPOS>ATOM
      1 C         -10.2317  -18.8512   22.3290 C.2     1  UNL1        0.0919
      2 C          -9.8950  -20.0545   23.1587 C.2     1  UNL1        0.0183
      3 C          -8.4794  -20.5458   23.2276 C.2     1  UNL1        0.0511
      4 C          -7.4005  -19.8337   22.4668 C.2     1  UNL1        0.2322
      5 N          -5.9268  -20.0843   22.3432 N.2     1  UNL1       -0.0308
      6 C          -5.3527  -19.0358   21.4371 C.2     1  UNL1        0.3752
      7 N          -6.4716  -18.1372   21.0006 N.2     1  UNL1       -0.0347
      8 C          -7.7373  -18.6304   21.6370 C.2     1  UNL1        0.2191
      9 C          -9.1529  -18.1391   21.5681 C.3     1  UNL1        0.1226
     10 C          -3.9125  -18.9083   21.0376 C.ar    1  UNL1        0.0884
     11 C          -2.8301  -19.3087   21.9958 C.ar    1  UNL1        0.0077
     12 C          -1.3899  -19.1813   21.5963 C.ar    1  UNL1        0.0002
     13 C          -1.0321  -18.6533   20.2387 C.ar    1  UNL1        0.0039
     14 C          -2.1145  -18.2528   19.2805 C.ar    1  UNL1        0.0717
     15 C          -3.5546  -18.3803   19.6800 C.ar    1  UNL1        0.0115
     16 C          -1.7566  -17.7248   17.9228 C.3     1  UNL1        0.4186
     17 F          -1.3988  -17.1969   16.5652 F       1  UNL1       -0.1659
     18 F          -0.3482  -18.2073   18.1064 F       1  UNL1       -0.1659
     19 F          -3.1650  -17.2423   17.7392 F       1  UNL1       -0.1659
     20 S         -11.6474  -18.3600   22.2601 S.O2    1  UNL1        0.0054
     21 O         -11.8992  -19.2511   21.0800 O.2     1  UNL1       -0.1689
     22 O         -11.3955  -17.4688   23.4401 O.2     1  UNL1       -0.1689
     23 C         -13.0630  -17.8687   22.1912 C.3     1  UNL1        0.1556
     24 C         -12.4544  -16.0723   20.4156 C.3     1  UNL1        0.0019
     25 C         -13.3780  -16.5862   21.4800 C.3     1  UNL1        0.0257
@<TRIPOS>BOND
     1    24    25    1
     2    25    23    1
     3    23    20    1
     4    20    21    2
     5    20    22    2
     6    20     1    1
     7     1     2    2
     8     2     3    1
     9     3     4    2
    10     4     5    1
    11     5     6    2
    12     6    10    1
    13    10    11   ar
    14    11    12   ar
    15    12    13   ar
    16    13    14   ar
    17    14    16    1
    18    16    17    1
    19    16    18    1
    20    16    19    1
    21    14    15   ar
    22     6     7    1
    23     7     8    2
    24     8     9    1
    25     9     1    1
    26     8     4    1
    27    15    10   ar
@<TRIPOS>MOLECULE
*****
 25 27 0 0 0
SMALL
GASTEIGER

@<TRIPOS>ATOM
      1 C           6.3301   -2.2696   19.2492 C.2     1  UNL1        0.0919
      2 C           7.8090   -2.3740   19.0215 C.2     1  UNL1        0.0183
      3 C           8.6652   -3.1348   19.9902 C.2     1  UNL1        0.0511
      4 C           8.0424   -3.7911   21.1865 C.2     1  UNL1        0.2322
      5 N           8.6275   -4.6015   22.3050 N.2     1  UNL1       -0.0308
      6 C           7.5102   -4.9980   23.2239 C.2     1  UNL1        0.3752
      7 N           6.2345   -4.4326   22.6734 N.2     1  UNL1       -0.0347
      8 C           6.5635   -3.6867   21.4142 C.2     1  UNL1        0.2191
      9 C           5.7074   -2.9259   20.4456 C.3     1  UNL1        0.1226
     10 C           7.6449   -5.8162   24.4739 C.ar    1  UNL1        0.0884
     11 C           8.2604   -7.1827   24.4131 C.ar    1  UNL1        0.0077
     12 C           8.3952   -8.0009   25.6630 C.ar    1  UNL1        0.0002
     13 C           7.9144   -7.4526   26.9738 C.ar    1  UNL1        0.0039
     14 C           7.2989   -6.0860   27.0346 C.ar    1  UNL1        0.0717
     15 C           7.1641   -5.2678   25.7847 C.ar    1  UNL1        0.0115
     16 C           6.8181   -5.5377   28.3455 C.3     1  UNL1        0.4186
     17 F           6.3374   -4.9894   29.6563 F       1  UNL1       -0.1659
     18 F           6.0574   -4.4683   27.6192 F       1  UNL1       -0.1659
     19 F           7.5789   -6.6071   29.0718 F       1  UNL1       -0.1659
     20 S           5.4740   -1.5088   18.2806 S.O2    1  UNL1        0.0054
     21 O           4.3261   -1.5740   19.2439 O.2     1  UNL1       -0.1689
     22 O           6.6219   -1.4437   17.3172 O.2     1  UNL1       -0.1689
     23 C           4.6179   -0.7481   17.3119 C.3     1  UNL1        0.1556
     24 C           3.4145    1.3958   18.1520 C.3     1  UNL1        0.0019
     25 C           3.3742   -0.0595   17.7905 C.3     1  UNL1        0.0257
@<TRIPOS>BOND
     1    24    25    1
     2    25    23    1
     3    23    20    1
     4    20    21    2
     5    20    22    2
     6    20     1    1
     7     1     2    2
     8     2     3    1
     9     3     4    2
    10     4     5    1
    11     5     6    2
    12     6    10    1
    13    10    11   ar
    14    11    12   ar
    15    12    13   ar
    16    13    14   ar
    17    14    16    1
    18    16    17    1
    19    16    18    1
    20    16    19    1
    21    14    15   ar
    22     6     7    1
    23     7     8    2
    24     8     9    1
    25     9     1    1
    26     8     4    1
    27    15    10   ar
@<TRIPOS>MOLECULE
*****
 25 27 0 0 0
SMALL
GASTEIGER

@<TRIPOS>ATOM
      1 C          -1.6914    3.6166   19.7106 C.2     1  UNL1        0.0919
      2 C          -0.9538    3.7644   18.4129 C.2     1  UNL1        0.0183
      3 C           0.2157    2.8754   18.1095 C.2     1  UNL1        0.0511
      4 C           0.6476    1.8387   19.1038 C.2     1  UNL1        0.2322
      5 N           1.7548    0.8270   19.0822 N.2     1  UNL1       -0.0308
      6 C           1.7015    0.0540   20.3666 C.2     1  UNL1        0.3752
      7 N           0.5613    0.5879   21.1820 N.2     1  UNL1       -0.0347
      8 C          -0.0900    1.6910   20.4015 C.2     1  UNL1        0.2191
      9 C          -1.2595    2.5799   20.7049 C.3     1  UNL1        0.1226
     10 C           2.6261   -1.0579   20.7655 C.ar    1  UNL1        0.0884
     11 C           3.1655   -1.1195   22.1638 C.ar    1  UNL1        0.0077
     12 C           4.0900   -2.2312   22.5627 C.ar    1  UNL1        0.0002
     13 C           4.4752   -3.2814   21.5633 C.ar    1  UNL1        0.0039
     14 C           3.9358   -3.2197   20.1650 C.ar    1  UNL1        0.0717
     15 C           3.0113   -2.1080   19.7661 C.ar    1  UNL1        0.0115
     16 C           4.3211   -4.2699   19.1656 C.3     1  UNL1        0.4186
     17 F           4.7063   -5.3200   18.1662 F       1  UNL1       -0.1659
     18 F           3.5065   -5.2821   19.9151 F       1  UNL1       -0.1659
     19 F           5.1357   -3.2577   18.4159 F       1  UNL1       -0.1659
     20 S          -2.8609    4.5056   20.0140 S.O2    1  UNL1        0.0054
     21 O          -3.7528    3.6067   19.2099 O.2     1  UNL1       -0.1689
     22 O          -1.9690    5.4044   20.8182 O.2     1  UNL1       -0.1689
     23 C          -4.0304    5.3945   20.3174 C.3     1  UNL1        0.1556
     24 C          -6.3246    4.7466   21.3503 C.3     1  UNL1        0.0019
     25 C          -5.4285    4.8764   20.1544 C.3     1  UNL1        0.0257
@<TRIPOS>BOND
     1    24    25    1
     2    25    23    1
     3    23    20    1
     4    20    21    2
     5    20    22    2
     6    20     1    1
     7     1     2    2
     8     2     3    1
     9     3     4    2
    10     4     5    1
    11     5     6    2
    12     6    10    1
    13    10    11   ar
    14    11    12   ar
    15    12    13   ar
    16    13    14   ar
    17    14    16    1
    18    16    17    1
    19    16    18    1
    20    16    19    1
    21    14    15   ar
    22     6     7    1
    23     7     8    2
    24     8     9    1
    25     9     1    1
    26     8     4    1
    27    15    10   ar
