@<TRIPOS>MOLECULE
*****
 42 45 0 0 0
SMALL
GASTEIGER

@<TRIPOS>ATOM
      1 N           6.7105   -5.1094   31.9165 N.am    1  UNL1       -0.2903
      2 C           6.2200   -3.7024   32.0887 C.2     1  UNL1        0.3044
      3 O           6.9086   -2.5757   31.3773 O.2     1  UNL1       -0.2525
      4 N           5.0407   -3.4221   32.9724 N.am    1  UNL1       -0.2683
      5 H           6.2585   -5.8489   32.3834 H       1  UNL1        0.1509
      6 H           4.5888   -4.1617   33.4393 H       1  UNL1        0.1564
      7 C           4.5502   -2.0152   33.1447 C.ar    1  UNL1        0.0514
      8 C           3.8351   -1.3271   32.0197 C.ar    1  UNL1        0.0178
      9 C           3.3446    0.0798   32.1920 C.ar    1  UNL1        0.0383
     10 C           3.5690    0.7989   33.4892 C.ar    1  UNL1       -0.0008
     11 C           4.2841    0.1109   34.6141 C.ar    1  UNL1       -0.0166
     12 C           4.7747   -1.2961   34.4418 C.ar    1  UNL1        0.0108
     13 C           2.6296    0.7678   31.0671 C.ar    1  UNL1        0.1839
     14 N           1.1593    1.0585   31.0037 N.ar    1  UNL1       -0.1081
     15 N           0.8802    1.7562   29.7055 N.ar    1  UNL1       -0.0227
     16 N           2.1780    1.8967   28.9665 N.ar    1  UNL1       -0.0429
     17 N           3.2592    1.2858   29.8080 N.ar    1  UNL1       -0.2113
     18 C           4.7143    1.2069   29.4528 C.3     1  UNL1        0.1573
     19 C           4.5085    0.8300   35.9112 C.3     1  UNL1        0.0509
     20 C           5.4974   -0.2204   36.3223 C.3     1  UNL1        0.0100
     21 C           3.5197    1.8803   35.5001 C.3     1  UNL1        0.0100
     22 C           4.7330    1.5490   37.2084 C.2     1  UNL1        0.0534
     23 O           5.6931    2.6997   37.2717 O.co2   1  UNL1       -0.5489
     24 O           3.9973    1.1173   38.4423 O.co2   1  UNL1       -0.5489
     25 C           9.2566   -4.9210   31.4352 C.3     1  UNL1        0.0214
     26 C           7.8897   -5.3896   31.0328 C.3     1  UNL1        0.0745
     27 C           7.7020   -6.1385   29.7467 C.3     1  UNL1        0.0369
     28 C           6.9911   -5.4882   28.5970 C.3     1  UNL1        0.0738
     29 N           7.3353   -5.8722   27.1884 N.3     1  UNL1       -0.2726
     30 C           7.5568   -7.3134   26.8367 C.3     1  UNL1        0.0721
     31 C           7.9010   -7.6973   25.4281 C.3     1  UNL1        0.0174
     32 C           8.0236   -6.6399   24.3713 C.3     1  UNL1        0.0031
     33 C           7.8021   -5.1987   24.7229 C.3     1  UNL1        0.0204
     34 C           7.4579   -4.8148   26.1315 C.3     1  UNL1        0.0724
     35 C           7.9247   -4.1414   23.6660 C.3     1  UNL1        0.0277
     36 C           6.8202   -3.9446   22.6704 C.ar    1  UNL1       -0.0220
     37 C           7.1132   -4.0177   21.2010 C.ar    1  UNL1       -0.0020
     38 C           6.0088   -3.8209   20.2053 C.ar    1  UNL1        0.0293
     39 C           4.6113   -3.5510   20.6789 C.ar    1  UNL1        0.1401
     40 F           3.5068   -3.3541   19.6831 F       1  UNL1       -0.2042
     41 C           4.3183   -3.4778   22.1482 C.ar    1  UNL1        0.0293
     42 C           5.4228   -3.6746   23.1439 C.ar    1  UNL1       -0.0020
@<TRIPOS>UNITY_ATOM_ATTR
23 1
charge -1
@<TRIPOS>BOND
     1    26    25    1
     2    26    27    1
     3    27    28    1
     4    28    29    1
     5    29    30    1
     6    30    31    1
     7    31    32    1
     8    32    33    1
     9    33    35    1
    10    35    36    1
    11    36    37   ar
    12    37    38   ar
    13    38    39   ar
    14    39    40    1
    15    39    41   ar
    16    41    42   ar
    17    33    34    1
    18    26     1    1
    19     1     2   am
    20     2     3    2
    21     2     4   am
    22     4     7    1
    23     7     8   ar
    24     8     9   ar
    25     9    13    1
    26    13    14   ar
    27    14    15   ar
    28    15    16   ar
    29    16    17   ar
    30    17    18    1
    31     9    10   ar
    32    10    11   ar
    33    11    19    1
    34    19    20    1
    35    19    21    1
    36    19    22    1
    37    22    23   ar
    38    22    24   ar
    39    11    12   ar
    40    34    29    1
    41    12     7   ar
    42    42    36   ar
    43    17    13   ar
    44     1     5    1
    45     4     6    1
@<TRIPOS>MOLECULE
*****
 42 45 0 0 0
SMALL
GASTEIGER

@<TRIPOS>ATOM
      1 N           1.4136    3.6978   21.7450 N.am    1  UNL1       -0.2903
      2 C           1.7846    2.2907   22.1088 C.2     1  UNL1        0.3044
      3 O           0.7430    1.2115   22.0889 O.2     1  UNL1       -0.2525
      4 N           3.1971    1.9627   22.4925 N.am    1  UNL1       -0.2683
      5 H           2.0973    4.4061   21.7581 H       1  UNL1        0.1509
      6 H           3.8807    2.6711   22.5055 H       1  UNL1        0.1564
      7 C           3.5680    0.5556   22.8563 C.ar    1  UNL1        0.0514
      8 C           3.8563    0.2015   24.2851 C.ar    1  UNL1        0.0178
      9 C           4.2273   -1.2056   24.6489 C.ar    1  UNL1        0.0383
     10 C           4.3099   -2.2587   23.5839 C.ar    1  UNL1       -0.0008
     11 C           4.0217   -1.9046   22.1551 C.ar    1  UNL1       -0.0166
     12 C           3.6507   -0.4974   21.7913 C.ar    1  UNL1        0.0108
     13 C           4.5155   -1.5597   26.0777 C.ar    1  UNL1        0.1839
     14 N           3.5394   -1.4998   27.2151 N.ar    1  UNL1       -0.1081
     15 N           4.2511   -1.9389   28.4604 N.ar    1  UNL1       -0.0227
     16 N           5.6671   -2.2701   28.0927 N.ar    1  UNL1       -0.0429
     17 N           5.8306   -2.0357   26.6201 N.ar    1  UNL1       -0.2113
     18 C           7.0882   -2.2413   25.8288 C.3     1  UNL1        0.1573
     19 C           4.1043   -2.9577   21.0901 C.3     1  UNL1        0.0509
     20 C           3.4319   -2.0307   20.1213 C.3     1  UNL1        0.0100
     21 C           4.7768   -3.8846   22.0589 C.3     1  UNL1        0.0100
     22 C           4.1870   -4.0107   20.0251 C.2     1  UNL1        0.0534
     23 O           5.4409   -4.8181   19.8644 O.co2   1  UNL1       -0.5489
     24 O           3.0157   -4.2564   19.1208 O.co2   1  UNL1       -0.5489
     25 C          -1.1028    3.8770   22.3659 C.3     1  UNL1        0.0214
     26 C           0.0011    4.0257   21.3613 C.3     1  UNL1        0.0745
     27 C          -0.3075    4.5025   19.9729 C.3     1  UNL1        0.0369
     28 C           0.7346    4.4073   18.8983 C.3     1  UNL1        0.0738
     29 N           1.4250    3.1016   18.6366 N.3     1  UNL1       -0.2726
     30 C           0.6209    1.8434   18.4934 C.3     1  UNL1        0.0721
     31 C           1.3114    0.5378   18.2318 C.3     1  UNL1        0.0174
     32 C           2.8059    0.4903   18.1132 C.3     1  UNL1        0.0031
     33 C           3.6100    1.7484   18.2564 C.3     1  UNL1        0.0204
     34 C           2.9196    3.0540   18.5181 C.3     1  UNL1        0.0724
     35 C           5.1046    1.7008   18.1379 C.3     1  UNL1        0.0277
     36 C           5.8574    0.4970   18.6215 C.ar    1  UNL1       -0.0220
     37 C           6.0606   -0.6767   17.7098 C.ar    1  UNL1       -0.0020
     38 C           6.8134   -1.8806   18.1935 C.ar    1  UNL1        0.0293
     39 C           7.3630   -1.9108   19.5888 C.ar    1  UNL1        0.1401
     40 F           8.1159   -3.1148   20.0725 F       1  UNL1       -0.2042
     41 C           7.1598   -0.7372   20.5005 C.ar    1  UNL1        0.0293
     42 C           6.4070    0.4668   20.0169 C.ar    1  UNL1       -0.0020
@<TRIPOS>UNITY_ATOM_ATTR
23 1
charge -1
@<TRIPOS>BOND
     1    26    25    1
     2    26    27    1
     3    27    28    1
     4    28    29    1
     5    29    30    1
     6    30    31    1
     7    31    32    1
     8    32    33    1
     9    33    35    1
    10    35    36    1
    11    36    37   ar
    12    37    38   ar
    13    38    39   ar
    14    39    40    1
    15    39    41   ar
    16    41    42   ar
    17    33    34    1
    18    26     1    1
    19     1     2   am
    20     2     3    2
    21     2     4   am
    22     4     7    1
    23     7     8   ar
    24     8     9   ar
    25     9    13    1
    26    13    14   ar
    27    14    15   ar
    28    15    16   ar
    29    16    17   ar
    30    17    18    1
    31     9    10   ar
    32    10    11   ar
    33    11    19    1
    34    19    20    1
    35    19    21    1
    36    19    22    1
    37    22    23   ar
    38    22    24   ar
    39    11    12   ar
    40    34    29    1
    41    12     7   ar
    42    42    36   ar
    43    17    13   ar
    44     1     5    1
    45     4     6    1
@<TRIPOS>MOLECULE
*****
 42 45 0 0 0
SMALL
GASTEIGER

@<TRIPOS>ATOM
      1 N           5.6254   -1.6395   27.3375 N.am    1  UNL1       -0.2903
      2 C           5.2518   -1.2888   25.9278 C.2     1  UNL1        0.3044
      3 O           6.0123   -0.2249   25.1930 O.2     1  UNL1       -0.2525
      4 N           4.1179   -2.0019   25.2528 N.am    1  UNL1       -0.2683
      5 H           5.1263   -2.3377   27.8198 H       1  UNL1        0.1509
      6 H           3.6188   -2.7001   25.7351 H       1  UNL1        0.1564
      7 C           3.7443   -1.6512   23.8431 C.ar    1  UNL1        0.0514
      8 C           2.8748   -0.4593   23.5720 C.ar    1  UNL1        0.0178
      9 C           2.5012   -0.1085   22.1623 C.ar    1  UNL1        0.0383
     10 C           2.9971   -0.9496   21.0236 C.ar    1  UNL1       -0.0008
     11 C           3.8666   -2.1415   21.2946 C.ar    1  UNL1       -0.0166
     12 C           4.2402   -2.4923   22.7044 C.ar    1  UNL1        0.0108
     13 C           1.6318    1.0833   21.8912 C.ar    1  UNL1        0.1839
     14 N           0.1609    1.0533   21.5981 N.ar    1  UNL1       -0.1081
     15 N          -0.2994    2.4659   21.3914 N.ar    1  UNL1       -0.0227
     16 N           0.8868    3.3690   21.5568 N.ar    1  UNL1       -0.0429
     17 N           2.0804    2.5144   21.8657 N.ar    1  UNL1       -0.2113
     18 C           3.4773    3.0050   22.1068 C.3     1  UNL1        0.1573
     19 C           4.3625   -2.9826   20.1559 C.3     1  UNL1        0.0509
     20 C           3.6256   -2.1058   19.1873 C.3     1  UNL1        0.0100
     21 C           5.0994   -3.8594   21.1245 C.3     1  UNL1        0.0100
     22 C           4.8584   -3.8237   19.0173 C.2     1  UNL1        0.0534
     23 O           4.7713   -5.3191   19.0959 O.co2   1  UNL1       -0.5489
     24 O           5.4415   -3.1694   17.7999 O.co2   1  UNL1       -0.5489
     25 C           6.6099    0.5120   28.4107 C.3     1  UNL1        0.0214
     26 C           6.7594   -0.9264   28.0125 C.3     1  UNL1        0.0745
     27 C           8.0429   -1.6518   28.2892 C.3     1  UNL1        0.0369
     28 C           8.9961   -1.9436   27.1685 C.3     1  UNL1        0.0738
     29 N           8.5299   -2.7138   25.9687 N.3     1  UNL1       -0.2726
     30 C           7.7301   -3.9700   26.1482 C.3     1  UNL1        0.0721
     31 C           7.2639   -4.7401   24.9484 C.3     1  UNL1        0.0174
     32 C           7.5975   -4.2541   23.5691 C.3     1  UNL1        0.0031
     33 C           8.3973   -2.9979   23.3896 C.3     1  UNL1        0.0204
     34 C           8.8635   -2.2278   24.5894 C.3     1  UNL1        0.0724
     35 C           8.7310   -2.5119   22.0103 C.3     1  UNL1        0.0277
     36 C           7.8814   -1.4608   21.3595 C.ar    1  UNL1       -0.0220
     37 C           7.7480   -1.4231   19.8659 C.ar    1  UNL1       -0.0020
     38 C           6.8984   -0.3720   19.2152 C.ar    1  UNL1        0.0293
     39 C           6.1823    0.6413   20.0579 C.ar    1  UNL1        0.1401
     40 F           5.3327    1.6924   19.4071 F       1  UNL1       -0.2042
     41 C           6.3156    0.6036   21.5515 C.ar    1  UNL1        0.0293
     42 C           7.1652   -0.4475   22.2023 C.ar    1  UNL1       -0.0020
@<TRIPOS>UNITY_ATOM_ATTR
23 1
charge -1
@<TRIPOS>BOND
     1    26    25    1
     2    26    27    1
     3    27    28    1
     4    28    29    1
     5    29    30    1
     6    30    31    1
     7    31    32    1
     8    32    33    1
     9    33    35    1
    10    35    36    1
    11    36    37   ar
    12    37    38   ar
    13    38    39   ar
    14    39    40    1
    15    39    41   ar
    16    41    42   ar
    17    33    34    1
    18    26     1    1
    19     1     2   am
    20     2     3    2
    21     2     4   am
    22     4     7    1
    23     7     8   ar
    24     8     9   ar
    25     9    13    1
    26    13    14   ar
    27    14    15   ar
    28    15    16   ar
    29    16    17   ar
    30    17    18    1
    31     9    10   ar
    32    10    11   ar
    33    11    19    1
    34    19    20    1
    35    19    21    1
    36    19    22    1
    37    22    23   ar
    38    22    24   ar
    39    11    12   ar
    40    34    29    1
    41    12     7   ar
    42    42    36   ar
    43    17    13   ar
    44     1     5    1
    45     4     6    1
@<TRIPOS>MOLECULE
*****
 42 45 0 0 0
SMALL
GASTEIGER

@<TRIPOS>ATOM
      1 N           6.7561   -5.1394   31.8937 N.am    1  UNL1       -0.2903
      2 C           6.2523   -3.7362   32.0583 C.2     1  UNL1        0.3044
      3 O           6.8852   -2.6167   31.2863 O.2     1  UNL1       -0.2525
      4 N           5.1155   -3.4525   32.9950 N.am    1  UNL1       -0.2683
      5 H           6.3407   -5.8742   32.4004 H       1  UNL1        0.1509
      6 H           4.7001   -4.1873   33.5017 H       1  UNL1        0.1564
      7 C           4.6117   -2.0493   33.1596 C.ar    1  UNL1        0.0514
      8 C           4.9694   -1.2630   34.3860 C.ar    1  UNL1        0.0178
      9 C           4.4656    0.1402   34.5507 C.ar    1  UNL1        0.0383
     10 C           3.6041    0.7572   33.4890 C.ar    1  UNL1       -0.0008
     11 C           3.2465   -0.0290   32.2627 C.ar    1  UNL1       -0.0166
     12 C           3.7503   -1.4323   32.0980 C.ar    1  UNL1        0.0108
     13 C           4.8233    0.9264   35.7770 C.ar    1  UNL1        0.1839
     14 N           4.0148    1.0098   37.0378 N.ar    1  UNL1       -0.1081
     15 N           4.7441    1.9022   37.9979 N.ar    1  UNL1       -0.0227
     16 N           6.0033    2.3703   37.3306 N.ar    1  UNL1       -0.0429
     17 N           6.0522    1.7672   35.9579 N.ar    1  UNL1       -0.2113
     18 C           7.1392    1.9695   34.9443 C.3     1  UNL1        0.1573
     19 C           2.3850    0.5880   31.2010 C.3     1  UNL1        0.0509
     20 C           2.0640    1.7266   32.1232 C.3     1  UNL1        0.0100
     21 C           2.7060   -0.5506   30.2788 C.3     1  UNL1        0.0100
     22 C           1.5235    1.2050   30.1393 C.2     1  UNL1        0.0534
     23 O           2.1467    1.7351   28.8821 O.co2   1  UNL1       -0.5489
     24 O           0.0388    1.2919   30.3349 O.co2   1  UNL1       -0.5489
     25 C           9.2824   -4.9810   31.3084 C.3     1  UNL1        0.0214
     26 C           7.8928   -5.4231   30.9570 C.3     1  UNL1        0.0745
     27 C           7.6399   -6.1490   29.6689 C.3     1  UNL1        0.0369
     28 C           7.0174   -5.4269   28.5108 C.3     1  UNL1        0.0738
     29 N           7.3478   -5.8367   27.1062 N.3     1  UNL1       -0.2726
     30 C           7.5404   -7.2866   26.7735 C.3     1  UNL1        0.0721
     31 C           7.8707   -7.6963   25.3690 C.3     1  UNL1        0.0174
     32 C           8.0085   -6.6561   24.2970 C.3     1  UNL1        0.0031
     33 C           7.8160   -5.2063   24.6296 C.3     1  UNL1        0.0204
     34 C           7.4856   -4.7965   26.0342 C.3     1  UNL1        0.0724
     35 C           7.9537   -4.1661   23.5577 C.3     1  UNL1        0.0277
     36 C           6.8384   -3.9449   22.5795 C.ar    1  UNL1       -0.0220
     37 C           7.1121   -3.9969   21.1055 C.ar    1  UNL1       -0.0020
     38 C           5.9967   -3.7757   20.1273 C.ar    1  UNL1        0.0293
     39 C           4.6076   -3.5025   20.6229 C.ar    1  UNL1        0.1401
     40 F           3.4922   -3.2813   19.6446 F       1  UNL1       -0.2042
     41 C           4.3338   -3.4505   22.0968 C.ar    1  UNL1        0.0293
     42 C           5.4492   -3.6717   23.0751 C.ar    1  UNL1       -0.0020
@<TRIPOS>UNITY_ATOM_ATTR
23 1
charge -1
@<TRIPOS>BOND
     1    26    25    1
     2    26    27    1
     3    27    28    1
     4    28    29    1
     5    29    30    1
     6    30    31    1
     7    31    32    1
     8    32    33    1
     9    33    35    1
    10    35    36    1
    11    36    37   ar
    12    37    38   ar
    13    38    39   ar
    14    39    40    1
    15    39    41   ar
    16    41    42   ar
    17    33    34    1
    18    26     1    1
    19     1     2   am
    20     2     3    2
    21     2     4   am
    22     4     7    1
    23     7     8   ar
    24     8     9   ar
    25     9    13    1
    26    13    14   ar
    27    14    15   ar
    28    15    16   ar
    29    16    17   ar
    30    17    18    1
    31     9    10   ar
    32    10    11   ar
    33    11    19    1
    34    19    20    1
    35    19    21    1
    36    19    22    1
    37    22    23   ar
    38    22    24   ar
    39    11    12   ar
    40    34    29    1
    41    12     7   ar
    42    42    36   ar
    43    17    13   ar
    44     1     5    1
    45     4     6    1
@<TRIPOS>MOLECULE
*****
 42 45 0 0 0
SMALL
GASTEIGER

@<TRIPOS>ATOM
      1 N          -1.6620    3.0483   20.2187 N.am    1  UNL1       -0.2903
      2 C          -0.3461    2.4295   20.5865 C.2     1  UNL1        0.3044
      3 O           0.8419    3.3025   20.8631 O.2     1  UNL1       -0.2525
      4 N          -0.2181    0.9378   20.6778 N.am    1  UNL1       -0.2683
      5 H          -2.4418    2.4753   20.0372 H       1  UNL1        0.1509
      6 H          -0.9979    0.3648   20.4963 H       1  UNL1        0.1564
      7 C           1.0978    0.3190   21.0457 C.ar    1  UNL1        0.0514
      8 C           2.0133   -0.1904   19.9721 C.ar    1  UNL1        0.0178
      9 C           3.3293   -0.8092   20.3400 C.ar    1  UNL1        0.0383
     10 C           3.7298   -0.9185   21.7814 C.ar    1  UNL1       -0.0008
     11 C           2.8144   -0.4091   22.8549 C.ar    1  UNL1       -0.0166
     12 C           1.4984    0.2097   22.4871 C.ar    1  UNL1        0.0108
     13 C           4.2446   -1.3186   19.2664 C.ar    1  UNL1        0.1839
     14 N           5.1057   -0.4787   18.3701 N.ar    1  UNL1       -0.1081
     15 N           5.8529   -1.3983   17.4504 N.ar    1  UNL1       -0.0227
     16 N           5.4538   -2.8067   17.7783 N.ar    1  UNL1       -0.0429
     17 N           4.4598   -2.7573   18.9007 N.ar    1  UNL1       -0.2113
     18 C           3.7974   -3.9392   19.5443 C.3     1  UNL1        0.1573
     19 C           3.2150   -0.5184   24.2963 C.3     1  UNL1        0.0509
     20 C           2.1973    0.5224   24.6581 C.3     1  UNL1        0.0100
     21 C           4.2327   -1.5593   23.9345 C.3     1  UNL1        0.0100
     22 C           3.6156   -0.6278   25.7377 C.2     1  UNL1        0.0534
     23 O           3.0522    0.3279   26.7472 O.co2   1  UNL1       -0.5489
     24 O           4.5796   -1.6929   26.1695 O.co2   1  UNL1       -0.5489
     25 C          -1.5905    5.2307   18.8110 C.3     1  UNL1        0.0214
     26 C          -1.7900    4.5400   20.1274 C.3     1  UNL1        0.0745
     27 C          -2.1175    5.3411   21.3527 C.3     1  UNL1        0.0369
     28 C          -3.3402    5.0143   22.1577 C.3     1  UNL1        0.0738
     29 N          -3.2000    4.5113   23.5640 N.3     1  UNL1       -0.2726
     30 C          -4.1779    4.9434   24.6160 C.3     1  UNL1        0.0721
     31 C          -4.0377    4.4405   26.0222 C.3     1  UNL1        0.0174
     32 C          -2.9195    3.5055   26.3763 C.3     1  UNL1        0.0031
     33 C          -1.9416    3.0733   25.3242 C.3     1  UNL1        0.0204
     34 C          -2.0818    3.5763   23.9181 C.3     1  UNL1        0.0724
     35 C          -0.8234    2.1383   25.6783 C.3     1  UNL1        0.0277
     36 C          -0.3846    2.0006   27.1060 C.ar    1  UNL1       -0.0220
     37 C          -0.8437    0.8288   27.9222 C.ar    1  UNL1       -0.0020
     38 C          -0.4049    0.6911   29.3499 C.ar    1  UNL1        0.0293
     39 C           0.4932    1.7253   29.9615 C.ar    1  UNL1        0.1401
     40 F           0.9320    1.5876   31.3893 F       1  UNL1       -0.2042
     41 C           0.9523    2.8970   29.1455 C.ar    1  UNL1        0.0293
     42 C           0.5135    3.0348   27.7177 C.ar    1  UNL1       -0.0020
@<TRIPOS>UNITY_ATOM_ATTR
23 1
charge -1
@<TRIPOS>BOND
     1    26    25    1
     2    26    27    1
     3    27    28    1
     4    28    29    1
     5    29    30    1
     6    30    31    1
     7    31    32    1
     8    32    33    1
     9    33    35    1
    10    35    36    1
    11    36    37   ar
    12    37    38   ar
    13    38    39   ar
    14    39    40    1
    15    39    41   ar
    16    41    42   ar
    17    33    34    1
    18    26     1    1
    19     1     2   am
    20     2     3    2
    21     2     4   am
    22     4     7    1
    23     7     8   ar
    24     8     9   ar
    25     9    13    1
    26    13    14   ar
    27    14    15   ar
    28    15    16   ar
    29    16    17   ar
    30    17    18    1
    31     9    10   ar
    32    10    11   ar
    33    11    19    1
    34    19    20    1
    35    19    21    1
    36    19    22    1
    37    22    23   ar
    38    22    24   ar
    39    11    12   ar
    40    34    29    1
    41    12     7   ar
    42    42    36   ar
    43    17    13   ar
    44     1     5    1
    45     4     6    1
@<TRIPOS>MOLECULE
*****
 42 45 0 0 0
SMALL
GASTEIGER

@<TRIPOS>ATOM
      1 N           4.1523    0.2438   27.0347 N.am    1  UNL1       -0.2903
      2 C           3.8920    0.3451   25.5610 C.2     1  UNL1        0.3044
      3 O           4.5143    1.4530   24.7640 O.2     1  UNL1       -0.2525
      4 N           3.0095   -0.6615   24.8843 N.am    1  UNL1       -0.2683
      5 H           3.7439   -0.4833   27.5579 H       1  UNL1        0.1509
      6 H           2.6011   -1.3886   25.4075 H       1  UNL1        0.1564
      7 C           2.7492   -0.5602   23.4106 C.ar    1  UNL1        0.0514
      8 C           3.4857   -1.4525   22.4558 C.ar    1  UNL1        0.0178
      9 C           3.2254   -1.3512   20.9821 C.ar    1  UNL1        0.0383
     10 C           2.2288   -0.3576   20.4630 C.ar    1  UNL1       -0.0008
     11 C           1.4923    0.5347   21.4177 C.ar    1  UNL1       -0.0166
     12 C           1.7526    0.4334   22.8915 C.ar    1  UNL1        0.0108
     13 C           3.9619   -2.2434   20.0274 C.ar    1  UNL1        0.1839
     14 N           3.6450   -3.6816   19.7417 N.ar    1  UNL1       -0.1081
     15 N           4.6317   -4.1813   18.7285 N.ar    1  UNL1       -0.0227
     16 N           5.5585   -3.0520   18.3879 N.ar    1  UNL1       -0.0429
     17 N           5.1445   -1.8544   19.1907 N.ar    1  UNL1       -0.2113
     18 C           5.7983   -0.5047   19.1618 C.3     1  UNL1        0.1573
     19 C           0.4956    1.5283   20.8986 C.3     1  UNL1        0.0509
     20 C           0.3246    2.0799   22.2830 C.3     1  UNL1        0.0100
     21 C           0.6667    0.9767   19.5143 C.3     1  UNL1        0.0100
     22 C          -0.5010    2.5219   20.3796 C.2     1  UNL1        0.0534
     23 O          -1.9225    2.4772   20.8563 O.co2   1  UNL1       -0.5489
     24 O          -0.0762    3.5601   19.3837 O.co2   1  UNL1       -0.5489
     25 C           6.5264    1.1308   27.6066 C.3     1  UNL1        0.0214
     26 C           5.0348    1.2504   27.7114 C.3     1  UNL1        0.0745
     27 C           4.4258    2.3766   28.4931 C.3     1  UNL1        0.0369
     28 C           3.1907    2.1401   29.3107 C.3     1  UNL1        0.0738
     29 N           1.8868    1.8433   28.6311 N.3     1  UNL1       -0.2726
     30 C           1.1020    0.6237   29.0140 C.3     1  UNL1        0.0721
     31 C          -0.2019    0.3270   28.3344 C.3     1  UNL1        0.0174
     32 C          -0.7209    1.2499   27.2719 C.3     1  UNL1        0.0031
     33 C           0.0638    2.4695   26.8890 C.3     1  UNL1        0.0204
     34 C           1.3677    2.7662   27.5686 C.3     1  UNL1        0.0724
     35 C          -0.4553    3.3923   25.8266 C.3     1  UNL1        0.0277
     36 C          -1.9335    3.5531   25.6296 C.ar    1  UNL1       -0.0220
     37 C          -2.5423    3.3017   24.2819 C.ar    1  UNL1       -0.0020
     38 C          -4.0206    3.4625   24.0849 C.ar    1  UNL1        0.0293
     39 C          -4.8901    3.8746   25.2355 C.ar    1  UNL1        0.1401
     40 F          -6.3684    4.0354   25.0385 F       1  UNL1       -0.2042
     41 C          -4.2814    4.1260   26.5832 C.ar    1  UNL1        0.0293
     42 C          -2.8031    3.9653   26.7802 C.ar    1  UNL1       -0.0020
@<TRIPOS>UNITY_ATOM_ATTR
23 1
charge -1
@<TRIPOS>BOND
     1    26    25    1
     2    26    27    1
     3    27    28    1
     4    28    29    1
     5    29    30    1
     6    30    31    1
     7    31    32    1
     8    32    33    1
     9    33    35    1
    10    35    36    1
    11    36    37   ar
    12    37    38   ar
    13    38    39   ar
    14    39    40    1
    15    39    41   ar
    16    41    42   ar
    17    33    34    1
    18    26     1    1
    19     1     2   am
    20     2     3    2
    21     2     4   am
    22     4     7    1
    23     7     8   ar
    24     8     9   ar
    25     9    13    1
    26    13    14   ar
    27    14    15   ar
    28    15    16   ar
    29    16    17   ar
    30    17    18    1
    31     9    10   ar
    32    10    11   ar
    33    11    19    1
    34    19    20    1
    35    19    21    1
    36    19    22    1
    37    22    23   ar
    38    22    24   ar
    39    11    12   ar
    40    34    29    1
    41    12     7   ar
    42    42    36   ar
    43    17    13   ar
    44     1     5    1
    45     4     6    1
@<TRIPOS>MOLECULE
*****
 42 45 0 0 0
SMALL
GASTEIGER

@<TRIPOS>ATOM
      1 N           4.4071   -0.2072   27.6036 N.am    1  UNL1       -0.2903
      2 C           4.1298   -0.0243   26.1408 C.2     1  UNL1        0.3044
      3 O           4.4835    1.2680   25.4663 O.2     1  UNL1       -0.2525
      4 N           3.4990   -1.1336   25.3526 N.am    1  UNL1       -0.2683
      5 H           4.1750   -1.0553   28.0463 H       1  UNL1        0.1509
      6 H           3.2669   -1.9818   25.7953 H       1  UNL1        0.1564
      7 C           3.2217   -0.9508   23.8899 C.ar    1  UNL1        0.0514
      8 C           2.2255    0.0756   23.4379 C.ar    1  UNL1        0.0178
      9 C           1.9482    0.2585   21.9752 C.ar    1  UNL1        0.0383
     10 C           2.6671   -0.5850   20.9644 C.ar    1  UNL1       -0.0008
     11 C           3.6632   -1.6113   21.4163 C.ar    1  UNL1       -0.0166
     12 C           3.9405   -1.7942   22.8791 C.ar    1  UNL1        0.0108
     13 C           0.9521    1.2849   21.5233 C.ar    1  UNL1        0.1839
     14 N          -0.3590    1.0048   20.8504 N.ar    1  UNL1       -0.1081
     15 N          -1.0293    2.3183   20.5761 N.ar    1  UNL1       -0.0227
     16 N          -0.1325    3.4104   21.0795 N.ar    1  UNL1       -0.0429
     17 N           1.0921    2.7716   21.6649 N.ar    1  UNL1       -0.2113
     18 C           2.2527    3.4930   22.2833 C.3     1  UNL1        0.1573
     19 C           4.3821   -2.4548   20.4054 C.3     1  UNL1        0.0509
     20 C           5.5872   -2.4969   21.2975 C.3     1  UNL1        0.0100
     21 C           3.1769   -2.4128   19.5133 C.3     1  UNL1        0.0100
     22 C           5.1009   -3.2983   19.3946 C.2     1  UNL1        0.0534
     23 O           5.2962   -2.7905   17.9968 O.co2   1  UNL1       -0.5489
     24 O           5.6246   -4.6496   19.7817 O.co2   1  UNL1       -0.5489
     25 C           6.5156    1.1427   28.2979 C.3     1  UNL1        0.0214
     26 C           5.0380    0.9022   28.3918 C.3     1  UNL1        0.0745
     27 C           4.1912    1.7711   29.2739 C.3     1  UNL1        0.0369
     28 C           2.9609    1.2088   29.9221 C.3     1  UNL1        0.0738
     29 N           1.6551    1.2142   29.1839 N.3     1  UNL1       -0.2726
     30 C           0.8000   -0.0180   29.1636 C.3     1  UNL1        0.0721
     31 C          -0.5058   -0.0126   28.4254 C.3     1  UNL1        0.0174
     32 C          -0.9564    1.2250   27.7075 C.3     1  UNL1        0.0031
     33 C          -0.1012    2.4571   27.7277 C.3     1  UNL1        0.0204
     34 C           1.2045    2.4517   28.4659 C.3     1  UNL1        0.0724
     35 C          -0.5518    3.6947   27.0098 C.3     1  UNL1        0.0277
     36 C          -1.7814    3.6581   26.1516 C.ar    1  UNL1       -0.0220
     37 C          -3.1345    3.8454   26.7714 C.ar    1  UNL1       -0.0020
     38 C          -4.3642    3.8088   25.9132 C.ar    1  UNL1        0.0293
     39 C          -4.2408    3.5851   24.4351 C.ar    1  UNL1        0.1401
     40 F          -5.4706    3.5486   23.5769 F       1  UNL1       -0.2042
     41 C          -2.8878    3.3979   23.8152 C.ar    1  UNL1        0.0293
     42 C          -1.6581    3.4344   24.6735 C.ar    1  UNL1       -0.0020
@<TRIPOS>UNITY_ATOM_ATTR
23 1
charge -1
@<TRIPOS>BOND
     1    26    25    1
     2    26    27    1
     3    27    28    1
     4    28    29    1
     5    29    30    1
     6    30    31    1
     7    31    32    1
     8    32    33    1
     9    33    35    1
    10    35    36    1
    11    36    37   ar
    12    37    38   ar
    13    38    39   ar
    14    39    40    1
    15    39    41   ar
    16    41    42   ar
    17    33    34    1
    18    26     1    1
    19     1     2   am
    20     2     3    2
    21     2     4   am
    22     4     7    1
    23     7     8   ar
    24     8     9   ar
    25     9    13    1
    26    13    14   ar
    27    14    15   ar
    28    15    16   ar
    29    16    17   ar
    30    17    18    1
    31     9    10   ar
    32    10    11   ar
    33    11    19    1
    34    19    20    1
    35    19    21    1
    36    19    22    1
    37    22    23   ar
    38    22    24   ar
    39    11    12   ar
    40    34    29    1
    41    12     7   ar
    42    42    36   ar
    43    17    13   ar
    44     1     5    1
    45     4     6    1
@<TRIPOS>MOLECULE
*****
 42 45 0 0 0
SMALL
GASTEIGER

@<TRIPOS>ATOM
      1 N           1.8875   -0.6184   28.2050 N.am    1  UNL1       -0.2903
      2 C           1.3321    0.5813   27.4965 C.2     1  UNL1        0.3044
      3 O           2.1520    1.8323   27.3843 O.2     1  UNL1       -0.2525
      4 N          -0.0433    0.5301   26.9002 N.am    1  UNL1       -0.2683
      5 H           1.3494   -1.4395   28.2787 H       1  UNL1        0.1509
      6 H          -0.5815   -0.2910   26.9738 H       1  UNL1        0.1564
      7 C          -0.5988    1.7298   26.1917 C.ar    1  UNL1        0.0514
      8 C          -1.6542    2.5679   26.8503 C.ar    1  UNL1        0.0178
      9 C          -2.2097    3.7676   26.1418 C.ar    1  UNL1        0.0383
     10 C          -1.7098    4.1294   24.7746 C.ar    1  UNL1       -0.0008
     11 C          -0.6544    3.2914   24.1159 C.ar    1  UNL1       -0.0166
     12 C          -0.0989    2.0916   24.8245 C.ar    1  UNL1        0.0108
     13 C          -3.2650    4.6056   26.8005 C.ar    1  UNL1        0.1839
     14 N          -4.7351    4.3085   26.8311 N.ar    1  UNL1       -0.1081
     15 N          -5.4143    5.4071   27.5938 N.ar    1  UNL1       -0.0227
     16 N          -4.3641    6.3833   28.0345 N.ar    1  UNL1       -0.0429
     17 N          -3.0358    5.8880   27.5442 N.ar    1  UNL1       -0.2113
     18 C          -1.7109    6.5574   27.7598 C.3     1  UNL1        0.1573
     19 C          -0.1545    3.6531   22.7487 C.3     1  UNL1        0.0509
     20 C           1.1687    4.0454   23.3364 C.3     1  UNL1        0.0100
     21 C          -1.4777    3.2608   22.1611 C.3     1  UNL1        0.0100
     22 C           0.3454    4.0149   21.3815 C.2     1  UNL1        0.0534
     23 O          -0.5856    3.9699   20.2064 O.co2   1  UNL1       -0.5489
     24 O           1.7765    4.4215   21.1896 O.co2   1  UNL1       -0.5489
     25 C           3.4574   -0.0469   30.1947 C.3     1  UNL1        0.0214
     26 C           3.2629   -0.5672   28.8014 C.3     1  UNL1        0.0745
     27 C           4.4440   -1.0362   28.0043 C.3     1  UNL1        0.0369
     28 C           4.2650   -1.4585   26.5761 C.3     1  UNL1        0.0738
     29 N           4.1506   -0.4233   25.4966 N.3     1  UNL1       -0.2726
     30 C           5.0908    0.7452   25.4753 C.3     1  UNL1        0.0721
     31 C           4.9764    1.7803   24.3958 C.3     1  UNL1        0.0174
     32 C           3.9218    1.6469   23.3376 C.3     1  UNL1        0.0031
     33 C           2.9815    0.4784   23.3588 C.3     1  UNL1        0.0204
     34 C           3.0959   -0.5567   24.4383 C.3     1  UNL1        0.0724
     35 C           1.9269    0.3450   22.3005 C.3     1  UNL1        0.0277
     36 C           2.3221    0.0992   20.8746 C.ar    1  UNL1       -0.0220
     37 C           1.9236    1.0748   19.8070 C.ar    1  UNL1       -0.0020
     38 C           2.3188    0.8290   18.3811 C.ar    1  UNL1        0.0293
     39 C           3.1125   -0.3923   18.0226 C.ar    1  UNL1        0.1401
     40 F           3.5077   -0.6381   16.5966 F       1  UNL1       -0.2042
     41 C           3.5110   -1.3678   19.0901 C.ar    1  UNL1        0.0293
     42 C           3.1158   -1.1220   20.5162 C.ar    1  UNL1       -0.0020
@<TRIPOS>UNITY_ATOM_ATTR
23 1
charge -1
@<TRIPOS>BOND
     1    26    25    1
     2    26    27    1
     3    27    28    1
     4    28    29    1
     5    29    30    1
     6    30    31    1
     7    31    32    1
     8    32    33    1
     9    33    35    1
    10    35    36    1
    11    36    37   ar
    12    37    38   ar
    13    38    39   ar
    14    39    40    1
    15    39    41   ar
    16    41    42   ar
    17    33    34    1
    18    26     1    1
    19     1     2   am
    20     2     3    2
    21     2     4   am
    22     4     7    1
    23     7     8   ar
    24     8     9   ar
    25     9    13    1
    26    13    14   ar
    27    14    15   ar
    28    15    16   ar
    29    16    17   ar
    30    17    18    1
    31     9    10   ar
    32    10    11   ar
    33    11    19    1
    34    19    20    1
    35    19    21    1
    36    19    22    1
    37    22    23   ar
    38    22    24   ar
    39    11    12   ar
    40    34    29    1
    41    12     7   ar
    42    42    36   ar
    43    17    13   ar
    44     1     5    1
    45     4     6    1
@<TRIPOS>MOLECULE
*****
 42 45 0 0 0
SMALL
GASTEIGER

@<TRIPOS>ATOM
      1 N          -0.1986    0.9112   25.9769 N.am    1  UNL1       -0.2903
      2 C           0.5598    1.1463   27.2494 C.2     1  UNL1        0.3044
      3 O           1.3580    2.4040   27.4253 O.2     1  UNL1       -0.2525
      4 N           0.5200    0.1237   28.3461 N.am    1  UNL1       -0.2683
      5 H          -0.7225    0.0857   25.8614 H       1  UNL1        0.1509
      6 H          -0.0039   -0.7018   28.2307 H       1  UNL1        0.1564
      7 C           1.2784    0.3588   29.6187 C.ar    1  UNL1        0.0514
      8 C           2.3391   -0.6103   30.0497 C.ar    1  UNL1        0.0178
      9 C           3.0974   -0.3752   31.3223 C.ar    1  UNL1        0.0383
     10 C           2.7952    0.8291   32.1640 C.ar    1  UNL1       -0.0008
     11 C           1.7346    1.7982   31.7330 C.ar    1  UNL1       -0.0166
     12 C           0.9761    1.5631   30.4604 C.ar    1  UNL1        0.0108
     13 C           4.1581   -1.3444   31.7533 C.ar    1  UNL1        0.1839
     14 N           4.0342   -2.3545   32.8553 N.ar    1  UNL1       -0.1081
     15 N           5.3284   -3.1080   32.9410 N.ar    1  UNL1       -0.0227
     16 N           6.2521   -2.5637   31.8920 N.ar    1  UNL1       -0.0429
     17 N           5.5288   -1.4737   31.1579 N.ar    1  UNL1       -0.2113
     18 C           6.0795   -0.6565   30.0270 C.3     1  UNL1        0.1573
     19 C           1.4323    3.0025   32.5746 C.3     1  UNL1        0.0509
     20 C           0.2112    3.2744   31.7471 C.3     1  UNL1        0.0100
     21 C           2.6535    2.7306   33.4022 C.3     1  UNL1        0.0100
     22 C           1.1301    4.2068   33.4163 C.2     1  UNL1        0.0534
     23 O           1.3928    4.1750   34.8927 O.co2   1  UNL1       -0.5489
     24 O           0.5651    5.4429   32.7814 O.co2   1  UNL1       -0.5489
     25 C          -0.8482    3.2537   25.0601 C.3     1  UNL1        0.0214
     26 C          -0.1588    1.9338   24.8802 C.3     1  UNL1        0.0745
     27 C           0.5705    1.6364   23.6035 C.3     1  UNL1        0.0369
     28 C           0.0890    2.2242   22.3103 C.3     1  UNL1        0.0738
     29 N           0.7729    1.8677   21.0237 N.3     1  UNL1       -0.2726
     30 C           0.0986    2.1475   19.7133 C.3     1  UNL1        0.0721
     31 C           0.7825    1.7910   18.4268 C.3     1  UNL1        0.0174
     32 C           2.1406    1.1547   18.4506 C.3     1  UNL1        0.0031
     33 C           2.8149    0.8749   19.7610 C.3     1  UNL1        0.0204
     34 C           2.1310    1.2314   21.0475 C.3     1  UNL1        0.0724
     35 C           4.1730    0.2386   19.7848 C.3     1  UNL1        0.0277
     36 C           4.3300   -1.2081   19.4207 C.ar    1  UNL1       -0.0220
     37 C           5.5728   -1.6753   18.7228 C.ar    1  UNL1       -0.0020
     38 C           5.7298   -3.1219   18.3587 C.ar    1  UNL1        0.0293
     39 C           4.6439   -4.1014   18.6926 C.ar    1  UNL1        0.1401
     40 F           4.8010   -5.5481   18.3286 F       1  UNL1       -0.2042
     41 C           3.4011   -3.6343   19.3906 C.ar    1  UNL1        0.0293
     42 C           3.2441   -2.1876   19.7547 C.ar    1  UNL1       -0.0020
@<TRIPOS>UNITY_ATOM_ATTR
23 1
charge -1
@<TRIPOS>BOND
     1    26    25    1
     2    26    27    1
     3    27    28    1
     4    28    29    1
     5    29    30    1
     6    30    31    1
     7    31    32    1
     8    32    33    1
     9    33    35    1
    10    35    36    1
    11    36    37   ar
    12    37    38   ar
    13    38    39   ar
    14    39    40    1
    15    39    41   ar
    16    41    42   ar
    17    33    34    1
    18    26     1    1
    19     1     2   am
    20     2     3    2
    21     2     4   am
    22     4     7    1
    23     7     8   ar
    24     8     9   ar
    25     9    13    1
    26    13    14   ar
    27    14    15   ar
    28    15    16   ar
    29    16    17   ar
    30    17    18    1
    31     9    10   ar
    32    10    11   ar
    33    11    19    1
    34    19    20    1
    35    19    21    1
    36    19    22    1
    37    22    23   ar
    38    22    24   ar
    39    11    12   ar
    40    34    29    1
    41    12     7   ar
    42    42    36   ar
    43    17    13   ar
    44     1     5    1
    45     4     6    1
