@<TRIPOS>MOLECULE
*****
 26 27 0 0 0
SMALL
GASTEIGER

@<TRIPOS>ATOM
      1 C          -5.4314  -16.8492   23.5814 C.ar    1  UNL1        0.2297
      2 C          -6.1388  -15.7589   24.3304 C.ar    1  UNL1        0.0581
      3 C          -7.6065  -15.5337   24.1183 C.ar    1  UNL1        0.0063
      4 C          -8.3669  -16.3987   23.1573 C.ar    1  UNL1        0.0191
      5 C          -7.6595  -17.4889   22.4083 C.ar    1  UNL1        0.1020
      6 N          -6.1917  -17.7142   22.6204 N.ar    1  UNL1       -0.2098
      7 C          -9.8347  -16.1734   22.9452 C.2     1  UNL1       -0.0014
      8 C         -10.4795  -16.5931   21.6575 C.2     1  UNL1       -0.0069
      9 C         -11.9472  -16.3679   21.4454 C.3     1  UNL1        0.0939
     10 C         -12.4540  -15.9432   20.0990 C.3     1  UNL1        0.0262
     11 N         -12.9082  -16.5673   22.5798 N.am    1  UNL1       -0.3022
     12 C         -12.9727  -17.8900   23.2843 C.2     1  UNL1        0.2232
     13 C         -13.9337  -18.0895   24.4186 C.3     1  UNL1        0.0946
     14 O         -12.0763  -19.0133   22.8545 O.2     1  UNL1       -0.2751
     15 H         -13.4966  -15.8301   22.8619 H       1  UNL1        0.1497
     16 O          -3.9637  -17.0744   23.7935 O.3     1  UNL1       -0.4352
     17 C          -1.2834  -17.9054   20.2756 C.ar    1  UNL1        0.1396
     18 C          -1.3619  -16.5213   20.8482 C.ar    1  UNL1        0.0401
     19 C          -2.2553  -16.2443   22.0208 C.ar    1  UNL1        0.0415
     20 C          -3.0702  -17.3514   22.6209 C.ar    1  UNL1        0.1578
     21 C          -2.9917  -18.7356   22.0483 C.ar    1  UNL1        0.0952
     22 CL         -3.8067  -19.8428   22.6483 Cl      1  UNL1       -0.0790
     23 C          -2.0983  -19.0126   20.8757 C.ar    1  UNL1        0.0514
     24 O          -0.3899  -18.1825   19.1030 O.3     1  UNL1       -0.4754
     25 C          -2.2478  -17.3569   17.4854 C.3     1  UNL1        0.0512
     26 C          -0.8492  -17.8483   17.7147 C.3     1  UNL1        0.2055
@<TRIPOS>BOND
     1    25    26    1
     2    26    24    1
     3    24    17    1
     4    17    18   ar
     5    18    19   ar
     6    19    20   ar
     7    20    16    1
     8    16     1    1
     9     1     2   ar
    10     2     3   ar
    11     3     4   ar
    12     4     7    1
    13     7     8    2
    14     8     9    1
    15     9    10    1
    16     9    11    1
    17    11    12   am
    18    12    13    1
    19    12    14    2
    20     4     5   ar
    21     5     6   ar
    22    20    21   ar
    23    21    22    1
    24    21    23   ar
    25    23    17   ar
    26     6     1   ar
    27    11    15    1
@<TRIPOS>MOLECULE
*****
 26 27 0 0 0
SMALL
GASTEIGER

@<TRIPOS>ATOM
      1 C          -5.3131  -16.9879   23.6621 C.ar    1  UNL1        0.2297
      2 C          -6.0944  -17.8427   22.7086 C.ar    1  UNL1        0.0581
      3 C          -7.5713  -17.6335   22.5513 C.ar    1  UNL1        0.0063
      4 C          -8.2671  -16.5696   23.3476 C.ar    1  UNL1        0.0191
      5 C          -7.4859  -15.7148   24.3010 C.ar    1  UNL1        0.1020
      6 N          -6.0089  -15.9240   24.4583 N.ar    1  UNL1       -0.2098
      7 C          -9.7441  -16.3604   23.1903 C.2     1  UNL1       -0.0014
      8 C         -10.6318  -17.5165   22.8360 C.2     1  UNL1       -0.0069
      9 C         -12.1088  -17.3074   22.6788 C.3     1  UNL1        0.0939
     10 C         -13.0646  -17.9625   23.6312 C.3     1  UNL1        0.0262
     11 N         -12.6299  -16.4432   21.5690 N.am    1  UNL1       -0.3022
     12 C         -11.9440  -16.4409   20.2350 C.2     1  UNL1        0.2232
     13 C         -12.4651  -15.5767   19.1252 C.3     1  UNL1        0.0946
     14 O         -10.7370  -17.3028   20.0107 O.2     1  UNL1       -0.2751
     15 H         -13.4221  -15.8775   21.7162 H       1  UNL1        0.1497
     16 O          -3.8361  -17.1971   23.8193 O.3     1  UNL1       -0.4352
     17 C          -1.2642  -17.8971   20.1936 C.ar    1  UNL1        0.1396
     18 C          -1.3481  -16.5280   20.8006 C.ar    1  UNL1        0.0401
     19 C          -2.2054  -16.2947   22.0092 C.ar    1  UNL1        0.0415
     20 C          -2.9788  -17.4304   22.6107 C.ar    1  UNL1        0.1578
     21 C          -2.8949  -18.7995   22.0037 C.ar    1  UNL1        0.0952
     22 CL         -3.6683  -19.9354   22.6053 Cl      1  UNL1       -0.0790
     23 C          -2.0376  -19.0329   20.7952 C.ar    1  UNL1        0.0514
     24 O          -0.4069  -18.1304   18.9851 O.3     1  UNL1       -0.4754
     25 C          -2.3418  -17.3159   17.4545 C.3     1  UNL1        0.0512
     26 C          -0.9385  -17.8201   17.6172 C.3     1  UNL1        0.2055
@<TRIPOS>BOND
     1    25    26    1
     2    26    24    1
     3    24    17    1
     4    17    18   ar
     5    18    19   ar
     6    19    20   ar
     7    20    16    1
     8    16     1    1
     9     1     2   ar
    10     2     3   ar
    11     3     4   ar
    12     4     7    1
    13     7     8    2
    14     8     9    1
    15     9    10    1
    16     9    11    1
    17    11    12   am
    18    12    13    1
    19    12    14    2
    20     4     5   ar
    21     5     6   ar
    22    20    21   ar
    23    21    22    1
    24    21    23   ar
    25    23    17   ar
    26     6     1   ar
    27    11    15    1
@<TRIPOS>MOLECULE
*****
 26 27 0 0 0
SMALL
GASTEIGER

@<TRIPOS>ATOM
      1 C          -0.5523    2.6338   20.0003 C.ar    1  UNL1        0.2297
      2 C           0.5489    2.9397   19.0287 C.ar    1  UNL1        0.0581
      3 C           1.6066    1.9142   18.7466 C.ar    1  UNL1        0.0063
      4 C           1.5631    0.5828   19.4360 C.ar    1  UNL1        0.0191
      5 C           0.4621    0.2768   20.4076 C.ar    1  UNL1        0.1020
      6 N          -0.5957    1.3023   20.6897 N.ar    1  UNL1       -0.2098
      7 C           2.6209   -0.4428   19.1539 C.2     1  UNL1       -0.0014
      8 C           2.6392   -1.7319   19.9206 C.2     1  UNL1       -0.0069
      9 C           3.6968   -2.7574   19.6385 C.3     1  UNL1        0.0939
     10 C           3.3058   -4.1343   19.1900 C.3     1  UNL1        0.0262
     11 N           5.1455   -2.4059   19.8050 N.am    1  UNL1       -0.3022
     12 C           5.9574   -1.9877   18.6150 C.2     1  UNL1        0.2232
     13 C           7.4061   -1.6363   18.7815 C.3     1  UNL1        0.0946
     14 O           5.3205   -1.9210   17.2586 O.2     1  UNL1       -0.2751
     15 H           5.5635   -2.4498   20.6953 H       1  UNL1        0.1497
     16 O          -1.6100    3.6593   20.2824 O.3     1  UNL1       -0.4352
     17 C          -3.9958    3.4419   24.0916 C.ar    1  UNL1        0.1396
     18 C          -2.5169    3.6867   24.1459 C.ar    1  UNL1        0.0401
     19 C          -1.7216    3.7591   22.8761 C.ar    1  UNL1        0.0415
     20 C          -2.4052    3.5868   21.5521 C.ar    1  UNL1        0.1578
     21 C          -3.8841    3.3421   21.4979 C.ar    1  UNL1        0.0952
     22 CL         -4.5678    3.1698   20.1739 Cl      1  UNL1       -0.0790
     23 C          -4.6794    3.2696   22.7677 C.ar    1  UNL1        0.0514
     24 O          -4.7910    3.3694   25.3614 O.3     1  UNL1       -0.4754
     25 C          -4.9173    5.3059   27.0888 C.3     1  UNL1        0.0512
     26 C          -4.2816    4.0365   26.6045 C.3     1  UNL1        0.2055
@<TRIPOS>BOND
     1    25    26    1
     2    26    24    1
     3    24    17    1
     4    17    18   ar
     5    18    19   ar
     6    19    20   ar
     7    20    16    1
     8    16     1    1
     9     1     2   ar
    10     2     3   ar
    11     3     4   ar
    12     4     7    1
    13     7     8    2
    14     8     9    1
    15     9    10    1
    16     9    11    1
    17    11    12   am
    18    12    13    1
    19    12    14    2
    20     4     5   ar
    21     5     6   ar
    22    20    21   ar
    23    21    22    1
    24    21    23   ar
    25    23    17   ar
    26     6     1   ar
    27    11    15    1
@<TRIPOS>MOLECULE
*****
 26 27 0 0 0
SMALL
GASTEIGER

@<TRIPOS>ATOM
      1 C          -0.5757    2.6444   19.9350 C.ar    1  UNL1        0.2297
      2 C           0.5377    3.0025   18.9957 C.ar    1  UNL1        0.0581
      3 C           1.6572    2.0336   18.7554 C.ar    1  UNL1        0.0063
      4 C           1.6634    0.7065   19.4545 C.ar    1  UNL1        0.0191
      5 C           0.5502    0.3483   20.3937 C.ar    1  UNL1        0.1020
      6 N          -0.5694    1.3172   20.6340 N.ar    1  UNL1       -0.2098
      7 C           2.7831   -0.2625   19.2142 C.2     1  UNL1       -0.0014
      8 C           3.6021   -0.1665   17.9612 C.2     1  UNL1       -0.0069
      9 C           4.7216   -1.1354   17.7209 C.3     1  UNL1        0.0939
     10 C           6.1168   -0.6300   17.5017 C.3     1  UNL1        0.0262
     11 N           4.4460   -2.6096   17.6998 N.am    1  UNL1       -0.3022
     12 C           4.7064   -3.4389   18.9224 C.2     1  UNL1        0.2232
     13 C           4.4308   -4.9132   18.9013 C.3     1  UNL1        0.0946
     14 O           5.2424   -2.7938   20.1660 O.2     1  UNL1       -0.2751
     15 H           4.0942   -3.0330   16.8836 H       1  UNL1        0.1497
     16 O          -1.6952    3.6133   20.1752 O.3     1  UNL1       -0.4352
     17 C          -4.0415    3.4346   24.0110 C.ar    1  UNL1        0.1396
     18 C          -2.5589    3.6592   24.0484 C.ar    1  UNL1        0.0401
     19 C          -1.7768    3.7187   22.7698 C.ar    1  UNL1        0.0415
     20 C          -2.4773    3.5537   21.4538 C.ar    1  UNL1        0.1578
     21 C          -3.9599    3.3292   21.4163 C.ar    1  UNL1        0.0952
     22 CL         -4.6605    3.1642   20.1002 Cl      1  UNL1       -0.0790
     23 C          -4.7420    3.2696   22.6949 C.ar    1  UNL1        0.0514
     24 O          -4.8236    3.3750   25.2896 O.3     1  UNL1       -0.4754
     25 C          -4.8069    5.2683   27.0686 C.3     1  UNL1        0.0512
     26 C          -4.2586    3.9749   26.5429 C.3     1  UNL1        0.2055
@<TRIPOS>BOND
     1    25    26    1
     2    26    24    1
     3    24    17    1
     4    17    18   ar
     5    18    19   ar
     6    19    20   ar
     7    20    16    1
     8    16     1    1
     9     1     2   ar
    10     2     3   ar
    11     3     4   ar
    12     4     7    1
    13     7     8    2
    14     8     9    1
    15     9    10    1
    16     9    11    1
    17    11    12   am
    18    12    13    1
    19    12    14    2
    20     4     5   ar
    21     5     6   ar
    22    20    21   ar
    23    21    22    1
    24    21    23   ar
    25    23    17   ar
    26     6     1   ar
    27    11    15    1
@<TRIPOS>MOLECULE
*****
 26 27 0 0 0
SMALL
GASTEIGER

@<TRIPOS>ATOM
      1 C          -0.3037    2.5348   19.7675 C.ar    1  UNL1        0.2297
      2 C           0.4747    2.1824   18.5346 C.ar    1  UNL1        0.0581
      3 C           1.2663    0.9093   18.4858 C.ar    1  UNL1        0.0063
      4 C           1.2795   -0.0116   19.6697 C.ar    1  UNL1        0.0191
      5 C           0.5011    0.3407   20.9026 C.ar    1  UNL1        0.1020
      6 N          -0.2906    1.6139   20.9515 N.ar    1  UNL1       -0.2098
      7 C           2.0711   -1.2848   19.6208 C.2     1  UNL1       -0.0014
      8 C           3.5700   -1.2353   19.5913 C.2     1  UNL1       -0.0069
      9 C           4.3617   -2.5084   19.5424 C.3     1  UNL1        0.0939
     10 C           3.6894   -3.7957   19.1668 C.3     1  UNL1        0.0262
     11 N           5.8256   -2.4943   19.8691 N.am    1  UNL1       -0.3022
     12 C           6.8371   -2.3332   18.7732 C.2     1  UNL1        0.2232
     13 C           8.3010   -2.3190   19.0999 C.3     1  UNL1        0.0946
     14 O           6.3846   -2.1862   17.3506 O.2     1  UNL1       -0.2751
     15 H           6.1225   -2.5907   20.8028 H       1  UNL1        0.1497
     16 O          -1.0953    3.8079   19.8164 O.3     1  UNL1       -0.4352
     17 C          -5.4641    3.7839   18.7380 C.ar    1  UNL1        0.1396
     18 C          -4.4278    3.9441   17.6656 C.ar    1  UNL1        0.0401
     19 C          -2.9715    3.9521   18.0250 C.ar    1  UNL1        0.0415
     20 C          -2.5516    3.7999   19.4569 C.ar    1  UNL1        0.1578
     21 C          -3.5880    3.6397   20.5294 C.ar    1  UNL1        0.0952
     22 CL         -3.1681    3.4875   21.9614 Cl      1  UNL1       -0.0790
     23 C          -5.0442    3.6317   20.1700 C.ar    1  UNL1        0.0514
     24 O          -6.9204    3.7759   18.3786 O.3     1  UNL1       -0.4754
     25 C          -7.8249    6.1620   17.8907 C.3     1  UNL1        0.0512
     26 C          -7.7923    4.9368   18.7554 C.3     1  UNL1        0.2055
@<TRIPOS>BOND
     1    25    26    1
     2    26    24    1
     3    24    17    1
     4    17    18   ar
     5    18    19   ar
     6    19    20   ar
     7    20    16    1
     8    16     1    1
     9     1     2   ar
    10     2     3   ar
    11     3     4   ar
    12     4     7    1
    13     7     8    2
    14     8     9    1
    15     9    10    1
    16     9    11    1
    17    11    12   am
    18    12    13    1
    19    12    14    2
    20     4     5   ar
    21     5     6   ar
    22    20    21   ar
    23    21    22    1
    24    21    23   ar
    25    23    17   ar
    26     6     1   ar
    27    11    15    1
@<TRIPOS>MOLECULE
*****
 26 27 0 0 0
SMALL
GASTEIGER

@<TRIPOS>ATOM
      1 C           0.0257    2.2794   20.0562 C.ar    1  UNL1        0.2297
      2 C           0.2726    1.4277   21.2660 C.ar    1  UNL1        0.0581
      3 C           1.0796    0.1691   21.1452 C.ar    1  UNL1        0.0063
      4 C           1.6398   -0.2378   19.8145 C.ar    1  UNL1        0.0191
      5 C           1.3930    0.6139   18.6047 C.ar    1  UNL1        0.1020
      6 N           0.5859    1.8725   18.7255 N.ar    1  UNL1       -0.2098
      7 C           2.4469   -1.4965   19.6937 C.2     1  UNL1       -0.0014
      8 C           3.9444   -1.4254   19.6451 C.2     1  UNL1       -0.0069
      9 C           4.7515   -2.6839   19.5243 C.3     1  UNL1        0.0939
     10 C           4.0933   -3.9575   19.0828 C.3     1  UNL1        0.0262
     11 N           6.2167   -2.6689   19.8451 N.am    1  UNL1       -0.3022
     12 C           7.2194   -2.4102   18.7599 C.2     1  UNL1        0.2232
     13 C           8.6846   -2.3952   19.0806 C.3     1  UNL1        0.0946
     14 O           6.7569   -2.1664   17.3539 O.2     1  UNL1       -0.2751
     15 H           6.5202   -2.8289   20.7678 H       1  UNL1        0.1497
     16 O          -0.7813    3.5380   20.1770 O.3     1  UNL1       -0.4352
     17 C          -4.6595    3.5137   22.4593 C.ar    1  UNL1        0.1396
     18 C          -4.6436    3.1516   21.0038 C.ar    1  UNL1        0.0401
     19 C          -3.3508    3.1597   20.2430 C.ar    1  UNL1        0.0415
     20 C          -2.0740    3.5299   20.9378 C.ar    1  UNL1        0.1578
     21 C          -2.0900    3.8920   22.3933 C.ar    1  UNL1        0.0952
     22 CL         -0.8132    4.2622   23.0881 Cl      1  UNL1       -0.0790
     23 C          -3.3827    3.8838   23.1541 C.ar    1  UNL1        0.0514
     24 O          -5.9523    3.5055   23.2201 O.3     1  UNL1       -0.4754
     25 C          -8.1343    4.7578   23.8686 C.3     1  UNL1        0.0512
     26 C          -7.0191    4.5091   22.8967 C.3     1  UNL1        0.2055
@<TRIPOS>BOND
     1    25    26    1
     2    26    24    1
     3    24    17    1
     4    17    18   ar
     5    18    19   ar
     6    19    20   ar
     7    20    16    1
     8    16     1    1
     9     1     2   ar
    10     2     3   ar
    11     3     4   ar
    12     4     7    1
    13     7     8    2
    14     8     9    1
    15     9    10    1
    16     9    11    1
    17    11    12   am
    18    12    13    1
    19    12    14    2
    20     4     5   ar
    21     5     6   ar
    22    20    21   ar
    23    21    22    1
    24    21    23   ar
    25    23    17   ar
    26     6     1   ar
    27    11    15    1
@<TRIPOS>MOLECULE
*****
 26 27 0 0 0
SMALL
GASTEIGER

@<TRIPOS>ATOM
      1 C           0.0865    1.5196   21.3510 C.ar    1  UNL1        0.2297
      2 C           1.3484    1.6415   22.1527 C.ar    1  UNL1        0.0581
      3 C           2.4380    0.6226   21.9957 C.ar    1  UNL1        0.0063
      4 C           2.2658   -0.5181   21.0371 C.ar    1  UNL1        0.0191
      5 C           1.0039   -0.6401   20.2354 C.ar    1  UNL1        0.1020
      6 N          -0.0858    0.3788   20.3924 N.ar    1  UNL1       -0.2098
      7 C           3.3555   -1.5370   20.8802 C.2     1  UNL1       -0.0014
      8 C           3.3411   -2.4765   19.7109 C.2     1  UNL1       -0.0069
      9 C           4.4307   -3.4953   19.5540 C.3     1  UNL1        0.0939
     10 C           4.0966   -4.8883   19.1090 C.3     1  UNL1        0.0262
     11 N           5.8544   -3.1211   19.8420 N.am    1  UNL1       -0.3022
     12 C           6.7016   -2.5094   18.7657 C.2     1  UNL1        0.2232
     13 C           8.1253   -2.1353   19.0538 C.3     1  UNL1        0.0946
     14 O           6.1250   -2.2720   17.4015 O.2     1  UNL1       -0.2751
     15 H           6.2329   -3.2770   20.7374 H       1  UNL1        0.1497
     16 O          -1.0032    2.5384   21.5079 O.3     1  UNL1       -0.4352
     17 C          -2.9224    4.3592   17.8677 C.ar    1  UNL1        0.1396
     18 C          -1.4462    4.0934   17.8837 C.ar    1  UNL1        0.0401
     19 C          -0.8065    3.4865   19.0971 C.ar    1  UNL1        0.0415
     20 C          -1.6429    3.1453   20.2945 C.ar    1  UNL1        0.1578
     21 C          -3.1190    3.4111   20.2786 C.ar    1  UNL1        0.0952
     22 CL         -3.9555    3.0700   21.4761 Cl      1  UNL1       -0.0790
     23 C          -3.7588    4.0181   19.0652 C.ar    1  UNL1        0.0514
     24 O          -3.5621    4.9662   16.6543 O.3     1  UNL1       -0.4754
     25 C          -6.0904    5.5421   16.4930 C.3     1  UNL1        0.0512
     26 C          -4.6826    5.9511   16.8106 C.3     1  UNL1        0.2055
@<TRIPOS>BOND
     1    25    26    1
     2    26    24    1
     3    24    17    1
     4    17    18   ar
     5    18    19   ar
     6    19    20   ar
     7    20    16    1
     8    16     1    1
     9     1     2   ar
    10     2     3   ar
    11     3     4   ar
    12     4     7    1
    13     7     8    2
    14     8     9    1
    15     9    10    1
    16     9    11    1
    17    11    12   am
    18    12    13    1
    19    12    14    2
    20     4     5   ar
    21     5     6   ar
    22    20    21   ar
    23    21    22    1
    24    21    23   ar
    25    23    17   ar
    26     6     1   ar
    27    11    15    1
@<TRIPOS>MOLECULE
*****
 26 27 0 0 0
SMALL
GASTEIGER

@<TRIPOS>ATOM
      1 C           7.2965   -3.9529   21.1311 C.ar    1  UNL1        0.2297
      2 C           6.3549   -3.4946   22.2051 C.ar    1  UNL1        0.0581
      3 C           6.4564   -4.0693   23.5869 C.ar    1  UNL1        0.0063
      4 C           7.4995   -5.1022   23.8948 C.ar    1  UNL1        0.0191
      5 C           8.4412   -5.5605   22.8209 C.ar    1  UNL1        0.1020
      6 N           8.3397   -4.9859   21.4390 N.ar    1  UNL1       -0.2098
      7 C           7.6010   -5.6769   25.2767 C.2     1  UNL1       -0.0014
      8 C           7.9634   -7.1204   25.4639 C.2     1  UNL1       -0.0069
      9 C           8.0649   -7.6950   26.8457 C.3     1  UNL1        0.0939
     10 C           8.9882   -8.8466   27.1131 C.3     1  UNL1        0.0262
     11 N           7.2432   -7.1182   27.9600 N.am    1  UNL1       -0.3022
     12 C           7.8509   -6.1211   28.9016 C.2     1  UNL1        0.2232
     13 C           7.0291   -5.5442   30.0160 C.3     1  UNL1        0.0946
     14 O           9.2804   -5.7009   28.7288 O.2     1  UNL1       -0.2751
     15 H           6.3049   -7.3940   28.0735 H       1  UNL1        0.1497
     16 O           7.1950   -3.3782   19.7493 O.3     1  UNL1       -0.4352
     17 C           3.6697   -0.8142   18.6322 C.ar    1  UNL1        0.1396
     18 C           4.9157   -0.1804   19.1760 C.ar    1  UNL1        0.0401
     19 C           6.0908   -1.0351   19.5484 C.ar    1  UNL1        0.0415
     20 C           6.0199   -2.5236   19.3769 C.ar    1  UNL1        0.1578
     21 C           4.7739   -3.1573   18.8331 C.ar    1  UNL1        0.0952
     22 CL          4.7030   -4.6459   18.6615 Cl      1  UNL1       -0.0790
     23 C           3.5988   -2.3027   18.4607 C.ar    1  UNL1        0.0514
     24 O           2.4946    0.0405   18.2598 O.3     1  UNL1       -0.4754
     25 C           1.2762   -0.6145   20.4590 C.3     1  UNL1        0.0512
     26 C           1.3840    0.2587   19.2441 C.3     1  UNL1        0.2055
@<TRIPOS>BOND
     1    25    26    1
     2    26    24    1
     3    24    17    1
     4    17    18   ar
     5    18    19   ar
     6    19    20   ar
     7    20    16    1
     8    16     1    1
     9     1     2   ar
    10     2     3   ar
    11     3     4   ar
    12     4     7    1
    13     7     8    2
    14     8     9    1
    15     9    10    1
    16     9    11    1
    17    11    12   am
    18    12    13    1
    19    12    14    2
    20     4     5   ar
    21     5     6   ar
    22    20    21   ar
    23    21    22    1
    24    21    23   ar
    25    23    17   ar
    26     6     1   ar
    27    11    15    1
@<TRIPOS>MOLECULE
*****
 26 27 0 0 0
SMALL
GASTEIGER

@<TRIPOS>ATOM
      1 C           0.4145    2.4293   19.6652 C.ar    1  UNL1        0.2297
      2 C           0.8065    1.6010   18.4776 C.ar    1  UNL1        0.0581
      3 C           1.6150    0.3520   18.6682 C.ar    1  UNL1        0.0063
      4 C           2.0314   -0.0688   20.0464 C.ar    1  UNL1        0.0191
      5 C           1.6394    0.7593   21.2340 C.ar    1  UNL1        0.1020
      6 N           0.8309    2.0084   21.0434 N.ar    1  UNL1       -0.2098
      7 C           2.8399   -1.3179   20.2369 C.2     1  UNL1       -0.0014
      8 C           3.6305   -1.8813   19.0935 C.2     1  UNL1       -0.0069
      9 C           4.4390   -3.1302   19.2839 C.3     1  UNL1        0.0939
     10 C           3.8409   -4.4674   18.9609 C.3     1  UNL1        0.0262
     11 N           5.8455   -3.0421   19.7975 N.am    1  UNL1       -0.3022
     12 C           6.9548   -2.6243   18.8782 C.2     1  UNL1        0.2232
     13 C           8.3614   -2.5362   19.3918 C.3     1  UNL1        0.0946
     14 O           6.6575   -2.2947   17.4454 O.2     1  UNL1       -0.2751
     15 H           6.0407   -3.2584   20.7379 H       1  UNL1        0.1497
     16 O          -0.3940    3.6782   19.4746 O.3     1  UNL1       -0.4352
     17 C          -4.7779    3.6977   20.4899 C.ar    1  UNL1        0.1396
     18 C          -3.7592    3.4790   21.5689 C.ar    1  UNL1        0.0401
     19 C          -2.2978    3.4726   21.2305 C.ar    1  UNL1        0.0415
     20 C          -1.8553    3.6847   19.8131 C.ar    1  UNL1        0.1578
     21 C          -2.8741    3.9034   18.7341 C.ar    1  UNL1        0.0952
     22 CL         -2.4316    4.1155   17.3166 Cl      1  UNL1       -0.0790
     23 C          -4.3354    3.9098   19.0725 C.ar    1  UNL1        0.0514
     24 O          -6.2392    3.7042   20.8284 O.3     1  UNL1       -0.4754
     25 C          -7.4228    4.3126   23.0597 C.3     1  UNL1        0.0512
     26 C          -6.7867    4.7363   21.7691 C.3     1  UNL1        0.2055
@<TRIPOS>BOND
     1    25    26    1
     2    26    24    1
     3    24    17    1
     4    17    18   ar
     5    18    19   ar
     6    19    20   ar
     7    20    16    1
     8    16     1    1
     9     1     2   ar
    10     2     3   ar
    11     3     4   ar
    12     4     7    1
    13     7     8    2
    14     8     9    1
    15     9    10    1
    16     9    11    1
    17    11    12   am
    18    12    13    1
    19    12    14    2
    20     4     5   ar
    21     5     6   ar
    22    20    21   ar
    23    21    22    1
    24    21    23   ar
    25    23    17   ar
    26     6     1   ar
    27    11    15    1
