@<TRIPOS>MOLECULE
*****
 29 32 0 0 0
SMALL
GASTEIGER

@<TRIPOS>ATOM
      1 C          -4.6658  -16.0907   23.3724 C.ar    1  UNL1        0.2172
      2 N          -5.6771  -17.0481   22.8150 N.ar    1  UNL1       -0.2126
      3 C          -7.0884  -17.0280   23.3228 C.ar    1  UNL1        0.0994
      4 C          -7.4884  -16.0505   24.3878 C.ar    1  UNL1        0.0207
      5 C          -6.4772  -15.0930   24.9452 C.ar    1  UNL1        0.0994
      6 N          -5.0659  -15.1131   24.4375 N.ar    1  UNL1       -0.2126
      7 N          -3.2545  -16.1108   22.8648 N.pl3   1  UNL1       -0.2989
      8 H          -2.8003  -15.2668   22.6398 H       1  UNL1        0.1500
      9 C          -2.5351  -17.4167   22.7000 C.3     1  UNL1        0.1212
     10 C          -2.3506  -18.1824   20.2242 C.ar    1  UNL1        0.2224
     11 N          -2.7433  -19.1211   19.1221 N.ar    1  UNL1       -0.2104
     12 C          -3.7132  -20.2327   19.3937 C.ar    1  UNL1        0.1020
     13 C          -4.2904  -20.4056   20.7673 C.ar    1  UNL1        0.0206
     14 C          -3.8977  -19.4669   21.8694 C.ar    1  UNL1        0.0036
     15 C          -2.9278  -18.3553   21.5978 C.ar    1  UNL1        0.0507
     16 C           0.0948  -17.3231   20.0471 C.3     1  UNL1        0.2542
     17 O          -1.3808  -17.0709   19.9526 O.3     1  UNL1       -0.4563
     18 C          -8.8999  -16.0304   24.8955 C.3     1  UNL1        0.0575
     19 C          -9.8558  -17.1154   24.4969 C.ar    1  UNL1        0.0044
     20 C         -10.2286  -18.3097   25.3243 C.ar    1  UNL1        0.0966
     21 N         -11.2100  -19.1290   24.5397 N.ar    1  UNL1       -0.2273
     22 C         -11.4436  -18.4411   23.2274 C.ar    1  UNL1        0.1402
     23 N         -12.3104  -18.7871   22.0531 N.ar    1  UNL1       -0.3377
     24 C         -12.3402  -17.8886   20.8524 C.ar    1  UNL1        0.0691
     25 C         -11.5032  -16.6441   20.8259 C.ar    1  UNL1       -0.0047
     26 C         -11.5330  -15.7456   19.6251 C.3     1  UNL1        0.0326
     27 C         -10.6365  -16.2981   22.0002 C.ar    1  UNL1       -0.0001
     28 C         -10.6067  -17.1966   23.2009 C.ar    1  UNL1        0.0315
     29 H         -12.8597  -19.6039   22.0704 H       1  UNL1        0.1674
@<TRIPOS>BOND
     1    16    17    1
     2    17    10    1
     3    10    11   ar
     4    11    12   ar
     5    12    13   ar
     6    13    14   ar
     7    14    15   ar
     8    15     9    1
     9     9     7    1
    10     7     1    1
    11     1     2   ar
    12     2     3   ar
    13     3     4   ar
    14     4    18    1
    15    18    19    1
    16    19    20   ar
    17    20    21   ar
    18    21    22   ar
    19    22    23   ar
    20    23    24   ar
    21    24    25   ar
    22    25    26    1
    23    25    27   ar
    24    27    28   ar
    25     4     5   ar
    26     5     6   ar
    27    15    10   ar
    28     6     1   ar
    29    28    19   ar
    30    28    22    1
    31     7     8    1
    32    23    29    1
@<TRIPOS>MOLECULE
*****
 29 32 0 0 0
SMALL
GASTEIGER

@<TRIPOS>ATOM
      1 C          -9.2865  -19.3717   21.7774 C.ar    1  UNL1        0.2172
      2 N          -8.9045  -19.2166   20.3352 N.ar    1  UNL1       -0.2126
      3 C          -7.5678  -19.7011   19.8572 C.ar    1  UNL1        0.0994
      4 C          -6.6132  -20.3408   20.8214 C.ar    1  UNL1        0.0207
      5 C          -6.9953  -20.4959   22.2636 C.ar    1  UNL1        0.0994
      6 N          -8.3319  -20.0114   22.7415 N.ar    1  UNL1       -0.2126
      7 N         -10.6232  -18.8872   22.2554 N.pl3   1  UNL1       -0.2989
      8 H         -11.4482  -19.2998   21.9113 H       1  UNL1        0.1500
      9 C         -10.7030  -17.7742   23.2578 C.3     1  UNL1        0.1212
     10 C          -9.0075  -16.0752   22.2634 C.ar    1  UNL1        0.2224
     11 N          -7.8465  -15.1426   22.4427 N.ar    1  UNL1       -0.2104
     12 C          -7.2199  -14.9762   23.7954 C.ar    1  UNL1        0.1020
     13 C          -7.7545  -15.7425   24.9689 C.ar    1  UNL1        0.0206
     14 C          -8.9155  -16.6751   24.7897 C.ar    1  UNL1        0.0036
     15 C          -9.5420  -16.8415   23.4369 C.ar    1  UNL1        0.0507
     16 C         -10.9743  -15.6320   20.6248 C.3     1  UNL1        0.2542
     17 O          -9.6340  -16.2416   20.9107 O.3     1  UNL1       -0.4563
     18 C          -5.2764  -20.8253   20.3433 C.3     1  UNL1        0.0575
     19 C          -4.1399  -19.8587   20.1881 C.ar    1  UNL1        0.0044
     20 C          -3.2031  -19.7797   19.0194 C.ar    1  UNL1        0.0966
     21 N          -2.2249  -18.6735   19.2834 N.ar    1  UNL1       -0.2273
     22 C          -2.5573  -18.0689   20.6154 C.ar    1  UNL1        0.1402
     23 N          -1.9351  -16.9461   21.3912 N.ar    1  UNL1       -0.3377
     24 C          -2.4965  -16.5557   22.7263 C.ar    1  UNL1        0.0691
     25 C          -3.6801  -17.2882   23.2854 C.ar    1  UNL1       -0.0047
     26 C          -4.2415  -16.8977   24.6206 C.3     1  UNL1        0.0326
     27 C          -4.3023  -18.4110   22.5095 C.ar    1  UNL1       -0.0001
     28 C          -3.7409  -18.8014   21.1745 C.ar    1  UNL1        0.0315
     29 H          -1.1583  -16.4653   21.0243 H       1  UNL1        0.1674
@<TRIPOS>BOND
     1    16    17    1
     2    17    10    1
     3    10    11   ar
     4    11    12   ar
     5    12    13   ar
     6    13    14   ar
     7    14    15   ar
     8    15     9    1
     9     9     7    1
    10     7     1    1
    11     1     2   ar
    12     2     3   ar
    13     3     4   ar
    14     4    18    1
    15    18    19    1
    16    19    20   ar
    17    20    21   ar
    18    21    22   ar
    19    22    23   ar
    20    23    24   ar
    21    24    25   ar
    22    25    26    1
    23    25    27   ar
    24    27    28   ar
    25     4     5   ar
    26     5     6   ar
    27    15    10   ar
    28     6     1   ar
    29    28    19   ar
    30    28    22    1
    31     7     8    1
    32    23    29    1
@<TRIPOS>MOLECULE
*****
 29 32 0 0 0
SMALL
GASTEIGER

@<TRIPOS>ATOM
      1 C          -5.4685  -20.3632   20.1661 C.ar    1  UNL1        0.2172
      2 N          -6.0493  -19.0056   20.4298 N.ar    1  UNL1       -0.2126
      3 C          -7.4890  -18.7311   20.1112 C.ar    1  UNL1        0.0994
      4 C          -8.3481  -19.8141   19.5289 C.ar    1  UNL1        0.0207
      5 C          -7.7673  -21.1717   19.2651 C.ar    1  UNL1        0.0994
      6 N          -6.3275  -21.4462   19.5837 N.ar    1  UNL1       -0.2126
      7 N          -4.0287  -20.6379   20.4846 N.pl3   1  UNL1       -0.2989
      8 H          -3.5129  -21.2663   19.9294 H       1  UNL1        0.1500
      9 C          -3.3746  -19.9551   21.6491 C.3     1  UNL1        0.1212
     10 C          -3.1680  -17.4116   22.1372 C.ar    1  UNL1        0.2224
     11 N          -2.4599  -16.1042   21.9389 N.ar    1  UNL1       -0.2104
     12 C          -1.2505  -16.0328   21.0545 C.ar    1  UNL1        0.1020
     13 C          -0.7492  -17.2688   20.3682 C.ar    1  UNL1        0.0206
     14 C          -1.4573  -18.5762   20.5665 C.ar    1  UNL1        0.0036
     15 C          -2.6667  -18.6476   21.4510 C.ar    1  UNL1        0.0507
     16 C          -4.7892  -16.2866   23.8272 C.3     1  UNL1        0.2542
     17 O          -4.3774  -17.4830   23.0217 O.3     1  UNL1       -0.4563
     18 C          -9.7880  -19.5394   19.2103 C.3     1  UNL1        0.0575
     19 C         -10.6113  -18.6899   20.1324 C.ar    1  UNL1        0.0044
     20 C         -11.4248  -17.4930   19.7377 C.ar    1  UNL1        0.0966
     21 N         -12.0820  -16.9515   20.9725 N.ar    1  UNL1       -0.2273
     22 C         -11.6746  -17.8136   22.1305 C.ar    1  UNL1        0.1402
     23 N         -12.0139  -17.7592   23.5905 N.ar    1  UNL1       -0.3377
     24 C         -11.4443  -18.7791   24.5314 C.ar    1  UNL1        0.0691
     25 C         -10.5354  -19.8535   24.0122 C.ar    1  UNL1       -0.0047
     26 C          -9.9657  -20.8734   24.9531 C.3     1  UNL1        0.0326
     27 C         -10.1961  -19.9079   22.5521 C.ar    1  UNL1       -0.0001
     28 C         -10.7657  -18.8880   21.6113 C.ar    1  UNL1        0.0315
     29 H         -12.6105  -17.0540   23.9313 H       1  UNL1        0.1674
@<TRIPOS>BOND
     1    16    17    1
     2    17    10    1
     3    10    11   ar
     4    11    12   ar
     5    12    13   ar
     6    13    14   ar
     7    14    15   ar
     8    15     9    1
     9     9     7    1
    10     7     1    1
    11     1     2   ar
    12     2     3   ar
    13     3     4   ar
    14     4    18    1
    15    18    19    1
    16    19    20   ar
    17    20    21   ar
    18    21    22   ar
    19    22    23   ar
    20    23    24   ar
    21    24    25   ar
    22    25    26    1
    23    25    27   ar
    24    27    28   ar
    25     4     5   ar
    26     5     6   ar
    27    15    10   ar
    28     6     1   ar
    29    28    19   ar
    30    28    22    1
    31     7     8    1
    32    23    29    1
@<TRIPOS>MOLECULE
*****
 29 32 0 0 0
SMALL
GASTEIGER

@<TRIPOS>ATOM
      1 C          -4.4020  -20.2757   20.3104 C.ar    1  UNL1        0.2172
      2 N          -5.3934  -21.3900   20.4698 N.ar    1  UNL1       -0.2126
      3 C          -6.8518  -21.1366   20.2274 C.ar    1  UNL1        0.0994
      4 C          -7.3188  -19.7690   19.8255 C.ar    1  UNL1        0.0207
      5 C          -6.3274  -18.6547   19.6660 C.ar    1  UNL1        0.0994
      6 N          -4.8690  -18.9081   19.9085 N.ar    1  UNL1       -0.2126
      7 N          -2.9436  -20.5290   20.5528 N.pl3   1  UNL1       -0.2989
      8 H          -2.4630  -21.1955   20.0106 H       1  UNL1        0.1500
      9 C          -2.2173  -19.7668   21.6213 C.3     1  UNL1        0.1212
     10 C          -2.2369  -17.1758   21.4298 C.ar    1  UNL1        0.2224
     11 N          -2.7549  -15.8436   21.8844 N.ar    1  UNL1       -0.2104
     12 C          -3.7713  -15.7700   22.9851 C.ar    1  UNL1        0.1020
     13 C          -4.2697  -17.0286   23.6312 C.ar    1  UNL1        0.0206
     14 C          -3.7517  -18.3609   23.1765 C.ar    1  UNL1        0.0036
     15 C          -2.7353  -18.4345   22.0758 C.ar    1  UNL1        0.0507
     16 C          -1.6529  -17.5702   18.9291 C.3     1  UNL1        0.2542
     17 O          -1.2205  -17.2495   20.3291 O.3     1  UNL1       -0.4563
     18 C          -8.7773  -19.5156   19.5831 C.3     1  UNL1        0.0575
     19 C          -9.6942  -19.2469   20.7394 C.ar    1  UNL1        0.0044
     20 C         -10.9727  -19.9725   21.0380 C.ar    1  UNL1        0.0966
     21 N         -11.5622  -19.3795   22.2833 N.ar    1  UNL1       -0.2273
     22 C         -10.6481  -18.2874   22.7544 C.ar    1  UNL1        0.1402
     23 N         -10.7179  -17.3570   23.9288 N.ar    1  UNL1       -0.3377
     24 C          -9.6332  -16.3447   24.1491 C.ar    1  UNL1        0.0691
     25 C          -8.4787  -16.2628   23.1949 C.ar    1  UNL1       -0.0047
     26 C          -7.3940  -15.2504   23.4153 C.3     1  UNL1        0.0326
     27 C          -8.4089  -17.1932   22.0204 C.ar    1  UNL1       -0.0001
     28 C          -9.4937  -18.2055   21.8002 C.ar    1  UNL1        0.0315
     29 H         -11.4756  -17.4108   24.5551 H       1  UNL1        0.1674
@<TRIPOS>BOND
     1    16    17    1
     2    17    10    1
     3    10    11   ar
     4    11    12   ar
     5    12    13   ar
     6    13    14   ar
     7    14    15   ar
     8    15     9    1
     9     9     7    1
    10     7     1    1
    11     1     2   ar
    12     2     3   ar
    13     3     4   ar
    14     4    18    1
    15    18    19    1
    16    19    20   ar
    17    20    21   ar
    18    21    22   ar
    19    22    23   ar
    20    23    24   ar
    21    24    25   ar
    22    25    26    1
    23    25    27   ar
    24    27    28   ar
    25     4     5   ar
    26     5     6   ar
    27    15    10   ar
    28     6     1   ar
    29    28    19   ar
    30    28    22    1
    31     7     8    1
    32    23    29    1
@<TRIPOS>MOLECULE
*****
 29 32 0 0 0
SMALL
GASTEIGER

@<TRIPOS>ATOM
      1 C          -9.2884  -19.4321   21.8834 C.ar    1  UNL1        0.2172
      2 N          -8.9563  -19.2560   20.4313 N.ar    1  UNL1       -0.2126
      3 C          -7.6306  -19.7186   19.9037 C.ar    1  UNL1        0.0994
      4 C          -6.6369  -20.3572   20.8282 C.ar    1  UNL1        0.0207
      5 C          -6.9689  -20.5333   22.2804 C.ar    1  UNL1        0.0994
      6 N          -8.2947  -20.0707   22.8079 N.ar    1  UNL1       -0.2126
      7 N         -10.6141  -18.9695   22.4111 N.pl3   1  UNL1       -0.2989
      8 H         -11.4214  -19.5117   22.2573 H       1  UNL1        0.1500
      9 C         -10.7100  -17.6810   23.1730 C.3     1  UNL1        0.1212
     10 C          -8.7687  -16.6327   24.5451 C.ar    1  UNL1        0.2224
     11 N          -7.5813  -15.7199   24.6274 N.ar    1  UNL1       -0.2104
     12 C          -7.1476  -14.9427   23.4199 C.ar    1  UNL1        0.1020
     13 C          -7.9014  -15.0783   22.1302 C.ar    1  UNL1        0.0206
     14 C          -9.0889  -15.9911   22.0479 C.ar    1  UNL1        0.0036
     15 C          -9.5225  -16.7682   23.2554 C.ar    1  UNL1        0.0507
     16 C          -8.7318  -17.0006   27.1167 C.3     1  UNL1        0.2542
     17 O          -9.2024  -17.4098   25.7526 O.3     1  UNL1       -0.4563
     18 C          -5.3111  -20.8198   20.3005 C.3     1  UNL1        0.0575
     19 C          -4.1774  -19.8471   20.1642 C.ar    1  UNL1        0.0044
     20 C          -3.2452  -19.7379   18.9941 C.ar    1  UNL1        0.0966
     21 N          -2.2686  -18.6361   19.2808 N.ar    1  UNL1       -0.2273
     22 C          -2.5972  -18.0643   20.6281 C.ar    1  UNL1        0.1402
     23 N          -1.9746  -16.9588   21.4282 N.ar    1  UNL1       -0.3377
     24 C          -2.5317  -16.6018   22.7743 C.ar    1  UNL1        0.0691
     25 C          -3.7114  -17.3502   23.3203 C.ar    1  UNL1       -0.0047
     26 C          -4.2686  -16.9932   24.6665 C.3     1  UNL1        0.0326
     27 C          -4.3340  -18.4557   22.5202 C.ar    1  UNL1       -0.0001
     28 C          -3.7769  -18.8127   21.1740 C.ar    1  UNL1        0.0315
     29 H          -1.2003  -16.4676   21.0699 H       1  UNL1        0.1674
@<TRIPOS>BOND
     1    16    17    1
     2    17    10    1
     3    10    11   ar
     4    11    12   ar
     5    12    13   ar
     6    13    14   ar
     7    14    15   ar
     8    15     9    1
     9     9     7    1
    10     7     1    1
    11     1     2   ar
    12     2     3   ar
    13     3     4   ar
    14     4    18    1
    15    18    19    1
    16    19    20   ar
    17    20    21   ar
    18    21    22   ar
    19    22    23   ar
    20    23    24   ar
    21    24    25   ar
    22    25    26    1
    23    25    27   ar
    24    27    28   ar
    25     4     5   ar
    26     5     6   ar
    27    15    10   ar
    28     6     1   ar
    29    28    19   ar
    30    28    22    1
    31     7     8    1
    32    23    29    1
@<TRIPOS>MOLECULE
*****
 29 32 0 0 0
SMALL
GASTEIGER

@<TRIPOS>ATOM
      1 C           6.2680   -2.9105   24.6244 C.ar    1  UNL1        0.2172
      2 N           7.0532   -3.7526   23.6629 N.ar    1  UNL1       -0.2126
      3 C           6.4639   -4.1198   22.3333 C.ar    1  UNL1        0.0994
      4 C           5.0895   -3.6450   21.9652 C.ar    1  UNL1        0.0207
      5 C           4.3043   -2.8030   22.9267 C.ar    1  UNL1        0.0994
      6 N           4.8936   -2.4358   24.2562 N.ar    1  UNL1       -0.2126
      7 N           6.8572   -2.5433   25.9540 N.pl3   1  UNL1       -0.2989
      8 H           7.8127   -2.3164   26.0232 H       1  UNL1        0.1500
      9 C           5.9907   -2.5217   27.1783 C.3     1  UNL1        0.1212
     10 C           6.5827   -4.8660   28.1289 C.ar    1  UNL1        0.2224
     11 N           6.9108   -5.7496   29.2958 N.ar    1  UNL1       -0.2104
     12 C           6.9752   -5.1724   30.6788 C.ar    1  UNL1        0.1020
     13 C           6.7114   -3.7117   30.8950 C.ar    1  UNL1        0.0206
     14 C           6.3832   -2.8281   29.7281 C.ar    1  UNL1        0.0036
     15 C           6.3189   -3.4053   28.3451 C.ar    1  UNL1        0.0507
     16 C           7.0014   -6.8405   26.4931 C.3     1  UNL1        0.2542
     17 O           6.5183   -5.4432   26.7459 O.3     1  UNL1       -0.4563
     18 C           4.5002   -4.0123   20.6355 C.3     1  UNL1        0.0575
     19 C           4.5124   -3.0206   19.5101 C.ar    1  UNL1        0.0044
     20 C           5.4967   -2.9828   18.3789 C.ar    1  UNL1        0.0966
     21 N           5.1350   -1.8315   17.4880 N.ar    1  UNL1       -0.2273
     22 C           3.9272   -1.1577   18.0687 C.ar    1  UNL1        0.1402
     23 N           3.1280    0.0300   17.6209 N.ar    1  UNL1       -0.3377
     24 C           1.9440    0.4828   18.4229 C.ar    1  UNL1        0.0691
     25 C           1.5592   -0.2521   19.6726 C.ar    1  UNL1       -0.0047
     26 C           0.3752    0.2008   20.4745 C.3     1  UNL1        0.0326
     27 C           2.3584   -1.4398   20.1204 C.ar    1  UNL1       -0.0001
     28 C           3.5424   -1.8927   19.3184 C.ar    1  UNL1        0.0315
     29 H           3.3806    0.5124   16.8007 H       1  UNL1        0.1674
@<TRIPOS>BOND
     1    16    17    1
     2    17    10    1
     3    10    11   ar
     4    11    12   ar
     5    12    13   ar
     6    13    14   ar
     7    14    15   ar
     8    15     9    1
     9     9     7    1
    10     7     1    1
    11     1     2   ar
    12     2     3   ar
    13     3     4   ar
    14     4    18    1
    15    18    19    1
    16    19    20   ar
    17    20    21   ar
    18    21    22   ar
    19    22    23   ar
    20    23    24   ar
    21    24    25   ar
    22    25    26    1
    23    25    27   ar
    24    27    28   ar
    25     4     5   ar
    26     5     6   ar
    27    15    10   ar
    28     6     1   ar
    29    28    19   ar
    30    28    22    1
    31     7     8    1
    32    23    29    1
@<TRIPOS>MOLECULE
*****
 29 32 0 0 0
SMALL
GASTEIGER

@<TRIPOS>ATOM
      1 C          -6.2817  -15.5978   24.7728 C.ar    1  UNL1        0.2172
      2 N          -5.9455  -14.9039   23.4862 N.ar    1  UNL1       -0.2126
      3 C          -4.6808  -15.2481   22.7568 C.ar    1  UNL1        0.0994
      4 C          -3.7525  -16.2862   23.3139 C.ar    1  UNL1        0.0207
      5 C          -4.0887  -16.9802   24.6005 C.ar    1  UNL1        0.0994
      6 N          -5.3534  -16.6359   25.3300 N.ar    1  UNL1       -0.2126
      7 N          -7.5464  -15.2536   25.5023 N.pl3   1  UNL1       -0.2989
      8 H          -7.5055  -14.9186   26.4272 H       1  UNL1        0.1500
      9 C          -8.8733  -15.4198   24.8228 C.3     1  UNL1        0.1212
     10 C          -9.7274  -17.1106   23.0447 C.ar    1  UNL1        0.2224
     11 N         -10.2202  -18.4814   22.6869 N.ar    1  UNL1       -0.2104
     12 C         -10.3519  -19.5320   23.7493 C.ar    1  UNL1        0.1020
     13 C          -9.9908  -19.2119   25.1695 C.ar    1  UNL1        0.0206
     14 C          -9.4979  -17.8412   25.5273 C.ar    1  UNL1        0.0036
     15 C          -9.3662  -16.7905   24.4649 C.ar    1  UNL1        0.0507
     16 C         -10.6737  -15.8954   20.9524 C.3     1  UNL1        0.2542
     17 O          -9.5957  -16.0599   21.9822 O.3     1  UNL1       -0.4563
     18 C          -2.4877  -16.6305   22.5844 C.3     1  UNL1        0.0575
     19 C          -2.5082  -17.6577   21.4914 C.ar    1  UNL1        0.0044
     20 C          -1.4483  -17.8570   20.4489 C.ar    1  UNL1        0.0966
     21 N          -1.8773  -18.9883   19.5623 N.ar    1  UNL1       -0.2273
     22 C          -3.2022  -19.4883   20.0569 C.ar    1  UNL1        0.1402
     23 N          -4.1039  -20.5861   19.5757 N.ar    1  UNL1       -0.3377
     24 C          -5.3956  -20.8615   20.2868 C.ar    1  UNL1        0.0691
     25 C          -5.7856  -20.0390   21.4791 C.ar    1  UNL1       -0.0047
     26 C          -7.0773  -20.3145   22.1901 C.3     1  UNL1        0.0326
     27 C          -4.8838  -18.9412   21.9603 C.ar    1  UNL1       -0.0001
     28 C          -3.5921  -18.6658   21.2492 C.ar    1  UNL1        0.0315
     29 H          -3.8480  -21.1259   18.7932 H       1  UNL1        0.1674
@<TRIPOS>BOND
     1    16    17    1
     2    17    10    1
     3    10    11   ar
     4    11    12   ar
     5    12    13   ar
     6    13    14   ar
     7    14    15   ar
     8    15     9    1
     9     9     7    1
    10     7     1    1
    11     1     2   ar
    12     2     3   ar
    13     3     4   ar
    14     4    18    1
    15    18    19    1
    16    19    20   ar
    17    20    21   ar
    18    21    22   ar
    19    22    23   ar
    20    23    24   ar
    21    24    25   ar
    22    25    26    1
    23    25    27   ar
    24    27    28   ar
    25     4     5   ar
    26     5     6   ar
    27    15    10   ar
    28     6     1   ar
    29    28    19   ar
    30    28    22    1
    31     7     8    1
    32    23    29    1
@<TRIPOS>MOLECULE
*****
 29 32 0 0 0
SMALL
GASTEIGER

@<TRIPOS>ATOM
      1 C           6.8938   -3.5137   23.9844 C.ar    1  UNL1        0.2172
      2 N           7.6437   -3.8205   22.7220 N.ar    1  UNL1       -0.2126
      3 C           6.9015   -3.9749   21.4277 C.ar    1  UNL1        0.0994
      4 C           5.4096   -3.8226   21.3957 C.ar    1  UNL1        0.0207
      5 C           4.6598   -3.5157   22.6581 C.ar    1  UNL1        0.0994
      6 N           5.4019   -3.3613   23.9524 N.ar    1  UNL1       -0.2126
      7 N           7.6359   -3.3592   25.2788 N.pl3   1  UNL1       -0.2989
      8 H           8.4171   -2.7623   25.3301 H       1  UNL1        0.1500
      9 C           7.1877   -4.1141   26.4951 C.3     1  UNL1        0.1212
     10 C           7.8854   -6.0808   28.0427 C.ar    1  UNL1        0.2224
     11 N           8.2781   -7.5175   28.2206 N.ar    1  UNL1       -0.2104
     12 C           8.3658   -8.4241   27.0288 C.ar    1  UNL1        0.1020
     13 C           8.0608   -7.8941   25.6591 C.ar    1  UNL1        0.0206
     14 C           7.6681   -6.4574   25.4812 C.ar    1  UNL1        0.0036
     15 C           7.5804   -5.5508   26.6730 C.ar    1  UNL1        0.0507
     16 C           6.9059   -5.5330   30.3858 C.3     1  UNL1        0.2542
     17 O           7.7977   -5.1742   29.2345 O.3     1  UNL1       -0.4563
     18 C           4.6675   -3.9771   20.1012 C.3     1  UNL1        0.0575
     19 C           4.6183   -2.8396   19.1246 C.ar    1  UNL1        0.0044
     20 C           5.5766   -2.6057   17.9946 C.ar    1  UNL1        0.0966
     21 N           5.1527   -1.3580   17.2781 N.ar    1  UNL1       -0.2273
     22 C           3.9324   -0.8207   17.9653 C.ar    1  UNL1        0.1402
     23 N           3.0793    0.3840   17.6993 N.ar    1  UNL1       -0.3377
     24 C           1.8959    0.6730   18.5745 C.ar    1  UNL1        0.0691
     25 C           1.5656   -0.2428   19.7156 C.ar    1  UNL1       -0.0047
     26 C           0.3821    0.0463   20.5909 C.3     1  UNL1        0.0326
     27 C           2.4187   -1.4475   19.9816 C.ar    1  UNL1       -0.0001
     28 C           3.6021   -1.7365   19.1064 C.ar    1  UNL1        0.0315
     29 H           3.2961    0.9851   16.9503 H       1  UNL1        0.1674
@<TRIPOS>BOND
     1    16    17    1
     2    17    10    1
     3    10    11   ar
     4    11    12   ar
     5    12    13   ar
     6    13    14   ar
     7    14    15   ar
     8    15     9    1
     9     9     7    1
    10     7     1    1
    11     1     2   ar
    12     2     3   ar
    13     3     4   ar
    14     4    18    1
    15    18    19    1
    16    19    20   ar
    17    20    21   ar
    18    21    22   ar
    19    22    23   ar
    20    23    24   ar
    21    24    25   ar
    22    25    26    1
    23    25    27   ar
    24    27    28   ar
    25     4     5   ar
    26     5     6   ar
    27    15    10   ar
    28     6     1   ar
    29    28    19   ar
    30    28    22    1
    31     7     8    1
    32    23    29    1
@<TRIPOS>MOLECULE
*****
 29 32 0 0 0
SMALL
GASTEIGER

@<TRIPOS>ATOM
      1 C           6.3107   -2.6617   24.6823 C.ar    1  UNL1        0.2172
      2 N           4.9212   -2.2258   24.3227 N.ar    1  UNL1       -0.2126
      3 C           4.3123   -2.6589   23.0221 C.ar    1  UNL1        0.0994
      4 C           5.0929   -3.5278   22.0810 C.ar    1  UNL1        0.0207
      5 C           6.4824   -3.9637   22.4406 C.ar    1  UNL1        0.0994
      6 N           7.0913   -3.5306   23.7412 N.ar    1  UNL1       -0.2126
      7 N           6.9196   -2.2286   25.9829 N.pl3   1  UNL1       -0.2989
      8 H           6.6225   -1.3937   26.4117 H       1  UNL1        0.1500
      9 C           7.9813   -3.0676   26.6303 C.3     1  UNL1        0.1212
     10 C           6.9852   -3.2898   29.0195 C.ar    1  UNL1        0.2224
     11 N           6.6503   -4.1330   30.2139 N.ar    1  UNL1       -0.2104
     12 C           6.9764   -5.5972   30.2137 C.ar    1  UNL1        0.1020
     13 C           7.6375   -6.2181   29.0189 C.ar    1  UNL1        0.0206
     14 C           7.9724   -5.3748   27.8244 C.ar    1  UNL1        0.0036
     15 C           7.6463   -3.9107   27.8247 C.ar    1  UNL1        0.0507
     16 C           5.2290   -1.3758   28.9731 C.3     1  UNL1        0.2542
     17 O           6.6591   -1.8257   29.0198 O.3     1  UNL1       -0.4563
     18 C           4.4839   -3.9609   20.7803 C.3     1  UNL1        0.0575
     19 C           4.4871   -3.0302   19.6040 C.ar    1  UNL1        0.0044
     20 C           5.4585   -3.0568   18.4613 C.ar    1  UNL1        0.0966
     21 N           5.0912   -1.9525   17.5149 N.ar    1  UNL1       -0.2273
     22 C           3.8928   -1.2435   18.0727 C.ar    1  UNL1        0.1402
     23 N           3.0933   -0.0774   17.5718 N.ar    1  UNL1       -0.3377
     24 C           1.9205    0.4227   18.3619 C.ar    1  UNL1        0.0691
     25 C           1.5471   -0.2434   19.6531 C.ar    1  UNL1       -0.0047
     26 C           0.3742    0.2567   20.4432 C.3     1  UNL1        0.0326
     27 C           2.3466   -1.4095   20.1540 C.ar    1  UNL1       -0.0001
     28 C           3.5194   -1.9095   19.3638 C.ar    1  UNL1        0.0315
     29 H           3.3383    0.3598   16.7244 H       1  UNL1        0.1674
@<TRIPOS>BOND
     1    16    17    1
     2    17    10    1
     3    10    11   ar
     4    11    12   ar
     5    12    13   ar
     6    13    14   ar
     7    14    15   ar
     8    15     9    1
     9     9     7    1
    10     7     1    1
    11     1     2   ar
    12     2     3   ar
    13     3     4   ar
    14     4    18    1
    15    18    19    1
    16    19    20   ar
    17    20    21   ar
    18    21    22   ar
    19    22    23   ar
    20    23    24   ar
    21    24    25   ar
    22    25    26    1
    23    25    27   ar
    24    27    28   ar
    25     4     5   ar
    26     5     6   ar
    27    15    10   ar
    28     6     1   ar
    29    28    19   ar
    30    28    22    1
    31     7     8    1
    32    23    29    1
