@<TRIPOS>MOLECULE
*****
 39 44 0 0 0
SMALL
GASTEIGER

@<TRIPOS>ATOM
      1 N           2.4088   -0.0530   30.2071 N.3     1  UNL1       -0.2676
      2 C           3.6700   -0.7745   30.5797 C.3     1  UNL1        0.0746
      3 C           4.3438   -0.4805   31.8872 C.3     1  UNL1        0.0449
      4 C           3.7565    0.5350   32.8220 C.3     1  UNL1        0.1391
      5 C           2.4954    1.2565   32.4493 C.3     1  UNL1        0.0449
      6 C           1.8215    0.9625   31.1419 C.3     1  UNL1        0.0746
      7 C           3.2892    1.5192   33.8531 C.2     1  UNL1        0.2529
      8 O           2.0660    2.3821   33.7577 O.2     1  UNL1       -0.2724
      9 N           4.2600    1.4889   34.9963 N.am    1  UNL1       -0.1907
     10 C           5.3272    0.4859   34.6717 C.2     1  UNL1        0.3219
     11 O           6.4996    0.1343   35.5387 O.2     1  UNL1       -0.2512
     12 N           5.0161   -0.1035   33.3280 N.am    1  UNL1       -0.2222
     13 C           5.8227   -1.1482   32.6153 C.ar    1  UNL1        0.1453
     14 C           5.6223   -2.5995   32.9370 C.ar    1  UNL1        0.0922
     15 C           6.4290   -3.6440   32.2242 C.ar    1  UNL1        0.2259
     16 O           6.2285   -5.0953   32.5459 O.3     1  UNL1       -0.4919
     17 N           7.4362   -3.2373   31.1897 N.ar    1  UNL1       -0.1894
     18 C           7.6367   -1.7860   30.8680 C.ar    1  UNL1        0.2027
     19 N           6.8300   -0.7415   31.5807 N.ar    1  UNL1       -0.2084
     20 H           5.5994   -5.3494   33.1921 H       1  UNL1        0.2938
     21 C           4.1778    2.3162   36.2448 C.ar    1  UNL1        0.0622
     22 C           4.3117    3.8080   36.1661 C.ar    1  UNL1        0.0155
     23 C           4.2296    4.6353   37.4146 C.ar    1  UNL1        0.0044
     24 C           4.0136    3.9708   38.7418 C.ar    1  UNL1        0.0373
     25 C           3.8797    2.4788   38.8206 C.ar    1  UNL1        0.0044
     26 C           3.9618    1.6515   37.5721 C.ar    1  UNL1        0.0155
     27 C           3.9315    4.7981   39.9903 C.ar    1  UNL1        0.1769
     28 C           4.2926    6.2489   40.1120 C.ar    1  UNL1        0.0642
     29 C           4.0581    6.6673   41.5333 C.ar    1  UNL1        0.1438
     30 N           3.5523    5.4751   42.2900 N.ar    1  UNL1       -0.0753
     31 O           3.4740    4.3199   41.3364 O.2     1  UNL1       -0.3533
     32 C           1.7349   -0.3470   28.8996 C.3     1  UNL1        0.1183
     33 C          -1.2640   -0.3429   28.8164 C.3     1  UNL1        0.0323
     34 C          -0.4931    0.7443   28.1281 C.ar    1  UNL1       -0.0069
     35 C          -1.2217    1.8336   27.3983 C.ar    1  UNL1       -0.0015
     36 C          -0.4508    2.9208   26.7100 C.ar    1  UNL1        0.0203
     37 C           1.0486    2.9188   26.7516 C.ar    1  UNL1        0.0985
     38 N           1.7772    1.8295   27.4815 N.ar    1  UNL1       -0.2471
     39 C           1.0064    0.7423   28.1698 C.ar    1  UNL1        0.0712
@<TRIPOS>BOND
     1    33    34    1
     2    34    35   ar
     3    35    36   ar
     4    36    37   ar
     5    37    38   ar
     6    38    39   ar
     7    39    32    1
     8    32     1    1
     9     1     2    1
    10     2     3    1
    11     3     4    1
    12     4     5    1
    13     5     6    1
    14     4     7    1
    15     7     8    2
    16     7     9   am
    17     9    21    1
    18    21    22   ar
    19    22    23   ar
    20    23    24   ar
    21    24    27    1
    22    27    28   ar
    23    28    29   ar
    24    29    30   ar
    25    30    31   ar
    26    24    25   ar
    27    25    26   ar
    28     9    10   am
    29    10    11    2
    30    10    12   am
    31    12    13    1
    32    13    14   ar
    33    14    15   ar
    34    15    16    1
    35    15    17   ar
    36    17    18   ar
    37    18    19   ar
    38    39    34   ar
    39     6     1    1
    40    26    21   ar
    41    19    13   ar
    42    12     4    1
    43    31    27   ar
    44    16    20    1
@<TRIPOS>MOLECULE
*****
 39 44 0 0 0
SMALL
GASTEIGER

@<TRIPOS>ATOM
      1 N           4.4454    0.6229   35.4900 N.3     1  UNL1       -0.2676
      2 C           5.1807   -0.2723   34.5371 C.3     1  UNL1        0.0746
      3 C           4.7471   -0.3594   33.1038 C.3     1  UNL1        0.0449
      4 C           3.5781    0.4486   32.6234 C.3     1  UNL1        0.1391
      5 C           2.8429    1.3437   33.5763 C.3     1  UNL1        0.0449
      6 C           3.2765    1.4309   35.0096 C.3     1  UNL1        0.0746
      7 C           2.4338    1.1929   32.0016 C.2     1  UNL1        0.2529
      8 O           1.5223    2.1550   32.7040 O.2     1  UNL1       -0.2724
      9 N           2.3611    0.8061   30.5541 N.am    1  UNL1       -0.1907
     10 C           3.4606   -0.1773   30.2813 C.2     1  UNL1        0.3219
     11 O           3.7559   -0.8257   28.9615 O.2     1  UNL1       -0.2512
     12 N           4.2127   -0.3982   31.5602 N.am    1  UNL1       -0.2222
     13 C           5.3922   -1.3064   31.7437 C.ar    1  UNL1        0.1453
     14 C           5.1868   -2.7186   32.2057 C.ar    1  UNL1        0.0922
     15 C           6.3664   -3.6268   32.3892 C.ar    1  UNL1        0.2259
     16 O           6.1610   -5.0390   32.8512 O.3     1  UNL1       -0.4919
     17 N           7.7516   -3.1228   32.1107 N.ar    1  UNL1       -0.1894
     18 C           7.9570   -1.7106   31.6487 C.ar    1  UNL1        0.2027
     19 N           6.7774   -0.8025   31.4652 N.ar    1  UNL1       -0.2084
     20 H           5.2958   -5.3539   33.0252 H       1  UNL1        0.2938
     21 C           1.3641    1.3136   29.5549 C.ar    1  UNL1        0.0622
     22 C           1.4903    2.7053   29.0099 C.ar    1  UNL1        0.0155
     23 C           0.4933    3.2127   28.0107 C.ar    1  UNL1        0.0044
     24 C          -0.6299    2.3285   27.5565 C.ar    1  UNL1        0.0373
     25 C          -0.7561    0.9367   28.1015 C.ar    1  UNL1        0.0044
     26 C           0.2409    0.4292   29.1007 C.ar    1  UNL1        0.0155
     27 C          -1.6269    2.8359   26.5573 C.ar    1  UNL1        0.1769
     28 C          -1.3976    2.9894   25.0828 C.ar    1  UNL1        0.0642
     29 C          -2.6573    3.5273   24.4714 C.ar    1  UNL1        0.1438
     30 N          -3.6650    3.7064   25.5678 N.ar    1  UNL1       -0.0753
     31 O          -3.0282    3.2790   26.8570 O.2     1  UNL1       -0.3533
     32 C           4.8791    0.7101   36.9233 C.3     1  UNL1        0.1183
     33 C           2.4163    0.9610   38.6180 C.3     1  UNL1        0.0323
     34 C           3.4009    2.0908   38.5539 C.ar    1  UNL1       -0.0069
     35 C           3.1541    3.3461   39.3371 C.ar    1  UNL1       -0.0015
     36 C           4.1387    4.4759   39.2729 C.ar    1  UNL1        0.0203
     37 C           5.3701    4.3504   38.4256 C.ar    1  UNL1        0.0985
     38 N           5.6169    3.0951   37.6424 N.ar    1  UNL1       -0.2471
     39 C           4.6323    1.9653   37.7065 C.ar    1  UNL1        0.0712
@<TRIPOS>BOND
     1    33    34    1
     2    34    35   ar
     3    35    36   ar
     4    36    37   ar
     5    37    38   ar
     6    38    39   ar
     7    39    32    1
     8    32     1    1
     9     1     2    1
    10     2     3    1
    11     3     4    1
    12     4     5    1
    13     5     6    1
    14     4     7    1
    15     7     8    2
    16     7     9   am
    17     9    21    1
    18    21    22   ar
    19    22    23   ar
    20    23    24   ar
    21    24    27    1
    22    27    28   ar
    23    28    29   ar
    24    29    30   ar
    25    30    31   ar
    26    24    25   ar
    27    25    26   ar
    28     9    10   am
    29    10    11    2
    30    10    12   am
    31    12    13    1
    32    13    14   ar
    33    14    15   ar
    34    15    16    1
    35    15    17   ar
    36    17    18   ar
    37    18    19   ar
    38    39    34   ar
    39     6     1    1
    40    26    21   ar
    41    19    13   ar
    42    12     4    1
    43    31    27   ar
    44    16    20    1
@<TRIPOS>MOLECULE
*****
 39 44 0 0 0
SMALL
GASTEIGER

@<TRIPOS>ATOM
      1 N           3.5702    1.5091   35.4505 N.3     1  UNL1       -0.2676
      2 C           4.4053    0.5941   34.6046 C.3     1  UNL1        0.0746
      3 C           4.0907    0.4244   33.1479 C.3     1  UNL1        0.0449
      4 C           2.9411    1.1695   32.5370 C.3     1  UNL1        0.1391
      5 C           2.1061    2.0845   33.3829 C.3     1  UNL1        0.0449
      6 C           2.4207    2.2543   34.8396 C.3     1  UNL1        0.0746
      7 C           1.8292    1.8452   31.7905 C.2     1  UNL1        0.2529
      8 O           0.8367    2.8092   32.3697 O.2     1  UNL1       -0.2724
      9 N           1.8842    1.3875   30.3630 N.am    1  UNL1       -0.1907
     10 C           3.0300    0.4290   30.2273 C.2     1  UNL1        0.3219
     11 O           3.4490   -0.2717   28.9691 O.2     1  UNL1       -0.2512
     12 N           3.6832    0.2943   31.5709 N.am    1  UNL1       -0.2222
     13 C           4.8701   -0.5648   31.8920 C.ar    1  UNL1        0.1453
     14 C           4.6795   -2.0174   32.2140 C.ar    1  UNL1        0.0922
     15 C           5.8665   -2.8764   32.5352 C.ar    1  UNL1        0.2259
     16 O           5.6759   -4.3289   32.8572 O.3     1  UNL1       -0.4919
     17 N           7.2441   -2.2829   32.5344 N.ar    1  UNL1       -0.1894
     18 C           7.4347   -0.8303   32.2124 C.ar    1  UNL1        0.2027
     19 N           6.2478    0.0287   31.8912 N.ar    1  UNL1       -0.2084
     20 H           4.8154   -4.6997   32.8577 H       1  UNL1        0.2938
     21 C           0.9562    1.8136   29.2642 C.ar    1  UNL1        0.0622
     22 C          -0.0353    0.8397   28.7001 C.ar    1  UNL1        0.0155
     23 C          -0.9632    1.2657   27.6013 C.ar    1  UNL1        0.0044
     24 C          -0.8997    2.6656   27.0666 C.ar    1  UNL1        0.0373
     25 C           0.0919    3.6396   27.6307 C.ar    1  UNL1        0.0044
     26 C           1.0198    3.2136   28.7295 C.ar    1  UNL1        0.0155
     27 C          -1.8276    3.0917   25.9678 C.ar    1  UNL1        0.1769
     28 C          -3.2327    3.5869   26.1428 C.ar    1  UNL1        0.0642
     29 C          -3.7869    3.8986   24.7842 C.ar    1  UNL1        0.1438
     30 N          -2.7244    3.5960   23.7696 N.ar    1  UNL1       -0.0753
     31 O          -1.5135    3.0973   24.5011 O.2     1  UNL1       -0.3533
     32 C           3.8848    1.6789   36.9074 C.3     1  UNL1        0.1183
     33 C           2.4862    4.1838   37.7846 C.3     1  UNL1        0.0323
     34 C           2.0862    2.8593   38.3640 C.ar    1  UNL1       -0.0069
     35 C           0.9869    2.7872   39.3820 C.ar    1  UNL1       -0.0015
     36 C           0.5868    1.4627   39.9613 C.ar    1  UNL1        0.0203
     37 C           1.2861    0.2103   39.5227 C.ar    1  UNL1        0.0985
     38 N           2.3854    0.2823   38.5047 N.ar    1  UNL1       -0.2471
     39 C           2.7855    1.6068   37.9253 C.ar    1  UNL1        0.0712
@<TRIPOS>BOND
     1    33    34    1
     2    34    35   ar
     3    35    36   ar
     4    36    37   ar
     5    37    38   ar
     6    38    39   ar
     7    39    32    1
     8    32     1    1
     9     1     2    1
    10     2     3    1
    11     3     4    1
    12     4     5    1
    13     5     6    1
    14     4     7    1
    15     7     8    2
    16     7     9   am
    17     9    21    1
    18    21    22   ar
    19    22    23   ar
    20    23    24   ar
    21    24    27    1
    22    27    28   ar
    23    28    29   ar
    24    29    30   ar
    25    30    31   ar
    26    24    25   ar
    27    25    26   ar
    28     9    10   am
    29    10    11    2
    30    10    12   am
    31    12    13    1
    32    13    14   ar
    33    14    15   ar
    34    15    16    1
    35    15    17   ar
    36    17    18   ar
    37    18    19   ar
    38    39    34   ar
    39     6     1    1
    40    26    21   ar
    41    19    13   ar
    42    12     4    1
    43    31    27   ar
    44    16    20    1
@<TRIPOS>MOLECULE
*****
 39 44 0 0 0
SMALL
GASTEIGER

@<TRIPOS>ATOM
      1 N           2.7246    2.7817   35.0762 N.3     1  UNL1       -0.2676
      2 C           3.4911    1.6510   34.4566 C.3     1  UNL1        0.0746
      3 C           3.2423    1.2709   33.0271 C.3     1  UNL1        0.0449
      4 C           2.2270    2.0214   32.2172 C.3     1  UNL1        0.1391
      5 C           1.4605    3.1521   32.8369 C.3     1  UNL1        0.0449
      6 C           1.7093    3.5322   34.2664 C.3     1  UNL1        0.0746
      7 C           1.2485    2.6767   31.2881 C.2     1  UNL1        0.2529
      8 O           0.3470    3.8271   31.6254 O.2     1  UNL1       -0.2724
      9 N           1.3297    1.9795   29.9624 N.am    1  UNL1       -0.1907
     10 C           2.3585    0.8933   30.0722 C.2     1  UNL1        0.3219
     11 O           2.7618   -0.0526   28.9803 O.2     1  UNL1       -0.2512
     12 N           2.9130    0.9192   31.4657 N.am    1  UNL1       -0.2222
     13 C           3.9682    0.0038   32.0119 C.ar    1  UNL1        0.1453
     14 C           5.4167    0.3768   31.8986 C.ar    1  UNL1        0.0922
     15 C           6.4718   -0.5387   32.4448 C.ar    1  UNL1        0.2259
     16 O           7.9203   -0.1657   32.3314 O.3     1  UNL1       -0.4919
     17 N           6.0787   -1.8273   33.1044 N.ar    1  UNL1       -0.1894
     18 C           4.6302   -2.2003   33.2178 C.ar    1  UNL1        0.2027
     19 N           3.5750   -1.2848   32.6715 N.ar    1  UNL1       -0.2084
     20 H           8.1659    0.6392   31.9194 H       1  UNL1        0.2938
     21 C           0.5238    2.3103   28.7414 C.ar    1  UNL1        0.0622
     22 C           0.3985    3.7348   28.2887 C.ar    1  UNL1        0.0155
     23 C          -0.4075    4.0657   27.0677 C.ar    1  UNL1        0.0044
     24 C          -1.0881    2.9720   26.2993 C.ar    1  UNL1        0.0373
     25 C          -0.9628    1.5474   26.7519 C.ar    1  UNL1        0.0044
     26 C          -0.1569    1.2166   27.9730 C.ar    1  UNL1        0.0155
     27 C          -1.8941    3.3029   25.0782 C.ar    1  UNL1        0.1769
     28 C          -3.3516    3.6566   25.0530 C.ar    1  UNL1        0.0642
     29 C          -3.7423    3.9104   23.6272 C.ar    1  UNL1        0.1438
     30 N          -2.5264    3.7137   22.7713 N.ar    1  UNL1       -0.0753
     31 O          -1.3841    3.3382   23.6681 O.2     1  UNL1       -0.3533
     32 C           2.9734    3.1619   36.5058 C.3     1  UNL1        0.1183
     33 C           4.0514    0.6099   37.6571 C.3     1  UNL1        0.0323
     34 C           2.7711    1.1880   38.1830 C.ar    1  UNL1       -0.0069
     35 C           2.0298    0.4902   39.2846 C.ar    1  UNL1       -0.0015
     36 C           0.7495    1.0684   39.8105 C.ar    1  UNL1        0.0203
     37 C           0.2105    2.3443   39.2349 C.ar    1  UNL1        0.0985
     38 N           0.9518    3.0422   38.1333 N.ar    1  UNL1       -0.2471
     39 C           2.2321    2.4641   37.6074 C.ar    1  UNL1        0.0712
@<TRIPOS>BOND
     1    33    34    1
     2    34    35   ar
     3    35    36   ar
     4    36    37   ar
     5    37    38   ar
     6    38    39   ar
     7    39    32    1
     8    32     1    1
     9     1     2    1
    10     2     3    1
    11     3     4    1
    12     4     5    1
    13     5     6    1
    14     4     7    1
    15     7     8    2
    16     7     9   am
    17     9    21    1
    18    21    22   ar
    19    22    23   ar
    20    23    24   ar
    21    24    27    1
    22    27    28   ar
    23    28    29   ar
    24    29    30   ar
    25    30    31   ar
    26    24    25   ar
    27    25    26   ar
    28     9    10   am
    29    10    11    2
    30    10    12   am
    31    12    13    1
    32    13    14   ar
    33    14    15   ar
    34    15    16    1
    35    15    17   ar
    36    17    18   ar
    37    18    19   ar
    38    39    34   ar
    39     6     1    1
    40    26    21   ar
    41    19    13   ar
    42    12     4    1
    43    31    27   ar
    44    16    20    1
@<TRIPOS>MOLECULE
*****
 39 44 0 0 0
SMALL
GASTEIGER

@<TRIPOS>ATOM
      1 N           6.3608   -2.4268   24.1177 N.3     1  UNL1       -0.2676
      2 C           5.8681   -2.3062   22.7061 C.3     1  UNL1        0.0746
      3 C           4.6251   -1.5204   22.4102 C.3     1  UNL1        0.0449
      4 C           3.8749   -0.8552   23.5259 C.3     1  UNL1        0.1391
      5 C           4.3677   -0.9758   24.9375 C.3     1  UNL1        0.0449
      6 C           5.6106   -1.7616   25.2333 C.3     1  UNL1        0.0746
      7 C           3.0241   -0.1390   24.5324 C.2     1  UNL1        0.2529
      8 O           3.2669   -0.0827   26.0116 O.2     1  UNL1       -0.2724
      9 N           1.8878    0.5113   23.8000 N.am    1  UNL1       -0.1907
     10 C           2.0365    0.1968   22.3409 C.2     1  UNL1        0.3219
     11 O           1.1183    0.6477   21.2439 O.2     1  UNL1       -0.2512
     12 N           3.2645   -0.6477   22.1714 N.am    1  UNL1       -0.2222
     13 C           3.7900   -1.1896   20.8752 C.ar    1  UNL1        0.1453
     14 C           3.3431   -2.5364   20.3891 C.ar    1  UNL1        0.0922
     15 C           3.8686   -3.0782   19.0929 C.ar    1  UNL1        0.2259
     16 O           3.4217   -4.4250   18.6067 O.3     1  UNL1       -0.4919
     17 N           4.8411   -2.2732   18.2827 N.ar    1  UNL1       -0.1894
     18 C           5.2880   -0.9264   18.7688 C.ar    1  UNL1        0.2027
     19 N           4.7625   -0.3846   20.0650 N.ar    1  UNL1       -0.2084
     20 H           2.8142   -4.9278   19.1128 H       1  UNL1        0.2938
     21 C           0.7949    1.3318   24.4183 C.ar    1  UNL1        0.0622
     22 C           0.2718    0.9804   25.7794 C.ar    1  UNL1        0.0155
     23 C          -0.8211    1.8010   26.3977 C.ar    1  UNL1        0.0044
     24 C          -1.3909    2.9728   25.6548 C.ar    1  UNL1        0.0373
     25 C          -0.8678    3.3242   24.2935 C.ar    1  UNL1        0.0044
     26 C           0.2251    2.5036   23.6753 C.ar    1  UNL1        0.0155
     27 C          -2.4839    3.7933   26.2730 C.ar    1  UNL1        0.1769
     28 C          -3.9556    3.6196   26.0410 C.ar    1  UNL1        0.0642
     29 C          -4.6783    4.6505   26.8564 C.ar    1  UNL1        0.1438
     30 N          -3.6532    5.4614   27.5923 N.ar    1  UNL1       -0.0753
     31 O          -2.2970    4.9317   27.2318 O.2     1  UNL1       -0.3533
     32 C           7.6038   -3.2126   24.4136 C.3     1  UNL1        0.1183
     33 C           8.6803   -5.5373   22.8525 C.3     1  UNL1        0.0323
     34 C           8.0366   -5.7644   24.1881 C.ar    1  UNL1       -0.0069
     35 C           7.9311   -7.1539   24.7433 C.ar    1  UNL1       -0.0015
     36 C           7.2874   -7.3811   26.0789 C.ar    1  UNL1        0.0203
     37 C           6.7492   -6.2188   26.8595 C.ar    1  UNL1        0.0985
     38 N           6.8547   -4.8292   26.3044 N.ar    1  UNL1       -0.2471
     39 C           7.4984   -4.6020   24.9687 C.ar    1  UNL1        0.0712
@<TRIPOS>BOND
     1    33    34    1
     2    34    35   ar
     3    35    36   ar
     4    36    37   ar
     5    37    38   ar
     6    38    39   ar
     7    39    32    1
     8    32     1    1
     9     1     2    1
    10     2     3    1
    11     3     4    1
    12     4     5    1
    13     5     6    1
    14     4     7    1
    15     7     8    2
    16     7     9   am
    17     9    21    1
    18    21    22   ar
    19    22    23   ar
    20    23    24   ar
    21    24    27    1
    22    27    28   ar
    23    28    29   ar
    24    29    30   ar
    25    30    31   ar
    26    24    25   ar
    27    25    26   ar
    28     9    10   am
    29    10    11    2
    30    10    12   am
    31    12    13    1
    32    13    14   ar
    33    14    15   ar
    34    15    16    1
    35    15    17   ar
    36    17    18   ar
    37    18    19   ar
    38    39    34   ar
    39     6     1    1
    40    26    21   ar
    41    19    13   ar
    42    12     4    1
    43    31    27   ar
    44    16    20    1
@<TRIPOS>MOLECULE
*****
 39 44 0 0 0
SMALL
GASTEIGER

@<TRIPOS>ATOM
      1 N           6.4867   -2.4525   23.4023 N.3     1  UNL1       -0.2676
      2 C           7.0126   -3.6008   24.2115 C.3     1  UNL1        0.0746
      3 C           6.8396   -3.6097   25.7015 C.3     1  UNL1        0.0449
      4 C           6.1407   -2.4703   26.3822 C.3     1  UNL1        0.1391
      5 C           5.6148   -1.3221   25.5730 C.3     1  UNL1        0.0449
      6 C           5.7878   -1.3132   24.0830 C.3     1  UNL1        0.0746
      7 C           5.4669   -1.4070   27.1979 C.2     1  UNL1        0.2529
      8 O           4.8478   -0.1482   26.6670 O.2     1  UNL1       -0.2724
      9 N           5.5209   -1.8236   28.6380 N.am    1  UNL1       -0.1907
     10 C           6.2281   -3.1445   28.7122 C.2     1  UNL1        0.3219
     11 O           6.5038   -3.9280   29.9611 O.2     1  UNL1       -0.2512
     12 N           6.6112   -3.5441   27.3181 N.am    1  UNL1       -0.2222
     13 C           7.3371   -4.7974   26.9282 C.ar    1  UNL1        0.1453
     14 C           6.5911   -6.0944   26.8226 C.ar    1  UNL1        0.0922
     15 C           7.3171   -7.3477   26.4327 C.ar    1  UNL1        0.2259
     16 O           6.5710   -8.6447   26.3272 O.3     1  UNL1       -0.4919
     17 N           8.7893   -7.3041   26.1483 N.ar    1  UNL1       -0.1894
     18 C           9.5354   -6.0071   26.2539 C.ar    1  UNL1        0.2027
     19 N           8.8093   -4.7538   26.6438 N.ar    1  UNL1       -0.2084
     20 H           5.6514   -8.6720   26.5048 H       1  UNL1        0.2938
     21 C           4.9654   -1.0545   29.7998 C.ar    1  UNL1        0.0622
     22 C           5.8828   -0.5547   30.8760 C.ar    1  UNL1        0.0155
     23 C           5.3272    0.2144   32.0378 C.ar    1  UNL1        0.0044
     24 C           3.8542    0.4837   32.1233 C.ar    1  UNL1        0.0373
     25 C           2.9366   -0.0161   31.0471 C.ar    1  UNL1        0.0044
     26 C           3.4922   -0.7852   29.8853 C.ar    1  UNL1        0.0155
     27 C           3.2986    1.2528   33.2851 C.ar    1  UNL1        0.1769
     28 C           3.9114    1.3524   34.6507 C.ar    1  UNL1        0.0642
     29 C           3.0242    2.2185   35.4948 C.ar    1  UNL1        0.1438
     30 N           1.8630    2.6542   34.6511 N.ar    1  UNL1       -0.0753
     31 O           2.0326    2.0574   33.2855 O.2     1  UNL1       -0.3533
     32 C           6.6597   -2.4436   21.9123 C.3     1  UNL1        0.1183
     33 C           4.8602   -0.3908   20.6680 C.3     1  UNL1        0.0323
     34 C           4.6313   -1.8491   20.4015 C.ar    1  UNL1       -0.0069
     35 C           3.5028   -2.2810   19.5128 C.ar    1  UNL1       -0.0015
     36 C           3.2739   -3.7393   19.2463 C.ar    1  UNL1        0.0203
     37 C           4.1735   -4.7656   19.8684 C.ar    1  UNL1        0.0985
     38 N           5.3022   -4.3338   20.7571 N.ar    1  UNL1       -0.2471
     39 C           5.5311   -2.8755   21.0237 C.ar    1  UNL1        0.0712
@<TRIPOS>BOND
     1    33    34    1
     2    34    35   ar
     3    35    36   ar
     4    36    37   ar
     5    37    38   ar
     6    38    39   ar
     7    39    32    1
     8    32     1    1
     9     1     2    1
    10     2     3    1
    11     3     4    1
    12     4     5    1
    13     5     6    1
    14     4     7    1
    15     7     8    2
    16     7     9   am
    17     9    21    1
    18    21    22   ar
    19    22    23   ar
    20    23    24   ar
    21    24    27    1
    22    27    28   ar
    23    28    29   ar
    24    29    30   ar
    25    30    31   ar
    26    24    25   ar
    27    25    26   ar
    28     9    10   am
    29    10    11    2
    30    10    12   am
    31    12    13    1
    32    13    14   ar
    33    14    15   ar
    34    15    16    1
    35    15    17   ar
    36    17    18   ar
    37    18    19   ar
    38    39    34   ar
    39     6     1    1
    40    26    21   ar
    41    19    13   ar
    42    12     4    1
    43    31    27   ar
    44    16    20    1
@<TRIPOS>MOLECULE
*****
 39 44 0 0 0
SMALL
GASTEIGER

@<TRIPOS>ATOM
      1 N           2.6893   -0.3465   20.9738 N.3     1  UNL1       -0.2676
      2 C           1.9701    0.9288   21.2997 C.3     1  UNL1        0.0746
      3 C           1.8204    1.3614   22.7282 C.3     1  UNL1        0.0449
      4 C           2.3900    0.5187   23.8306 C.3     1  UNL1        0.1391
      5 C           3.1092   -0.7566   23.5047 C.3     1  UNL1        0.0449
      6 C           3.2589   -1.1892   22.0763 C.3     1  UNL1        0.0746
      7 C           2.9040   -0.2163   25.0330 C.2     1  UNL1        0.2529
      8 O           3.6580   -1.5129   25.0180 O.2     1  UNL1       -0.2724
      9 N           2.5317    0.5731   26.2530 N.am    1  UNL1       -0.1907
     10 C           1.7876    1.7959   25.8047 C.2     1  UNL1        0.3219
     11 O           1.2291    2.8646   26.6967 O.2     1  UNL1       -0.2512
     12 N           1.7000    1.7623   24.3076 N.am    1  UNL1       -0.2222
     13 C           1.0386    2.7915   23.4398 C.ar    1  UNL1        0.1453
     14 C          -0.4218    2.6747   23.1177 C.ar    1  UNL1        0.0922
     15 C          -1.0831    3.7039   22.2499 C.ar    1  UNL1        0.2259
     16 O          -2.5435    3.5871   21.9278 O.3     1  UNL1       -0.4919
     17 N          -0.2842    4.8502   21.7040 N.ar    1  UNL1       -0.1894
     18 C           1.1762    4.9670   22.0260 C.ar    1  UNL1        0.2027
     19 N           1.8375    3.9378   22.8939 N.ar    1  UNL1       -0.2084
     20 H          -3.0426    2.8711   22.2688 H       1  UNL1        0.2938
     21 C           2.8480    0.2043   27.6722 C.ar    1  UNL1        0.0622
     22 C           4.2732    0.1697   28.1382 C.ar    1  UNL1        0.0155
     23 C           4.5895   -0.1991   29.5573 C.ar    1  UNL1        0.0044
     24 C           3.4806   -0.5331   30.5104 C.ar    1  UNL1        0.0373
     25 C           2.0552   -0.4985   30.0444 C.ar    1  UNL1        0.0044
     26 C           1.7389   -0.1297   28.6252 C.ar    1  UNL1        0.0155
     27 C           3.7968   -0.9019   31.9296 C.ar    1  UNL1        0.1769
     28 C           4.3390    0.0210   32.9805 C.ar    1  UNL1        0.0642
     29 C           4.5037   -0.7650   34.2474 C.ar    1  UNL1        0.1438
     30 N           4.0634   -2.1736   33.9795 N.ar    1  UNL1       -0.0753
     31 O           3.6266   -2.2582   32.5470 O.2     1  UNL1       -0.3533
     32 C           2.8390   -0.7792   19.5453 C.3     1  UNL1        0.1183
     33 C           3.4143   -3.7081   19.2444 C.3     1  UNL1        0.0323
     34 C           4.4623   -2.6971   18.8846 C.ar    1  UNL1       -0.0069
     35 C           5.7980   -3.1506   18.3744 C.ar    1  UNL1       -0.0015
     36 C           6.8460   -2.1396   18.0145 C.ar    1  UNL1        0.0203
     37 C           6.5584   -0.6751   18.1650 C.ar    1  UNL1        0.0985
     38 N           5.2227   -0.2216   18.6753 N.ar    1  UNL1       -0.2471
     39 C           4.1747   -1.2326   19.0351 C.ar    1  UNL1        0.0712
@<TRIPOS>BOND
     1    33    34    1
     2    34    35   ar
     3    35    36   ar
     4    36    37   ar
     5    37    38   ar
     6    38    39   ar
     7    39    32    1
     8    32     1    1
     9     1     2    1
    10     2     3    1
    11     3     4    1
    12     4     5    1
    13     5     6    1
    14     4     7    1
    15     7     8    2
    16     7     9   am
    17     9    21    1
    18    21    22   ar
    19    22    23   ar
    20    23    24   ar
    21    24    27    1
    22    27    28   ar
    23    28    29   ar
    24    29    30   ar
    25    30    31   ar
    26    24    25   ar
    27    25    26   ar
    28     9    10   am
    29    10    11    2
    30    10    12   am
    31    12    13    1
    32    13    14   ar
    33    14    15   ar
    34    15    16    1
    35    15    17   ar
    36    17    18   ar
    37    18    19   ar
    38    39    34   ar
    39     6     1    1
    40    26    21   ar
    41    19    13   ar
    42    12     4    1
    43    31    27   ar
    44    16    20    1
@<TRIPOS>MOLECULE
*****
 39 44 0 0 0
SMALL
GASTEIGER

@<TRIPOS>ATOM
      1 N           2.8322   -0.8117   21.6330 N.3     1  UNL1       -0.2676
      2 C           2.5536   -0.0490   22.8943 C.3     1  UNL1        0.0746
      3 C           1.4773    0.9954   22.9170 C.3     1  UNL1        0.0449
      4 C           0.6794    1.2772   21.6784 C.3     1  UNL1        0.1391
      5 C           0.9580    0.5146   20.4172 C.3     1  UNL1        0.0449
      6 C           2.0344   -0.5298   20.3945 C.3     1  UNL1        0.0746
      7 C          -0.1958    1.6665   20.5241 C.2     1  UNL1        0.2529
      8 O          -0.1483    1.0798   19.1444 O.2     1  UNL1       -0.2724
      9 N          -1.1269    2.7457   20.9917 N.am    1  UNL1       -0.1907
     10 C          -0.8271    3.0233   22.4350 C.2     1  UNL1        0.3219
     11 O          -1.5217    4.0314   23.3017 O.2     1  UNL1       -0.2512
     12 N           0.2892    2.1157   22.8594 N.am    1  UNL1       -0.2222
     13 C           0.9070    2.0570   24.2250 C.ar    1  UNL1        0.1453
     14 C           0.2877    1.2042   25.2923 C.ar    1  UNL1        0.0922
     15 C           0.9056    1.1455   26.6579 C.ar    1  UNL1        0.2259
     16 O           0.2863    0.2927   27.7252 O.3     1  UNL1       -0.4919
     17 N           2.1427    1.9395   26.9562 N.ar    1  UNL1       -0.1894
     18 C           2.7620    2.7923   25.8889 C.ar    1  UNL1        0.2027
     19 N           2.1442    2.8510   24.5233 N.ar    1  UNL1       -0.2084
     20 H          -0.4865   -0.2034   27.5389 H       1  UNL1        0.2938
     21 C          -2.1739    3.4275   20.1617 C.ar    1  UNL1        0.0622
     22 C          -1.7753    4.2078   18.9444 C.ar    1  UNL1        0.0155
     23 C          -2.8223    4.8896   18.1144 C.ar    1  UNL1        0.0044
     24 C          -4.2680    4.7911   18.5018 C.ar    1  UNL1        0.0373
     25 C          -4.6667    4.0106   19.7192 C.ar    1  UNL1        0.0044
     26 C          -3.6197    3.3288   20.5491 C.ar    1  UNL1        0.0155
     27 C          -5.3150    5.4728   17.6718 C.ar    1  UNL1        0.1769
     28 C          -5.2486    6.8768   17.1477 C.ar    1  UNL1        0.0642
     29 C          -6.5048    7.1420   16.3722 C.ar    1  UNL1        0.1438
     30 N          -7.3477    5.9021   16.4170 N.ar    1  UNL1       -0.0753
     31 O          -6.6124    4.8705   17.2202 O.2     1  UNL1       -0.3533
     32 C           3.9086   -1.8561   21.6103 C.3     1  UNL1        0.1183
     33 C           3.4325   -3.8476   19.4177 C.3     1  UNL1        0.0323
     34 C           4.6165   -2.9289   19.3524 C.ar    1  UNL1       -0.0069
     35 C           5.5624   -3.0060   18.1908 C.ar    1  UNL1       -0.0015
     36 C           6.7463   -2.0873   18.1255 C.ar    1  UNL1        0.0203
     37 C           6.9844   -1.0915   19.2218 C.ar    1  UNL1        0.0985
     38 N           6.0385   -1.0145   20.3834 N.ar    1  UNL1       -0.2471
     39 C           4.8545   -1.9332   20.4487 C.ar    1  UNL1        0.0712
@<TRIPOS>BOND
     1    33    34    1
     2    34    35   ar
     3    35    36   ar
     4    36    37   ar
     5    37    38   ar
     6    38    39   ar
     7    39    32    1
     8    32     1    1
     9     1     2    1
    10     2     3    1
    11     3     4    1
    12     4     5    1
    13     5     6    1
    14     4     7    1
    15     7     8    2
    16     7     9   am
    17     9    21    1
    18    21    22   ar
    19    22    23   ar
    20    23    24   ar
    21    24    27    1
    22    27    28   ar
    23    28    29   ar
    24    29    30   ar
    25    30    31   ar
    26    24    25   ar
    27    25    26   ar
    28     9    10   am
    29    10    11    2
    30    10    12   am
    31    12    13    1
    32    13    14   ar
    33    14    15   ar
    34    15    16    1
    35    15    17   ar
    36    17    18   ar
    37    18    19   ar
    38    39    34   ar
    39     6     1    1
    40    26    21   ar
    41    19    13   ar
    42    12     4    1
    43    31    27   ar
    44    16    20    1
@<TRIPOS>MOLECULE
*****
 39 44 0 0 0
SMALL
GASTEIGER

@<TRIPOS>ATOM
      1 N           5.5726   -1.8649   24.7843 N.3     1  UNL1       -0.2676
      2 C           6.3289   -3.0492   25.3090 C.3     1  UNL1        0.0746
      3 C           6.4931   -3.2390   26.7879 C.3     1  UNL1        0.0449
      4 C           5.9011   -2.2444   27.7420 C.3     1  UNL1        0.1391
      5 C           5.1449   -1.0600   27.2173 C.3     1  UNL1        0.0449
      6 C           4.9806   -0.8703   25.7384 C.3     1  UNL1        0.0746
      7 C           5.3679   -1.3381   28.8118 C.2     1  UNL1        0.2529
      8 O           4.5769   -0.0830   28.5906 O.2     1  UNL1       -0.2724
      9 N           5.7647   -1.9074   30.1417 N.am    1  UNL1       -0.1907
     10 C           6.5431   -3.1655   29.8938 C.2     1  UNL1        0.3219
     11 O           7.1335   -4.0584   30.9444 O.2     1  UNL1       -0.2512
     12 N           6.6274   -3.3737   28.4107 N.am    1  UNL1       -0.2222
     13 C           7.3169   -4.5115   27.7179 C.ar    1  UNL1        0.1453
     14 C           6.5718   -5.7836   27.4415 C.ar    1  UNL1        0.0922
     15 C           7.2614   -6.9213   26.7487 C.ar    1  UNL1        0.2259
     16 O           6.5162   -8.1934   26.4722 O.3     1  UNL1       -0.4919
     17 N           8.6962   -6.7870   26.3323 N.ar    1  UNL1       -0.1894
     18 C           9.4414   -5.5149   26.6087 C.ar    1  UNL1        0.2027
     19 N           8.7518   -4.3772   27.3015 N.ar    1  UNL1       -0.2084
     20 H           5.6199   -8.2774   26.7323 H       1  UNL1        0.2938
     21 C           5.4401   -1.3215   31.4838 C.ar    1  UNL1        0.0622
     22 C           5.9201    0.0549   31.8373 C.ar    1  UNL1        0.0155
     23 C           5.5955    0.6408   33.1794 C.ar    1  UNL1        0.0044
     24 C           4.7908   -0.1497   34.1681 C.ar    1  UNL1        0.0373
     25 C           4.3107   -1.5261   33.8146 C.ar    1  UNL1        0.0044
     26 C           4.6354   -2.1121   32.4725 C.ar    1  UNL1        0.0155
     27 C           4.4662    0.4362   35.5102 C.ar    1  UNL1        0.1769
     28 C           3.6189    1.6483   35.7615 C.ar    1  UNL1        0.0642
     29 C           3.5609    1.8741   37.2433 C.ar    1  UNL1        0.1438
     30 N           4.3722    0.8017   37.9078 N.ar    1  UNL1       -0.0753
     31 O           4.9317   -0.0870   36.8366 O.2     1  UNL1       -0.3533
     32 C           5.4083   -1.6750   23.3054 C.3     1  UNL1        0.1183
     33 C           4.5833   -3.9305   21.5075 C.3     1  UNL1        0.0323
     34 C           5.9882   -3.4072   21.4579 C.ar    1  UNL1       -0.0069
     35 C           6.9806   -4.0117   20.5093 C.ar    1  UNL1       -0.0015
     36 C           8.3855   -3.4885   20.4597 C.ar    1  UNL1        0.0203
     37 C           8.7980   -2.3608   21.3586 C.ar    1  UNL1        0.0985
     38 N           7.8056   -1.7563   22.3073 N.ar    1  UNL1       -0.2471
     39 C           6.4007   -2.2795   22.3569 C.ar    1  UNL1        0.0712
@<TRIPOS>BOND
     1    33    34    1
     2    34    35   ar
     3    35    36   ar
     4    36    37   ar
     5    37    38   ar
     6    38    39   ar
     7    39    32    1
     8    32     1    1
     9     1     2    1
    10     2     3    1
    11     3     4    1
    12     4     5    1
    13     5     6    1
    14     4     7    1
    15     7     8    2
    16     7     9   am
    17     9    21    1
    18    21    22   ar
    19    22    23   ar
    20    23    24   ar
    21    24    27    1
    22    27    28   ar
    23    28    29   ar
    24    29    30   ar
    25    30    31   ar
    26    24    25   ar
    27    25    26   ar
    28     9    10   am
    29    10    11    2
    30    10    12   am
    31    12    13    1
    32    13    14   ar
    33    14    15   ar
    34    15    16    1
    35    15    17   ar
    36    17    18   ar
    37    18    19   ar
    38    39    34   ar
    39     6     1    1
    40    26    21   ar
    41    19    13   ar
    42    12     4    1
    43    31    27   ar
    44    16    20    1
