@<TRIPOS>MOLECULE
*****
 32 35 0 0 0
SMALL
GASTEIGER

@<TRIPOS>ATOM
      1 C           1.5727    0.6985   19.8002 C.3     1  UNL1        0.1356
      2 C           1.9925   -0.6244   20.3691 C.3     1  UNL1        0.0241
      3 C           3.0257   -1.4508   19.6623 C.3     1  UNL1        0.0034
      4 C           3.6391   -0.9543   18.3867 C.3     1  UNL1        0.0182
      5 C           3.2193    0.3686   17.8178 C.3     1  UNL1        0.0034
      6 C           2.1861    1.1950   18.5245 C.3     1  UNL1        0.0241
      7 S           0.5394    1.5249   20.5069 S.O2    1  UNL1        0.0266
      8 O           1.2923    2.7720   20.1495 O.2     1  UNL1       -0.1671
      9 O          -0.2135    0.2778   20.8644 O.2     1  UNL1       -0.1671
     10 C          -1.8886    4.5166   24.1174 C.3     1  UNL1        0.1556
     11 N          -1.6099    3.7264   22.8732 N.ar    1  UNL1       -0.2268
     12 C          -0.3343    3.0044   22.5546 C.ar    1  UNL1        0.1364
     13 C          -0.4938    2.3513   21.2137 C.ar    1  UNL1        0.2275
     14 N          -1.8680    2.6696   20.7036 N.ar    1  UNL1       -0.1100
     15 N          -2.5578    3.5195   21.7292 N.ar    1  UNL1       -0.0625
     16 C           4.3588   -2.2625   18.5298 C.3     1  UNL1        0.0896
     17 N           5.3263   -2.4669   19.6577 N.am    1  UNL1       -0.3008
     18 C           5.6657   -3.8554   20.1124 C.2     1  UNL1        0.2467
     19 O           5.0377   -5.0397   19.4392 O.2     1  UNL1       -0.2701
     20 H           5.7385   -1.6897   20.0996 H       1  UNL1        0.1497
     21 C           6.6332   -4.0597   21.2403 C.ar    1  UNL1        0.0640
     22 C           8.0554   -4.4377   20.9494 C.ar    1  UNL1        0.0062
     23 C           9.0228   -4.6420   22.0774 C.ar    1  UNL1        0.0116
     24 C           8.5682   -4.4683   23.4962 C.ar    1  UNL1        0.0585
     25 CL          9.5357   -4.6726   24.6241 Cl      1  UNL1       -0.0822
     26 C           7.1460   -4.0903   23.7871 C.ar    1  UNL1        0.0229
     27 C           6.1786   -3.8861   22.6592 C.ar    1  UNL1        0.0629
     28 CL          4.7564   -3.5081   22.9501 Cl      1  UNL1       -0.0821
     29 C           4.5025   -0.9122   17.1608 C.3     1  UNL1        0.0016
     30 C           5.7089   -0.0217   17.1232 C.3     1  UNL1        0.0001
     31 C           6.9991    0.4440   17.7302 C.3     1  UNL1        0.0000
     32 C           6.5084    1.0550   16.4512 C.3     1  UNL1        0.0000
@<TRIPOS>BOND
     1    10    11    1
     2    11    12   ar
     3    12    13   ar
     4    13     7    1
     5     7     8    2
     6     7     9    2
     7     1     7    1
     8     1     2    1
     9     2     3    1
    10     3     4    1
    11     4    16    1
    12    16    17    1
    13    17    18   am
    14    18    19    2
    15    18    21    1
    16    21    22   ar
    17    22    23   ar
    18    23    24   ar
    19    24    25    1
    20    24    26   ar
    21    26    27   ar
    22    27    28    1
    23     4    29    1
    24    29    30    1
    25    30    31    1
    26    31    32    1
    27     4     5    1
    28     5     6    1
    29    13    14   ar
    30    14    15   ar
    31    15    11   ar
    32     6     1    1
    33    27    21   ar
    34    32    30    1
    35    17    20    1
@<TRIPOS>MOLECULE
*****
 32 35 0 0 0
SMALL
GASTEIGER

@<TRIPOS>ATOM
      1 C           6.1948   -3.9169   22.5133 C.3     1  UNL1        0.1356
      2 C           7.0178   -3.5819   21.3048 C.3     1  UNL1        0.0241
      3 C           6.3478   -3.1091   20.0488 C.3     1  UNL1        0.0034
      4 C           4.8549   -2.9714   20.0012 C.3     1  UNL1        0.0182
      5 C           4.0319   -3.3064   21.2097 C.3     1  UNL1        0.0034
      6 C           4.7019   -3.7791   22.4657 C.3     1  UNL1        0.0241
      7 S           6.8647   -4.3897   23.7694 S.O2    1  UNL1        0.0266
      8 O           6.1265   -3.3471   24.5555 O.2     1  UNL1       -0.1671
      9 O           7.6029   -5.4323   22.9832 O.2     1  UNL1       -0.1671
     10 C           7.6515   -6.1179   28.6963 C.3     1  UNL1        0.1556
     11 N           7.8962   -5.6569   27.2901 N.ar    1  UNL1       -0.2268
     12 C           6.8455   -5.2485   26.3006 C.ar    1  UNL1        0.1364
     13 C           7.5346   -4.8625   25.0254 C.ar    1  UNL1        0.2275
     14 N           9.0113   -5.0324   25.2267 N.ar    1  UNL1       -0.1100
     15 N           9.2348   -5.5234   26.6264 N.ar    1  UNL1       -0.0625
     16 C           5.2012   -2.5360   18.6082 C.3     1  UNL1        0.0896
     17 N           5.8005   -1.1812   18.3729 N.am    1  UNL1       -0.3008
     18 C           5.2954   -0.3219   17.2520 C.2     1  UNL1        0.2467
     19 O           4.1908   -0.8175   16.3663 O.2     1  UNL1       -0.2701
     20 H           6.5255   -0.8560   18.9542 H       1  UNL1        0.1497
     21 C           5.8948    1.0328   17.0168 C.ar    1  UNL1        0.0640
     22 C           7.1573    1.1659   16.2177 C.ar    1  UNL1        0.0062
     23 C           7.7566    2.5207   15.9826 C.ar    1  UNL1        0.0116
     24 C           7.0935    3.7424   16.5464 C.ar    1  UNL1        0.0585
     25 CL          7.6929    5.0971   16.3112 Cl      1  UNL1       -0.0822
     26 C           5.8310    3.6092   17.3454 C.ar    1  UNL1        0.0229
     27 C           5.2317    2.2544   17.5806 C.ar    1  UNL1        0.0629
     28 CL          3.9692    2.1213   18.3796 Cl      1  UNL1       -0.0821
     29 C           3.4823   -2.6824   19.4698 C.3     1  UNL1        0.0016
     30 C           2.6953   -1.5271   20.0138 C.3     1  UNL1        0.0001
     31 C           1.3815   -0.8344   20.2238 C.3     1  UNL1        0.0000
     32 C           2.6458   -0.2189   20.7458 C.3     1  UNL1        0.0000
@<TRIPOS>BOND
     1    10    11    1
     2    11    12   ar
     3    12    13   ar
     4    13     7    1
     5     7     8    2
     6     7     9    2
     7     1     7    1
     8     1     2    1
     9     2     3    1
    10     3     4    1
    11     4    16    1
    12    16    17    1
    13    17    18   am
    14    18    19    2
    15    18    21    1
    16    21    22   ar
    17    22    23   ar
    18    23    24   ar
    19    24    25    1
    20    24    26   ar
    21    26    27   ar
    22    27    28    1
    23     4    29    1
    24    29    30    1
    25    30    31    1
    26    31    32    1
    27     4     5    1
    28     5     6    1
    29    13    14   ar
    30    14    15   ar
    31    15    11   ar
    32     6     1    1
    33    27    21   ar
    34    32    30    1
    35    17    20    1
@<TRIPOS>MOLECULE
*****
 32 35 0 0 0
SMALL
GASTEIGER

@<TRIPOS>ATOM
      1 C           1.9808    0.3873   29.2325 C.3     1  UNL1        0.1356
      2 C           2.8522    0.6085   28.0318 C.3     1  UNL1        0.0241
      3 C           2.2396    1.0214   26.7264 C.3     1  UNL1        0.0034
      4 C           0.7556    1.2132   26.6217 C.3     1  UNL1        0.0182
      5 C          -0.1158    0.9920   27.8224 C.3     1  UNL1        0.0034
      6 C           0.4968    0.5791   29.1278 C.3     1  UNL1        0.0241
      7 S           2.5934   -0.0257   30.5380 S.O2    1  UNL1        0.0266
      8 O           1.5798    0.7990   31.2745 O.2     1  UNL1       -0.1671
      9 O           3.6070   -0.8503   29.8015 O.2     1  UNL1       -0.1671
     10 C           4.6148    0.1432   35.4130 C.3     1  UNL1        0.1556
     11 N           4.1351   -0.3610   34.0842 N.ar    1  UNL1       -0.2268
     12 C           3.5441    0.4725   32.9861 C.ar    1  UNL1        0.1364
     13 C           3.2060   -0.4386   31.8434 C.ar    1  UNL1        0.2275
     14 N           3.5880   -1.8352   32.2354 N.ar    1  UNL1       -0.1100
     15 N           4.1623   -1.7872   33.6203 N.ar    1  UNL1       -0.0625
     16 C           1.1604    1.5404   25.2149 C.3     1  UNL1        0.0896
     17 N           1.5362    0.4401   24.2673 N.am    1  UNL1       -0.3008
     18 C           2.3760    0.7425   23.0618 C.2     1  UNL1        0.2467
     19 O           2.8401    2.1455   22.8039 O.2     1  UNL1       -0.2701
     20 H           1.2316   -0.4807   24.4365 H       1  UNL1        0.1497
     21 C           2.7517   -0.3579   22.1142 C.ar    1  UNL1        0.0640
     22 C           3.8252   -1.3364   22.4889 C.ar    1  UNL1        0.0062
     23 C           4.2008   -2.4367   21.5413 C.ar    1  UNL1        0.0116
     24 C           3.5031   -2.5587   20.2190 C.ar    1  UNL1        0.0585
     25 CL          3.8788   -3.6591   19.2715 Cl      1  UNL1       -0.0822
     26 C           2.4297   -1.5802   19.8443 C.ar    1  UNL1        0.0229
     27 C           2.0540   -0.4798   20.7920 C.ar    1  UNL1        0.0629
     28 CL          0.9806    0.4987   20.4173 Cl      1  UNL1       -0.0821
     29 C          -0.5878    1.5186   26.0283 C.3     1  UNL1        0.0016
     30 C          -1.2654    2.8209   26.3365 C.3     1  UNL1        0.0001
     31 C          -1.1835    4.2847   26.6530 C.3     1  UNL1        0.0000
     32 C          -2.5208    3.6125   26.5537 C.3     1  UNL1        0.0000
@<TRIPOS>BOND
     1    10    11    1
     2    11    12   ar
     3    12    13   ar
     4    13     7    1
     5     7     8    2
     6     7     9    2
     7     1     7    1
     8     1     2    1
     9     2     3    1
    10     3     4    1
    11     4    16    1
    12    16    17    1
    13    17    18   am
    14    18    19    2
    15    18    21    1
    16    21    22   ar
    17    22    23   ar
    18    23    24   ar
    19    24    25    1
    20    24    26   ar
    21    26    27   ar
    22    27    28    1
    23     4    29    1
    24    29    30    1
    25    30    31    1
    26    31    32    1
    27     4     5    1
    28     5     6    1
    29    13    14   ar
    30    14    15   ar
    31    15    11   ar
    32     6     1    1
    33    27    21   ar
    34    32    30    1
    35    17    20    1
@<TRIPOS>MOLECULE
*****
 32 35 0 0 0
SMALL
GASTEIGER

@<TRIPOS>ATOM
      1 C          -3.2576    3.6257   24.8983 C.3     1  UNL1        0.1356
      2 C          -2.0270    3.2496   24.1276 C.3     1  UNL1        0.0241
      3 C          -0.8094    2.7576   24.8524 C.3     1  UNL1        0.0034
      4 C          -0.8224    2.6418   26.3479 C.3     1  UNL1        0.0182
      5 C          -2.0530    3.0179   27.1186 C.3     1  UNL1        0.0034
      6 C          -3.2706    3.5098   26.3938 C.3     1  UNL1        0.0241
      7 S          -4.4754    4.1176   24.1736 S.O2    1  UNL1        0.0266
      8 O          -5.3507    3.4812   25.2121 O.2     1  UNL1       -0.1671
      9 O          -3.6000    4.7541   23.1350 O.2     1  UNL1       -0.1671
     10 C          -7.6393    6.0886   20.4339 C.3     1  UNL1        0.1556
     11 N          -7.1473    5.5156   21.7298 N.ar    1  UNL1       -0.2268
     12 C          -5.7300    5.1397   22.0461 C.ar    1  UNL1        0.1364
     13 C          -5.6930    4.6096   23.4488 C.ar    1  UNL1        0.2275
     14 N          -7.0874    4.6579   23.9995 N.ar    1  UNL1       -0.1100
     15 N          -7.9862    5.2178   22.9372 N.ar    1  UNL1       -0.0625
     16 C           0.5719    2.1684   26.0620 C.3     1  UNL1        0.0896
     17 N           0.8274    1.2371   24.9143 N.am    1  UNL1       -0.3008
     18 C           2.1622    1.2384   24.2300 C.2     1  UNL1        0.2467
     19 O           3.2417    2.1711   24.6935 O.2     1  UNL1       -0.2701
     20 H           0.1189    0.6249   24.6100 H       1  UNL1        0.1497
     21 C           2.4175    0.3071   23.0822 C.ar    1  UNL1        0.0640
     22 C           3.4136   -0.8052   23.2261 C.ar    1  UNL1        0.0062
     23 C           3.6689   -1.7364   22.0783 C.ar    1  UNL1        0.0116
     24 C           2.9281   -1.5556   20.7866 C.ar    1  UNL1        0.0585
     25 CL          3.1834   -2.4869   19.6388 Cl      1  UNL1       -0.0822
     26 C           1.9320   -0.4433   20.6427 C.ar    1  UNL1        0.0229
     27 C           1.6767    0.4879   21.7905 C.ar    1  UNL1        0.0629
     28 CL          0.6805    1.6002   21.6466 Cl      1  UNL1       -0.0821
     29 C          -0.3511    2.3615   27.7440 C.3     1  UNL1        0.0016
     30 C          -0.4494    0.9736   28.3045 C.3     1  UNL1        0.0001
     31 C          -1.2681   -0.2393   28.6337 C.3     1  UNL1        0.0000
     32 C           0.1989   -0.2172   28.9459 C.3     1  UNL1        0.0000
@<TRIPOS>BOND
     1    10    11    1
     2    11    12   ar
     3    12    13   ar
     4    13     7    1
     5     7     8    2
     6     7     9    2
     7     1     7    1
     8     1     2    1
     9     2     3    1
    10     3     4    1
    11     4    16    1
    12    16    17    1
    13    17    18   am
    14    18    19    2
    15    18    21    1
    16    21    22   ar
    17    22    23   ar
    18    23    24   ar
    19    24    25    1
    20    24    26   ar
    21    26    27   ar
    22    27    28    1
    23     4    29    1
    24    29    30    1
    25    30    31    1
    26    31    32    1
    27     4     5    1
    28     5     6    1
    29    13    14   ar
    30    14    15   ar
    31    15    11   ar
    32     6     1    1
    33    27    21   ar
    34    32    30    1
    35    17    20    1
@<TRIPOS>MOLECULE
*****
 32 35 0 0 0
SMALL
GASTEIGER

@<TRIPOS>ATOM
      1 C           2.6709   -0.2146   22.3690 C.3     1  UNL1        0.1356
      2 C           3.9067   -0.6579   23.0943 C.3     1  UNL1        0.0241
      3 C           4.9276   -1.5015   22.3900 C.3     1  UNL1        0.0034
      4 C           4.7127   -1.9018   20.9605 C.3     1  UNL1        0.0182
      5 C           3.4768   -1.4585   20.2352 C.3     1  UNL1        0.0034
      6 C           2.4559   -0.6148   20.9394 C.3     1  UNL1        0.0241
      7 S           1.6499    0.6291   23.0732 S.O2    1  UNL1        0.0266
      8 O           2.2330    0.2304   24.3964 O.2     1  UNL1       -0.1671
      9 O           1.0667    1.0278   21.7500 O.2     1  UNL1       -0.1671
     10 C          -1.5231    2.6050   26.8027 C.3     1  UNL1        0.1556
     11 N          -0.8296    2.3810   25.4916 N.ar    1  UNL1       -0.2268
     12 C           0.2111    1.3376   25.2117 C.ar    1  UNL1        0.1364
     13 C           0.6289    1.4727   23.7774 C.ar    1  UNL1        0.2275
     14 N          -0.1535    2.5996   23.1709 N.ar    1  UNL1       -0.1100
     15 N          -1.0549    3.1610   24.2303 N.ar    1  UNL1       -0.0625
     16 C           6.0332   -2.5640   21.2207 C.3     1  UNL1        0.0896
     17 N           6.1299   -3.6765   22.2223 N.am    1  UNL1       -0.3008
     18 C           7.4208   -3.9253   22.9446 C.2     1  UNL1        0.2467
     19 O           8.6150   -3.0616   22.6654 O.2     1  UNL1       -0.2701
     20 H           5.3462   -4.2434   22.4056 H       1  UNL1        0.1497
     21 C           7.5175   -5.0377   23.9461 C.ar    1  UNL1        0.0640
     22 C           8.1472   -6.3429   23.5589 C.ar    1  UNL1        0.0062
     23 C           8.2439   -7.4553   24.5605 C.ar    1  UNL1        0.0116
     24 C           7.7108   -7.2626   25.9492 C.ar    1  UNL1        0.0585
     25 CL          7.8075   -8.3751   26.9507 Cl      1  UNL1       -0.0822
     26 C           7.0811   -5.9574   26.3365 C.ar    1  UNL1        0.0229
     27 C           6.9844   -4.8450   25.3349 C.ar    1  UNL1        0.0629
     28 CL          6.3547   -3.5398   25.7221 Cl      1  UNL1       -0.0821
     29 C           4.9564   -2.5321   19.6214 C.3     1  UNL1        0.0016
     30 C           4.4104   -3.8972   19.3243 C.3     1  UNL1        0.0001
     31 C           3.3083   -4.9084   19.4376 C.3     1  UNL1        0.0000
     32 C           4.5667   -5.2505   18.6965 C.3     1  UNL1        0.0000
@<TRIPOS>BOND
     1    10    11    1
     2    11    12   ar
     3    12    13   ar
     4    13     7    1
     5     7     8    2
     6     7     9    2
     7     1     7    1
     8     1     2    1
     9     2     3    1
    10     3     4    1
    11     4    16    1
    12    16    17    1
    13    17    18   am
    14    18    19    2
    15    18    21    1
    16    21    22   ar
    17    22    23   ar
    18    23    24   ar
    19    24    25    1
    20    24    26   ar
    21    26    27   ar
    22    27    28    1
    23     4    29    1
    24    29    30    1
    25    30    31    1
    26    31    32    1
    27     4     5    1
    28     5     6    1
    29    13    14   ar
    30    14    15   ar
    31    15    11   ar
    32     6     1    1
    33    27    21   ar
    34    32    30    1
    35    17    20    1
@<TRIPOS>MOLECULE
*****
 32 35 0 0 0
SMALL
GASTEIGER

@<TRIPOS>ATOM
      1 C           3.9779    0.8620   35.3251 C.3     1  UNL1        0.1356
      2 C           3.6434    1.3312   33.9403 C.3     1  UNL1        0.0241
      3 C           3.7384    0.3814   32.7833 C.3     1  UNL1        0.0034
      4 C           4.1679   -1.0376   33.0111 C.3     1  UNL1        0.0182
      5 C           4.5025   -1.5068   34.3960 C.3     1  UNL1        0.0034
      6 C           4.4075   -0.5570   35.5530 C.3     1  UNL1        0.0241
      7 S           3.8830    1.8119   36.4823 S.O2    1  UNL1        0.0266
      8 O           5.2890    1.4705   36.8779 O.2     1  UNL1       -0.1671
      9 O           2.4770    2.1532   36.0866 O.2     1  UNL1       -0.1671
     10 C           3.9987    6.2248   39.3794 C.3     1  UNL1        0.1556
     11 N           3.8411    4.7901   38.9710 N.ar    1  UNL1       -0.2268
     12 C           4.0548    4.2371   37.5931 C.ar    1  UNL1        0.1364
     13 C           3.7879    2.7617   37.6393 C.ar    1  UNL1        0.2275
     14 N           3.4094    2.4029   39.0457 N.ar    1  UNL1       -0.1100
     15 N           3.4423    3.6565   39.8687 N.ar    1  UNL1       -0.0625
     16 C           3.9571   -1.0645   31.5262 C.3     1  UNL1        0.0896
     17 N           2.8511   -0.2594   30.9110 N.am    1  UNL1       -0.3008
     18 C           2.5266   -0.4200   29.4553 C.2     1  UNL1        0.2467
     19 O           3.3082   -1.3859   28.6149 O.2     1  UNL1       -0.2701
     20 H           2.3381    0.3745   31.4626 H       1  UNL1        0.1497
     21 C           1.4207    0.3851   28.8402 C.ar    1  UNL1        0.0640
     22 C           0.0075   -0.1146   28.8980 C.ar    1  UNL1        0.0062
     23 C          -1.0984    0.6906   28.2828 C.ar    1  UNL1        0.0116
     24 C          -0.7913    1.9955   27.6097 C.ar    1  UNL1        0.0585
     25 CL         -1.8973    2.8006   26.9946 Cl      1  UNL1       -0.0822
     26 C           0.6218    2.4952   27.5519 C.ar    1  UNL1        0.0229
     27 C           1.7278    1.6899   28.1671 C.ar    1  UNL1        0.0629
     28 CL          3.1410    2.1896   28.1093 Cl      1  UNL1       -0.0821
     29 C           4.5242   -2.4660   32.7232 C.3     1  UNL1        0.0016
     30 C           5.9376   -2.8316   32.3786 C.3     1  UNL1        0.0001
     31 C           7.3724   -2.4370   32.1901 C.3     1  UNL1        0.0000
     32 C           6.9507   -3.8596   31.9702 C.3     1  UNL1        0.0000
@<TRIPOS>BOND
     1    10    11    1
     2    11    12   ar
     3    12    13   ar
     4    13     7    1
     5     7     8    2
     6     7     9    2
     7     1     7    1
     8     1     2    1
     9     2     3    1
    10     3     4    1
    11     4    16    1
    12    16    17    1
    13    17    18   am
    14    18    19    2
    15    18    21    1
    16    21    22   ar
    17    22    23   ar
    18    23    24   ar
    19    24    25    1
    20    24    26   ar
    21    26    27   ar
    22    27    28    1
    23     4    29    1
    24    29    30    1
    25    30    31    1
    26    31    32    1
    27     4     5    1
    28     5     6    1
    29    13    14   ar
    30    14    15   ar
    31    15    11   ar
    32     6     1    1
    33    27    21   ar
    34    32    30    1
    35    17    20    1
@<TRIPOS>MOLECULE
*****
 32 35 0 0 0
SMALL
GASTEIGER

@<TRIPOS>ATOM
      1 C           0.2691    2.0630   26.9847 C.3     1  UNL1        0.1356
      2 C           0.6240    1.7971   25.5518 C.3     1  UNL1        0.0241
      3 C          -0.1420    2.4707   24.4520 C.3     1  UNL1        0.0034
      4 C          -1.2630    3.4100   24.7852 C.3     1  UNL1        0.0182
      5 C          -1.6180    3.6759   26.2181 C.3     1  UNL1        0.0034
      6 C          -0.8519    3.0023   27.3178 C.3     1  UNL1        0.0241
      7 S           1.0351    1.3894   28.0845 S.O2    1  UNL1        0.0266
      8 O          -0.0550    1.7348   29.0553 O.2     1  UNL1       -0.1671
      9 O           2.1252    1.0441   27.1137 O.2     1  UNL1       -0.1671
     10 C           4.7836    0.2483   31.6239 C.3     1  UNL1        0.1556
     11 N           3.5242    0.1914   30.8112 N.ar    1  UNL1       -0.2268
     12 C           3.1319    1.1483   29.7248 C.ar    1  UNL1        0.1364
     13 C           1.8011    0.7159   29.1843 C.ar    1  UNL1        0.2275
     14 N           1.3709   -0.5084   29.9367 N.ar    1  UNL1       -0.1100
     15 N           2.4358   -0.8326   30.9421 N.ar    1  UNL1       -0.0625
     16 C          -1.3021    3.4787   23.2873 C.3     1  UNL1        0.0896
     17 N          -0.2888    2.7277   22.4753 N.am    1  UNL1       -0.3008
     18 C          -0.6201    2.2929   21.0785 C.2     1  UNL1        0.2467
     19 O          -1.9647    2.6091   20.4935 O.2     1  UNL1       -0.2701
     20 H           0.5937    2.5202   22.8592 H       1  UNL1        0.1497
     21 C           0.3931    1.5419   20.2666 C.ar    1  UNL1        0.0640
     22 C           0.6922    0.1062   20.5821 C.ar    1  UNL1        0.0062
     23 C           1.7055   -0.6447   19.7701 C.ar    1  UNL1        0.0116
     24 C           2.4198    0.0399   18.6427 C.ar    1  UNL1        0.0585
     25 CL          3.4330   -0.7111   17.8308 Cl      1  UNL1       -0.0822
     26 C           2.1207    1.4755   18.3271 C.ar    1  UNL1        0.0229
     27 C           1.1074    2.2265   19.1391 C.ar    1  UNL1        0.0629
     28 CL          0.8083    3.6621   18.8235 Cl      1  UNL1       -0.0821
     29 C          -2.3975    4.3732   24.5981 C.3     1  UNL1        0.0016
     30 C          -3.8054    3.8645   24.5023 C.3     1  UNL1        0.0001
     31 C          -5.2023    3.7981   25.0445 C.3     1  UNL1        0.0000
     32 C          -4.8468    3.0498   23.7941 C.3     1  UNL1        0.0000
@<TRIPOS>BOND
     1    10    11    1
     2    11    12   ar
     3    12    13   ar
     4    13     7    1
     5     7     8    2
     6     7     9    2
     7     1     7    1
     8     1     2    1
     9     2     3    1
    10     3     4    1
    11     4    16    1
    12    16    17    1
    13    17    18   am
    14    18    19    2
    15    18    21    1
    16    21    22   ar
    17    22    23   ar
    18    23    24   ar
    19    24    25    1
    20    24    26   ar
    21    26    27   ar
    22    27    28    1
    23     4    29    1
    24    29    30    1
    25    30    31    1
    26    31    32    1
    27     4     5    1
    28     5     6    1
    29    13    14   ar
    30    14    15   ar
    31    15    11   ar
    32     6     1    1
    33    27    21   ar
    34    32    30    1
    35    17    20    1
@<TRIPOS>MOLECULE
*****
 32 35 0 0 0
SMALL
GASTEIGER

@<TRIPOS>ATOM
      1 C           6.4997   -3.4465   24.6788 C.3     1  UNL1        0.1356
      2 C           6.1887   -2.0488   24.2319 C.3     1  UNL1        0.0241
      3 C           6.1235   -1.7264   22.7685 C.3     1  UNL1        0.0034
      4 C           6.3693   -2.8017   21.7519 C.3     1  UNL1        0.0182
      5 C           6.6803   -4.1993   22.1988 C.3     1  UNL1        0.0034
      6 C           6.7455   -4.5217   23.6622 C.3     1  UNL1        0.0241
      7 S           6.5650   -3.7690   26.1423 S.O2    1  UNL1        0.0266
      8 O           6.8458   -5.2053   25.8134 O.2     1  UNL1       -0.1671
      9 O           6.2842   -2.3327   26.4713 O.2     1  UNL1       -0.1671
     10 C           6.9321   -3.2603   31.3851 C.3     1  UNL1        0.1556
     11 N           6.7990   -3.8576   30.0157 N.ar    1  UNL1       -0.2268
     12 C           6.7792   -3.0998   28.7213 C.ar    1  UNL1        0.1364
     13 C           6.6302   -4.0914   27.6058 C.ar    1  UNL1        0.2275
     14 N           6.5579   -5.4621   28.2106 N.ar    1  UNL1       -0.1100
     15 N           6.6622   -5.3176   29.7000 N.ar    1  UNL1       -0.0625
     16 C           6.1126   -1.6369   20.8423 C.3     1  UNL1        0.0896
     17 N           4.8421   -0.8500   20.9713 N.am    1  UNL1       -0.3008
     18 C           3.9989   -0.5829   19.7599 C.2     1  UNL1        0.2467
     19 O           4.4261   -1.1028   18.4193 O.2     1  UNL1       -0.2701
     20 H           4.5617   -0.5088   21.8512 H       1  UNL1        0.1497
     21 C           2.7284    0.2039   19.8891 C.ar    1  UNL1        0.0640
     22 C           1.5054   -0.4372   20.4748 C.ar    1  UNL1        0.0062
     23 C           0.2349    0.3497   20.6040 C.ar    1  UNL1        0.0116
     24 C           0.1875    1.7777   20.1474 C.ar    1  UNL1        0.0585
     25 CL         -1.0830    2.5646   20.2766 Cl      1  UNL1       -0.0822
     26 C           1.4106    2.4189   19.5617 C.ar    1  UNL1        0.0229
     27 C           2.6810    1.6320   19.4326 C.ar    1  UNL1        0.0629
     28 CL          3.9041    2.2731   18.8468 Cl      1  UNL1       -0.0821
     29 C           6.5259   -3.4723   20.4194 C.3     1  UNL1        0.0016
     30 C           5.3507   -4.1474   19.7766 C.3     1  UNL1        0.0001
     31 C           3.8992   -4.5249   19.7957 C.3     1  UNL1        0.0000
     32 C           4.7668   -4.9390   18.6442 C.3     1  UNL1        0.0000
@<TRIPOS>BOND
     1    10    11    1
     2    11    12   ar
     3    12    13   ar
     4    13     7    1
     5     7     8    2
     6     7     9    2
     7     1     7    1
     8     1     2    1
     9     2     3    1
    10     3     4    1
    11     4    16    1
    12    16    17    1
    13    17    18   am
    14    18    19    2
    15    18    21    1
    16    21    22   ar
    17    22    23   ar
    18    23    24   ar
    19    24    25    1
    20    24    26   ar
    21    26    27   ar
    22    27    28    1
    23     4    29    1
    24    29    30    1
    25    30    31    1
    26    31    32    1
    27     4     5    1
    28     5     6    1
    29    13    14   ar
    30    14    15   ar
    31    15    11   ar
    32     6     1    1
    33    27    21   ar
    34    32    30    1
    35    17    20    1
@<TRIPOS>MOLECULE
*****
 32 35 0 0 0
SMALL
GASTEIGER

@<TRIPOS>ATOM
      1 C           1.1217    1.6280   28.8306 C.3     1  UNL1        0.1356
      2 C           0.9894    0.8439   27.5588 C.3     1  UNL1        0.0241
      3 C           0.2884    1.4450   26.3767 C.3     1  UNL1        0.0034
      4 C          -0.2802    2.8301   26.4665 C.3     1  UNL1        0.0182
      5 C          -0.1479    3.6142   27.7383 C.3     1  UNL1        0.0034
      6 C           0.5531    3.0131   28.9204 C.3     1  UNL1        0.0241
      7 S           1.8227    1.0270   30.0128 S.O2    1  UNL1        0.0266
      8 O           0.9040   -0.1574   29.9554 O.2     1  UNL1       -0.1671
      9 O           2.7413    2.2113   30.0702 O.2     1  UNL1       -0.1671
     10 C           4.2634    0.4889   34.6640 C.3     1  UNL1        0.1556
     11 N           3.6455    0.1787   33.3329 N.ar    1  UNL1       -0.2268
     12 C           3.0055    1.1689   32.4056 C.ar    1  UNL1        0.1364
     13 C           2.5236    0.4260   31.1949 C.ar    1  UNL1        0.2275
     14 N           2.8658   -1.0234   31.3739 N.ar    1  UNL1       -0.1100
     15 N           3.5591   -1.1763   32.6952 N.ar    1  UNL1       -0.0625
     16 C          -0.6552    2.4855   25.0556 C.3     1  UNL1        0.0896
     17 N           0.0792    1.3983   24.3284 N.am    1  UNL1       -0.3008
     18 C           0.8339    1.7141   23.0712 C.2     1  UNL1        0.2467
     19 O           0.8542    3.1172   22.5410 O.2     1  UNL1       -0.2701
     20 H           0.0659    0.4775   24.6764 H       1  UNL1        0.1497
     21 C           1.5682    0.6269   22.3442 C.ar    1  UNL1        0.0640
     22 C           2.7146   -0.0772   23.0076 C.ar    1  UNL1        0.0062
     23 C           3.4489   -1.1644   22.2805 C.ar    1  UNL1        0.0116
     24 C           3.0370   -1.5475   20.8900 C.ar    1  UNL1        0.0585
     25 CL          3.7714   -2.6347   20.1629 Cl      1  UNL1       -0.0822
     26 C           1.8906   -0.8434   20.2265 C.ar    1  UNL1        0.0229
     27 C           1.1563    0.2438   20.9537 C.ar    1  UNL1        0.0629
     28 CL          0.0099    0.9479   20.2902 Cl      1  UNL1       -0.0821
     29 C          -0.9791    4.0955   26.0662 C.3     1  UNL1        0.0016
     30 C          -2.3898    4.3459   26.5100 C.3     1  UNL1        0.0001
     31 C          -3.8030    3.8712   26.6762 C.3     1  UNL1        0.0000
     32 C          -3.4202    5.2543   27.1127 C.3     1  UNL1        0.0000
@<TRIPOS>BOND
     1    10    11    1
     2    11    12   ar
     3    12    13   ar
     4    13     7    1
     5     7     8    2
     6     7     9    2
     7     1     7    1
     8     1     2    1
     9     2     3    1
    10     3     4    1
    11     4    16    1
    12    16    17    1
    13    17    18   am
    14    18    19    2
    15    18    21    1
    16    21    22   ar
    17    22    23   ar
    18    23    24   ar
    19    24    25    1
    20    24    26   ar
    21    26    27   ar
    22    27    28    1
    23     4    29    1
    24    29    30    1
    25    30    31    1
    26    31    32    1
    27     4     5    1
    28     5     6    1
    29    13    14   ar
    30    14    15   ar
    31    15    11   ar
    32     6     1    1
    33    27    21   ar
    34    32    30    1
    35    17    20    1
