@<TRIPOS>MOLECULE
*****
 39 44 0 0 0
SMALL
GASTEIGER

@<TRIPOS>ATOM
      1 O           9.5318   -7.2688   26.5066 O.2     1  UNL1       -0.2749
      2 C           8.7197   -6.0136   26.6286 C.2     1  UNL1        0.2252
      3 N           8.2352   -5.3111   25.3950 N.am    1  UNL1       -0.2794
      4 C           8.5628   -5.8637   24.0396 C.3     1  UNL1        0.0953
      5 C           8.0784   -5.1612   22.8060 C.3     1  UNL1        0.0442
      6 C           7.2661   -3.9059   22.9279 C.3     1  UNL1        0.0933
      7 C           6.9385   -3.3534   24.2832 C.3     1  UNL1        0.0442
      8 C           7.4230   -4.0559   25.5168 C.3     1  UNL1        0.0953
      9 N           6.7816   -3.2034   21.6943 N.ar    1  UNL1       -0.2817
     10 C           5.4671   -3.4312   21.0087 C.ar    1  UNL1        0.3317
     11 O           4.4062   -4.4016   21.4364 O.2     1  UNL1       -0.2463
     12 N           5.3997   -2.5183   19.8204 N.ar    1  UNL1       -0.2758
     13 C           6.6726   -1.7263   19.7716 C.ar    1  UNL1        0.0800
     14 C           7.1643   -0.6742   18.8222 C.ar    1  UNL1        0.0188
     15 C           8.5101   -0.0456   19.0309 C.ar    1  UNL1        0.0016
     16 C           9.3642   -0.4690   20.1890 C.ar    1  UNL1        0.0016
     17 C           8.8725   -1.5211   21.1384 C.ar    1  UNL1        0.0188
     18 C           7.5267   -2.1497   20.9297 C.ar    1  UNL1        0.0796
     19 C           4.2596   -2.4154   18.8511 C.3     1  UNL1        0.1373
     20 C           3.2559   -1.3091   18.9885 C.ar    1  UNL1        0.0006
     21 C           2.1302   -1.4355   19.9718 C.ar    1  UNL1       -0.0015
     22 C           1.1266   -0.3293   20.1091 C.ar    1  UNL1        0.0111
     23 C           1.2486    0.9034   19.2631 C.ar    1  UNL1        0.0577
     24 CL          0.2449    2.0096   19.4004 Cl      1  UNL1       -0.0822
     25 C           2.3742    1.0297   18.2798 C.ar    1  UNL1        0.0111
     26 C           3.3779   -0.0765   18.1424 C.ar    1  UNL1       -0.0015
     27 C           8.3920   -5.4610   27.9840 C.3     1  UNL1        0.0795
     28 C           9.2564   -4.3943   28.5880 C.3     1  UNL1        0.0264
     29 C           8.9288   -3.8417   29.9435 C.3     1  UNL1        0.0729
     30 N           7.7366   -4.3557   30.6948 N.3     1  UNL1       -0.2689
     31 C           6.8721   -5.4224   30.0908 C.3     1  UNL1        0.0729
     32 C           7.1998   -5.9751   28.7353 C.3     1  UNL1        0.0264
     33 C           7.4089   -3.8030   32.0503 C.3     1  UNL1        0.0992
     34 C           6.5414   -2.5857   32.1742 C.ar    1  UNL1       -0.0031
     35 C           5.1757   -2.6971   32.7846 C.ar    1  UNL1        0.0178
     36 C           4.3080   -1.4798   32.9086 C.ar    1  UNL1        0.0986
     37 N           4.8061   -0.1511   32.4223 N.ar    1  UNL1       -0.2423
     38 C           6.1718   -0.0397   31.8119 C.ar    1  UNL1        0.0986
     39 C           7.0394   -1.2570   31.6879 C.ar    1  UNL1        0.0178
@<TRIPOS>BOND
     1     1     2    2
     2     2    27    1
     3    27    28    1
     4    28    29    1
     5    29    30    1
     6    30    33    1
     7    33    34    1
     8    34    35   ar
     9    35    36   ar
    10    36    37   ar
    11    37    38   ar
    12    38    39   ar
    13    30    31    1
    14    31    32    1
    15     2     3   am
    16     3     4    1
    17     4     5    1
    18     5     6    1
    19     6     9    1
    20     9    10   ar
    21    10    11    2
    22    10    12   ar
    23    12    19    1
    24    19    20    1
    25    20    21   ar
    26    21    22   ar
    27    22    23   ar
    28    23    24    1
    29    23    25   ar
    30    25    26   ar
    31    12    13   ar
    32    13    14   ar
    33    14    15   ar
    34    15    16   ar
    35    16    17   ar
    36    17    18   ar
    37     6     7    1
    38     7     8    1
    39    32    27    1
    40     8     3    1
    41    39    34   ar
    42    18     9   ar
    43    26    20   ar
    44    18    13   ar
@<TRIPOS>MOLECULE
*****
 39 44 0 0 0
SMALL
GASTEIGER

@<TRIPOS>ATOM
      1 O          -3.2813    5.1994   18.8506 O.2     1  UNL1       -0.2749
      2 C          -2.7322    4.3794   19.9802 C.2     1  UNL1        0.2252
      3 N          -1.4948    3.5563   19.7770 N.am    1  UNL1       -0.2794
      4 C          -0.8065    3.5532   18.4443 C.3     1  UNL1        0.0953
      5 C           0.4309    2.7301   18.2411 C.3     1  UNL1        0.0442
      6 C           0.9801    1.9100   19.3708 C.3     1  UNL1        0.0933
      7 C           0.2918    1.9131   20.7034 C.3     1  UNL1        0.0442
      8 C          -0.9457    2.7363   20.9066 C.3     1  UNL1        0.0953
      9 N           2.2175    1.0869   19.1676 N.ar    1  UNL1       -0.2817
     10 C           2.3503   -0.3844   19.4278 C.ar    1  UNL1        0.3317
     11 O           1.2691   -1.2909   19.9369 O.2     1  UNL1       -0.2463
     12 N           3.7543   -0.7899   19.0896 N.ar    1  UNL1       -0.2758
     13 C           4.4891    0.4306   18.6203 C.ar    1  UNL1        0.0800
     14 C           5.9004    0.6357   18.1554 C.ar    1  UNL1        0.0188
     15 C           6.3619    2.0007   17.7386 C.ar    1  UNL1        0.0016
     16 C           5.4121    3.1607   17.7869 C.ar    1  UNL1        0.0016
     17 C           4.0008    2.9556   18.2518 C.ar    1  UNL1        0.0188
     18 C           3.5393    1.5906   18.6685 C.ar    1  UNL1        0.0796
     19 C           4.3235   -2.1733   19.2010 C.3     1  UNL1        0.1373
     20 C           4.8676   -2.6570   20.5126 C.ar    1  UNL1        0.0006
     21 C           6.1943   -3.3551   20.5625 C.ar    1  UNL1       -0.0015
     22 C           6.7384   -3.8388   21.8739 C.ar    1  UNL1        0.0111
     23 C           5.9557   -3.6245   23.1355 C.ar    1  UNL1        0.0577
     24 CL          6.4997   -4.1082   24.4470 Cl      1  UNL1       -0.0822
     25 C           4.6290   -2.9265   23.0855 C.ar    1  UNL1        0.0111
     26 C           4.0849   -2.4427   21.7741 C.ar    1  UNL1       -0.0015
     27 C          -3.4205    4.3825   21.3129 C.3     1  UNL1        0.0795
     28 C          -3.1175    5.4604   22.3110 C.3     1  UNL1        0.0264
     29 C          -3.8058    5.4635   23.6438 C.3     1  UNL1        0.0729
     30 N          -4.7971    4.3886   23.9784 N.3     1  UNL1       -0.2689
     31 C          -5.1002    3.3107   22.9802 C.3     1  UNL1        0.0729
     32 C          -4.4119    3.3076   21.6475 C.3     1  UNL1        0.0264
     33 C          -5.4854    4.3917   25.3112 C.3     1  UNL1        0.0992
     34 C          -6.6041    5.3554   25.5754 C.ar    1  UNL1       -0.0031
     35 C          -6.6041    6.1789   26.8291 C.ar    1  UNL1        0.0178
     36 C          -7.7228    7.1426   27.0933 C.ar    1  UNL1        0.0986
     37 N          -8.8415    7.2827   26.1039 N.ar    1  UNL1       -0.2423
     38 C          -8.8414    6.4591   24.8502 C.ar    1  UNL1        0.0986
     39 C          -7.7228    5.4955   24.5859 C.ar    1  UNL1        0.0178
@<TRIPOS>BOND
     1     1     2    2
     2     2    27    1
     3    27    28    1
     4    28    29    1
     5    29    30    1
     6    30    33    1
     7    33    34    1
     8    34    35   ar
     9    35    36   ar
    10    36    37   ar
    11    37    38   ar
    12    38    39   ar
    13    30    31    1
    14    31    32    1
    15     2     3   am
    16     3     4    1
    17     4     5    1
    18     5     6    1
    19     6     9    1
    20     9    10   ar
    21    10    11    2
    22    10    12   ar
    23    12    19    1
    24    19    20    1
    25    20    21   ar
    26    21    22   ar
    27    22    23   ar
    28    23    24    1
    29    23    25   ar
    30    25    26   ar
    31    12    13   ar
    32    13    14   ar
    33    14    15   ar
    34    15    16   ar
    35    16    17   ar
    36    17    18   ar
    37     6     7    1
    38     7     8    1
    39    32    27    1
    40     8     3    1
    41    39    34   ar
    42    18     9   ar
    43    26    20   ar
    44    18    13   ar
@<TRIPOS>MOLECULE
*****
 39 44 0 0 0
SMALL
GASTEIGER

@<TRIPOS>ATOM
      1 O           6.4509   -5.5044   32.4522 O.2     1  UNL1       -0.2749
      2 C           6.5686   -4.2024   31.7168 C.2     1  UNL1        0.2252
      3 N           6.7833   -4.1964   30.2322 N.am    1  UNL1       -0.2794
      4 C           6.8801   -5.4924   29.4832 C.3     1  UNL1        0.0953
      5 C           7.0947   -5.4864   27.9986 C.3     1  UNL1        0.0442
      6 C           7.2125   -4.1843   27.2631 C.3     1  UNL1        0.0933
      7 C           7.1156   -2.8884   28.0121 C.3     1  UNL1        0.0442
      8 C           6.9010   -2.8944   29.4967 C.3     1  UNL1        0.0953
      9 N           7.4271   -4.1783   25.7785 N.ar    1  UNL1       -0.2817
     10 C           7.1418   -3.0344   24.8511 C.ar    1  UNL1        0.3317
     11 O           6.5919   -1.6957   25.2453 O.2     1  UNL1       -0.2463
     12 N           7.5031   -3.4643   23.4601 N.ar    1  UNL1       -0.2758
     13 C           8.0116   -4.8739   23.5279 C.ar    1  UNL1        0.0800
     14 C           8.5113   -5.8126   22.4701 C.ar    1  UNL1        0.0188
     15 C           8.9640   -7.1926   22.8451 C.ar    1  UNL1        0.0016
     16 C           8.9170   -7.6338   24.2780 C.ar    1  UNL1        0.0016
     17 C           8.4173   -6.6951   25.3358 C.ar    1  UNL1        0.0188
     18 C           7.9646   -5.3152   24.9608 C.ar    1  UNL1        0.0796
     19 C           7.3778   -2.6310   22.2192 C.3     1  UNL1        0.1373
     20 C           6.0207   -2.2801   21.6852 C.ar    1  UNL1        0.0006
     21 C           5.2602   -3.2738   20.8580 C.ar    1  UNL1       -0.0015
     22 C           3.9032   -2.9230   20.3240 C.ar    1  UNL1        0.0111
     23 C           3.3065   -1.5784   20.6173 C.ar    1  UNL1        0.0577
     24 CL          1.9494   -1.2275   20.0833 Cl      1  UNL1       -0.0822
     25 C           4.0669   -0.5847   21.4445 C.ar    1  UNL1        0.0111
     26 C           5.4240   -0.9355   21.9785 C.ar    1  UNL1       -0.0015
     27 C           6.4718   -2.9064   32.4658 C.3     1  UNL1        0.0795
     28 C           5.1300   -2.3754   32.8753 C.3     1  UNL1        0.0264
     29 C           5.0332   -1.0794   33.6244 C.3     1  UNL1        0.0729
     30 N           6.2780   -0.3145   33.9639 N.3     1  UNL1       -0.2689
     31 C           7.6198   -0.8456   33.5544 C.3     1  UNL1        0.0729
     32 C           7.7167   -2.1416   32.8053 C.3     1  UNL1        0.0264
     33 C           6.1811    0.9815   34.7130 C.3     1  UNL1        0.0992
     34 C           4.9553    1.2916   35.5198 C.ar    1  UNL1       -0.0031
     35 C           3.9273    2.2446   34.9859 C.ar    1  UNL1        0.0178
     36 C           2.7014    2.5548   35.7926 C.ar    1  UNL1        0.0986
     37 N           2.5035    1.9120   37.1334 N.ar    1  UNL1       -0.2423
     38 C           3.5315    0.9590   37.6674 C.ar    1  UNL1        0.0986
     39 C           4.7574    0.6488   36.8606 C.ar    1  UNL1        0.0178
@<TRIPOS>BOND
     1     1     2    2
     2     2    27    1
     3    27    28    1
     4    28    29    1
     5    29    30    1
     6    30    33    1
     7    33    34    1
     8    34    35   ar
     9    35    36   ar
    10    36    37   ar
    11    37    38   ar
    12    38    39   ar
    13    30    31    1
    14    31    32    1
    15     2     3   am
    16     3     4    1
    17     4     5    1
    18     5     6    1
    19     6     9    1
    20     9    10   ar
    21    10    11    2
    22    10    12   ar
    23    12    19    1
    24    19    20    1
    25    20    21   ar
    26    21    22   ar
    27    22    23   ar
    28    23    24    1
    29    23    25   ar
    30    25    26   ar
    31    12    13   ar
    32    13    14   ar
    33    14    15   ar
    34    15    16   ar
    35    16    17   ar
    36    17    18   ar
    37     6     7    1
    38     7     8    1
    39    32    27    1
    40     8     3    1
    41    39    34   ar
    42    18     9   ar
    43    26    20   ar
    44    18    13   ar
@<TRIPOS>MOLECULE
*****
 39 44 0 0 0
SMALL
GASTEIGER

@<TRIPOS>ATOM
      1 O           9.0747   -2.1120   33.5077 O.2     1  UNL1       -0.2749
      2 C           7.9415   -1.7364   32.5995 C.2     1  UNL1        0.2252
      3 N           7.9456   -2.1879   31.1691 N.am    1  UNL1       -0.2794
      4 C           9.0828   -3.0150   30.6469 C.3     1  UNL1        0.0953
      5 C           9.0869   -3.4666   29.2165 C.3     1  UNL1        0.0442
      6 C           7.9537   -3.0909   28.3082 C.3     1  UNL1        0.0933
      7 C           6.8166   -2.2638   28.8304 C.3     1  UNL1        0.0442
      8 C           6.8126   -1.8122   30.2608 C.3     1  UNL1        0.0953
      9 N           7.9578   -3.5424   26.8777 N.ar    1  UNL1       -0.2817
     10 C           7.9600   -2.6505   25.6717 C.ar    1  UNL1        0.3317
     11 O           7.9585   -1.1506   25.6843 O.2     1  UNL1       -0.2463
     12 N           7.9639   -3.5220   24.4508 N.ar    1  UNL1       -0.2758
     13 C           7.9642   -4.9525   24.9024 C.ar    1  UNL1        0.0800
     14 C           7.9674   -6.2451   24.1415 C.ar    1  UNL1        0.0188
     15 C           7.9668   -7.5504   24.8806 C.ar    1  UNL1        0.0016
     16 C           7.9630   -7.5630   26.3805 C.ar    1  UNL1        0.0016
     17 C           7.9598   -6.2703   27.1414 C.ar    1  UNL1        0.0188
     18 C           7.9604   -4.9651   26.4023 C.ar    1  UNL1        0.0796
     19 C           7.9671   -3.0466   23.0282 C.3     1  UNL1        0.1373
     20 C           6.8177   -3.3795   22.1236 C.ar    1  UNL1        0.0006
     21 C           7.0371   -3.4971   20.6444 C.ar    1  UNL1       -0.0015
     22 C           5.8878   -3.8300   19.7398 C.ar    1  UNL1        0.0111
     23 C           4.5191   -4.0453   20.3144 C.ar    1  UNL1        0.0577
     24 CL          3.3698   -4.3782   19.4099 Cl      1  UNL1       -0.0822
     25 C           4.2997   -3.9276   21.7936 C.ar    1  UNL1        0.0111
     26 C           5.4490   -3.5948   22.6982 C.ar    1  UNL1       -0.0015
     27 C           6.8044   -0.9092   33.1217 C.3     1  UNL1        0.0795
     28 C           5.4907   -1.5580   33.4429 C.3     1  UNL1        0.0264
     29 C           4.3535   -0.7309   33.9651 C.3     1  UNL1        0.0729
     30 N           4.5301    0.7451   34.1660 N.3     1  UNL1       -0.2689
     31 C           5.8438    1.3939   33.8447 C.3     1  UNL1        0.0729
     32 C           6.9810    0.5668   33.3225 C.3     1  UNL1        0.0264
     33 C           3.3929    1.5723   34.6881 C.3     1  UNL1        0.0992
     34 C           3.2843    1.8559   36.1570 C.ar    1  UNL1       -0.0031
     35 C           3.9395    0.9402   37.1481 C.ar    1  UNL1        0.0178
     36 C           3.8310    1.2238   38.6170 C.ar    1  UNL1        0.0986
     37 N           3.0674    2.4232   39.0949 N.ar    1  UNL1       -0.2423
     38 C           2.4122    3.3389   38.1038 C.ar    1  UNL1        0.0986
     39 C           2.5207    3.0553   36.6349 C.ar    1  UNL1        0.0178
@<TRIPOS>BOND
     1     1     2    2
     2     2    27    1
     3    27    28    1
     4    28    29    1
     5    29    30    1
     6    30    33    1
     7    33    34    1
     8    34    35   ar
     9    35    36   ar
    10    36    37   ar
    11    37    38   ar
    12    38    39   ar
    13    30    31    1
    14    31    32    1
    15     2     3   am
    16     3     4    1
    17     4     5    1
    18     5     6    1
    19     6     9    1
    20     9    10   ar
    21    10    11    2
    22    10    12   ar
    23    12    19    1
    24    19    20    1
    25    20    21   ar
    26    21    22   ar
    27    22    23   ar
    28    23    24    1
    29    23    25   ar
    30    25    26   ar
    31    12    13   ar
    32    13    14   ar
    33    14    15   ar
    34    15    16   ar
    35    16    17   ar
    36    17    18   ar
    37     6     7    1
    38     7     8    1
    39    32    27    1
    40     8     3    1
    41    39    34   ar
    42    18     9   ar
    43    26    20   ar
    44    18    13   ar
@<TRIPOS>MOLECULE
*****
 39 44 0 0 0
SMALL
GASTEIGER

@<TRIPOS>ATOM
      1 O           6.0125   -2.7695   17.7901 O.2     1  UNL1       -0.2749
      2 C           5.6399   -2.1513   19.1049 C.2     1  UNL1        0.2252
      3 N           4.5674   -1.1043   19.1642 N.am    1  UNL1       -0.2794
      4 C           3.8676   -0.6755   17.9087 C.3     1  UNL1        0.0953
      5 C           2.7951    0.3715   17.9679 C.3     1  UNL1        0.0442
      6 C           2.4224    0.9898   19.2829 C.3     1  UNL1        0.0933
      7 C           3.1222    0.5611   20.5383 C.3     1  UNL1        0.0442
      8 C           4.1947   -0.4860   20.4790 C.3     1  UNL1        0.0953
      9 N           1.3499    2.0368   19.3421 N.ar    1  UNL1       -0.2817
     10 C          -0.0064    1.8756   19.9623 C.ar    1  UNL1        0.3317
     11 O          -0.5282    0.6390   20.6321 O.2     1  UNL1       -0.2463
     12 N          -0.7491    3.1680   19.7951 N.ar    1  UNL1       -0.2758
     13 C           0.1481    4.1280   19.0715 C.ar    1  UNL1        0.0800
     14 C          -0.0486    5.5484   18.6314 C.ar    1  UNL1        0.0188
     15 C           1.0520    6.2697   17.9114 C.ar    1  UNL1        0.0016
     16 C           2.3492    5.5705   17.6314 C.ar    1  UNL1        0.0016
     17 C           2.5459    4.1501   18.0715 C.ar    1  UNL1        0.0188
     18 C           1.4453    3.4289   18.7916 C.ar    1  UNL1        0.0796
     19 C          -2.1441    3.4508   20.2683 C.3     1  UNL1        0.1373
     20 C          -2.4411    3.5054   21.7377 C.ar    1  UNL1        0.0006
     21 C          -1.3218    3.6637   22.7237 C.ar    1  UNL1       -0.0015
     22 C          -1.6187    3.7183   24.1929 C.ar    1  UNL1        0.0111
     23 C          -3.0349    3.6145   24.6762 C.ar    1  UNL1        0.0577
     24 CL         -3.3319    3.6690   26.1455 Cl      1  UNL1       -0.0822
     25 C          -4.1542    3.4561   23.6902 C.ar    1  UNL1        0.0111
     26 C          -3.8573    3.4016   22.2210 C.ar    1  UNL1       -0.0015
     27 C           6.3397   -2.5800   20.3605 C.3     1  UNL1        0.0795
     28 C           7.7204   -2.0756   20.6591 C.3     1  UNL1        0.0264
     29 C           8.4202   -2.5043   21.9147 C.3     1  UNL1        0.0729
     30 N           7.7394   -3.4374   22.8716 N.3     1  UNL1       -0.2689
     31 C           6.3586   -3.9418   22.5729 C.3     1  UNL1        0.0729
     32 C           5.6588   -3.5131   21.3174 C.3     1  UNL1        0.0264
     33 C           8.4392   -3.8661   24.1272 C.3     1  UNL1        0.0992
     34 C           8.0016   -5.1098   24.8425 C.ar    1  UNL1       -0.0031
     35 C           8.4464   -6.4546   24.3490 C.ar    1  UNL1        0.0178
     36 C           8.0089   -7.6984   25.0643 C.ar    1  UNL1        0.0986
     37 N           7.1265   -7.5973   26.2730 N.ar    1  UNL1       -0.2423
     38 C           6.6816   -6.2524   26.7665 C.ar    1  UNL1        0.0986
     39 C           7.1192   -5.0087   26.0513 C.ar    1  UNL1        0.0178
@<TRIPOS>BOND
     1     1     2    2
     2     2    27    1
     3    27    28    1
     4    28    29    1
     5    29    30    1
     6    30    33    1
     7    33    34    1
     8    34    35   ar
     9    35    36   ar
    10    36    37   ar
    11    37    38   ar
    12    38    39   ar
    13    30    31    1
    14    31    32    1
    15     2     3   am
    16     3     4    1
    17     4     5    1
    18     5     6    1
    19     6     9    1
    20     9    10   ar
    21    10    11    2
    22    10    12   ar
    23    12    19    1
    24    19    20    1
    25    20    21   ar
    26    21    22   ar
    27    22    23   ar
    28    23    24    1
    29    23    25   ar
    30    25    26   ar
    31    12    13   ar
    32    13    14   ar
    33    14    15   ar
    34    15    16   ar
    35    16    17   ar
    36    17    18   ar
    37     6     7    1
    38     7     8    1
    39    32    27    1
    40     8     3    1
    41    39    34   ar
    42    18     9   ar
    43    26    20   ar
    44    18    13   ar
@<TRIPOS>MOLECULE
*****
 39 44 0 0 0
SMALL
GASTEIGER

@<TRIPOS>ATOM
      1 O           7.0560   -2.9795   32.2464 O.2     1  UNL1       -0.2749
      2 C           6.1962   -1.7504   32.2485 C.2     1  UNL1        0.2252
      3 N           5.5686   -1.2721   30.9728 N.am    1  UNL1       -0.2794
      4 C           5.8008   -2.0228   29.6951 C.3     1  UNL1        0.0953
      5 C           5.1732   -1.5445   28.4195 C.3     1  UNL1        0.0442
      6 C           4.3133   -0.3153   28.4215 C.3     1  UNL1        0.0933
      7 C           4.0811    0.4353   29.6991 C.3     1  UNL1        0.0442
      8 C           4.7087   -0.0430   30.9748 C.3     1  UNL1        0.0953
      9 N           3.6857    0.1630   27.1458 N.ar    1  UNL1       -0.2817
     10 C           4.3775    0.3068   25.8227 C.ar    1  UNL1        0.3317
     11 O           5.8183   -0.0024   25.5428 O.2     1  UNL1       -0.2463
     12 N           3.3754    0.8142   24.8285 N.ar    1  UNL1       -0.2758
     13 C           2.0643    0.9840   25.5372 C.ar    1  UNL1        0.0800
     14 C           0.7206    1.4530   25.0634 C.ar    1  UNL1        0.0188
     15 C          -0.4312    1.5196   26.0219 C.ar    1  UNL1        0.0016
     16 C          -0.2395    1.1171   27.4541 C.ar    1  UNL1        0.0016
     17 C           1.1042    0.6481   27.9278 C.ar    1  UNL1        0.0188
     18 C           2.2561    0.5815   26.9694 C.ar    1  UNL1        0.0796
     19 C           3.6382    1.1014   23.3799 C.3     1  UNL1        0.1373
     20 C           3.5655   -0.0059   22.3705 C.ar    1  UNL1        0.0006
     21 C           4.6404   -1.0512   22.3251 C.ar    1  UNL1       -0.0015
     22 C           4.5677   -2.1584   21.3159 C.ar    1  UNL1        0.0111
     23 C           3.4201   -2.2204   20.3519 C.ar    1  UNL1        0.0577
     24 CL          3.3474   -3.3276   19.3426 Cl      1  UNL1       -0.0822
     25 C           2.3453   -1.1751   20.3973 C.ar    1  UNL1        0.0111
     26 C           2.4179   -0.0679   21.4066 C.ar    1  UNL1       -0.0015
     27 C           5.9640   -0.9996   33.5261 C.3     1  UNL1        0.0795
     28 C           4.7550   -1.2982   34.3623 C.3     1  UNL1        0.0264
     29 C           4.5228   -0.5474   35.6399 C.3     1  UNL1        0.0729
     30 N           5.4996    0.5019   36.0814 N.3     1  UNL1       -0.2689
     31 C           6.7086    0.8004   35.2452 C.3     1  UNL1        0.0729
     32 C           6.9408    0.0496   33.9676 C.3     1  UNL1        0.0264
     33 C           5.2673    1.2526   37.3591 C.3     1  UNL1        0.0992
     34 C           3.8950    1.7570   37.6939 C.ar    1  UNL1       -0.0031
     35 C           3.0222    0.9853   38.6387 C.ar    1  UNL1        0.0178
     36 C           1.6498    1.4896   38.9735 C.ar    1  UNL1        0.0986
     37 N           1.1501    2.7657   38.3635 N.ar    1  UNL1       -0.2423
     38 C           2.0229    3.5374   37.4187 C.ar    1  UNL1        0.0986
     39 C           3.3953    3.0330   37.0838 C.ar    1  UNL1        0.0178
@<TRIPOS>BOND
     1     1     2    2
     2     2    27    1
     3    27    28    1
     4    28    29    1
     5    29    30    1
     6    30    33    1
     7    33    34    1
     8    34    35   ar
     9    35    36   ar
    10    36    37   ar
    11    37    38   ar
    12    38    39   ar
    13    30    31    1
    14    31    32    1
    15     2     3   am
    16     3     4    1
    17     4     5    1
    18     5     6    1
    19     6     9    1
    20     9    10   ar
    21    10    11    2
    22    10    12   ar
    23    12    19    1
    24    19    20    1
    25    20    21   ar
    26    21    22   ar
    27    22    23   ar
    28    23    24    1
    29    23    25   ar
    30    25    26   ar
    31    12    13   ar
    32    13    14   ar
    33    14    15   ar
    34    15    16   ar
    35    16    17   ar
    36    17    18   ar
    37     6     7    1
    38     7     8    1
    39    32    27    1
    40     8     3    1
    41    39    34   ar
    42    18     9   ar
    43    26    20   ar
    44    18    13   ar
@<TRIPOS>MOLECULE
*****
 39 44 0 0 0
SMALL
GASTEIGER

@<TRIPOS>ATOM
      1 O           1.7135    0.0109   30.4833 O.2     1  UNL1       -0.2749
      2 C           3.1511   -0.4011   30.5986 C.2     1  UNL1        0.2252
      3 N           3.8930   -0.8818   29.3868 N.am    1  UNL1       -0.2794
      4 C           3.1971   -0.9506   28.0597 C.3     1  UNL1        0.0953
      5 C           3.9390   -1.4314   26.8479 C.3     1  UNL1        0.0442
      6 C           5.3768   -1.8434   26.9631 C.3     1  UNL1        0.0933
      7 C           6.0725   -1.7746   28.2902 C.3     1  UNL1        0.0442
      8 C           5.3306   -1.2938   29.5020 C.3     1  UNL1        0.0953
      9 N           6.1186   -2.3242   25.7513 N.ar    1  UNL1       -0.2817
     10 C           6.4445   -1.5080   24.5357 C.ar    1  UNL1        0.3317
     11 O           6.0857   -0.0679   24.3184 O.2     1  UNL1       -0.2463
     12 N           7.1921   -2.3850   23.5755 N.ar    1  UNL1       -0.2758
     13 C           7.3283   -3.7431   24.1976 C.ar    1  UNL1        0.0800
     14 C           7.9707   -5.0090   23.7134 C.ar    1  UNL1        0.0188
     15 C           7.9496   -6.2374   24.5739 C.ar    1  UNL1        0.0016
     16 C           7.2862   -6.1998   25.9187 C.ar    1  UNL1        0.0016
     17 C           6.6438   -4.9339   26.4029 C.ar    1  UNL1        0.0188
     18 C           6.6648   -3.7055   25.5424 C.ar    1  UNL1        0.0796
     19 C           7.7122   -1.9757   22.2294 C.3     1  UNL1        0.1373
     20 C           6.7692   -1.8387   21.0709 C.ar    1  UNL1        0.0006
     21 C           6.3805   -3.0480   20.2731 C.ar    1  UNL1       -0.0015
     22 C           5.4375   -2.9110   19.1146 C.ar    1  UNL1        0.0111
     23 C           4.8832   -1.5646   18.7540 C.ar    1  UNL1        0.0577
     24 CL          3.9402   -1.4276   17.5956 Cl      1  UNL1       -0.0822
     25 C           5.2719   -0.3553   19.5518 C.ar    1  UNL1        0.0111
     26 C           6.2149   -0.4923   20.7102 C.ar    1  UNL1       -0.0015
     27 C           3.8470   -0.3323   31.9257 C.3     1  UNL1        0.0795
     28 C           4.3250    0.9875   32.4543 C.3     1  UNL1        0.0264
     29 C           5.0209    1.0563   33.7814 C.3     1  UNL1        0.0729
     30 N           5.2386   -0.1948   34.5798 N.3     1  UNL1       -0.2689
     31 C           4.7605   -1.5147   34.0511 C.3     1  UNL1        0.0729
     32 C           4.0646   -1.5834   32.7240 C.3     1  UNL1        0.0264
     33 C           5.9345   -0.1260   35.9068 C.3     1  UNL1        0.0992
     34 C           5.3408    0.6796   37.0241 C.ar    1  UNL1       -0.0031
     35 C           3.8991    0.4975   37.3962 C.ar    1  UNL1        0.0178
     36 C           3.3054    1.3031   38.5135 C.ar    1  UNL1        0.0986
     37 N           4.1533    2.2908   39.2588 N.ar    1  UNL1       -0.2423
     38 C           5.5950    2.4729   38.8868 C.ar    1  UNL1        0.0986
     39 C           6.1887    1.6673   37.7694 C.ar    1  UNL1        0.0178
@<TRIPOS>BOND
     1     1     2    2
     2     2    27    1
     3    27    28    1
     4    28    29    1
     5    29    30    1
     6    30    33    1
     7    33    34    1
     8    34    35   ar
     9    35    36   ar
    10    36    37   ar
    11    37    38   ar
    12    38    39   ar
    13    30    31    1
    14    31    32    1
    15     2     3   am
    16     3     4    1
    17     4     5    1
    18     5     6    1
    19     6     9    1
    20     9    10   ar
    21    10    11    2
    22    10    12   ar
    23    12    19    1
    24    19    20    1
    25    20    21   ar
    26    21    22   ar
    27    22    23   ar
    28    23    24    1
    29    23    25   ar
    30    25    26   ar
    31    12    13   ar
    32    13    14   ar
    33    14    15   ar
    34    15    16   ar
    35    16    17   ar
    36    17    18   ar
    37     6     7    1
    38     7     8    1
    39    32    27    1
    40     8     3    1
    41    39    34   ar
    42    18     9   ar
    43    26    20   ar
    44    18    13   ar
@<TRIPOS>MOLECULE
*****
 39 44 0 0 0
SMALL
GASTEIGER

@<TRIPOS>ATOM
      1 O          -4.3401    4.8564   17.4881 O.2     1  UNL1       -0.2749
      2 C          -3.7844    4.5542   18.8482 C.2     1  UNL1        0.2252
      3 N          -2.3830    4.0380   18.9880 N.am    1  UNL1       -0.2794
      4 C          -1.5373    3.8240   17.7678 C.3     1  UNL1        0.0953
      5 C          -0.1359    3.3078   17.9076 C.3     1  UNL1        0.0442
      6 C           0.4199    3.0056   19.2678 C.3     1  UNL1        0.0933
      7 C          -0.4258    3.2196   20.4879 C.3     1  UNL1        0.0442
      8 C          -1.8273    3.7358   20.3481 C.3     1  UNL1        0.0953
      9 N           1.8213    2.4894   19.4076 N.ar    1  UNL1       -0.2817
     10 C           2.2506    1.3189   20.2416 C.ar    1  UNL1        0.3317
     11 O           1.3540    0.4590   21.0822 O.2     1  UNL1       -0.2463
     12 N           3.7341    1.1592   20.0874 N.ar    1  UNL1       -0.2758
     13 C           4.2216    2.2310   19.1581 C.ar    1  UNL1        0.0800
     14 C           5.5893    2.5645   18.6402 C.ar    1  UNL1        0.0188
     15 C           5.7747    3.7202   17.7021 C.ar    1  UNL1        0.0016
     16 C           4.5925    4.5423   17.2820 C.ar    1  UNL1        0.0016
     17 C           3.2249    4.2088   17.7999 C.ar    1  UNL1        0.0188
     18 C           3.0394    3.0531   18.7380 C.ar    1  UNL1        0.0796
     19 C           4.5814    0.1116   20.7467 C.3     1  UNL1        0.1373
     20 C           4.6031   -1.2866   20.2037 C.ar    1  UNL1        0.0006
     21 C           4.2576   -2.4427   21.0948 C.ar    1  UNL1       -0.0015
     22 C           4.2792   -3.8408   20.5519 C.ar    1  UNL1        0.0111
     23 C           4.6465   -4.0827   19.1178 C.ar    1  UNL1        0.0577
     24 CL          4.6682   -5.4808   18.5748 Cl      1  UNL1       -0.0822
     25 C           4.9920   -2.9266   18.2267 C.ar    1  UNL1        0.0111
     26 C           4.9703   -1.5286   18.7696 C.ar    1  UNL1       -0.0015
     27 C          -4.6301    4.7682   20.0684 C.3     1  UNL1        0.0795
     28 C          -4.6014    6.0891   20.7786 C.3     1  UNL1        0.0264
     29 C          -5.4471    6.3031   21.9988 C.3     1  UNL1        0.0729
     30 N          -6.3215    5.1962   22.5089 N.3     1  UNL1       -0.2689
     31 C          -6.3502    3.8752   21.7987 C.3     1  UNL1        0.0729
     32 C          -5.5045    3.6612   20.5784 C.3     1  UNL1        0.0264
     33 C          -7.1672    5.4102   23.7291 C.3     1  UNL1        0.0992
     34 C          -6.5297    5.4481   25.0863 C.ar    1  UNL1       -0.0031
     35 C          -5.3679    4.5507   25.3945 C.ar    1  UNL1        0.0178
     36 C          -4.7303    4.5885   26.7517 C.ar    1  UNL1        0.0986
     37 N          -5.2545    5.5237   27.8007 N.ar    1  UNL1       -0.2423
     38 C          -6.4162    6.4211   27.4926 C.ar    1  UNL1        0.0986
     39 C          -7.0538    6.3833   26.1354 C.ar    1  UNL1        0.0178
@<TRIPOS>BOND
     1     1     2    2
     2     2    27    1
     3    27    28    1
     4    28    29    1
     5    29    30    1
     6    30    33    1
     7    33    34    1
     8    34    35   ar
     9    35    36   ar
    10    36    37   ar
    11    37    38   ar
    12    38    39   ar
    13    30    31    1
    14    31    32    1
    15     2     3   am
    16     3     4    1
    17     4     5    1
    18     5     6    1
    19     6     9    1
    20     9    10   ar
    21    10    11    2
    22    10    12   ar
    23    12    19    1
    24    19    20    1
    25    20    21   ar
    26    21    22   ar
    27    22    23   ar
    28    23    24    1
    29    23    25   ar
    30    25    26   ar
    31    12    13   ar
    32    13    14   ar
    33    14    15   ar
    34    15    16   ar
    35    16    17   ar
    36    17    18   ar
    37     6     7    1
    38     7     8    1
    39    32    27    1
    40     8     3    1
    41    39    34   ar
    42    18     9   ar
    43    26    20   ar
    44    18    13   ar
@<TRIPOS>MOLECULE
*****
 39 44 0 0 0
SMALL
GASTEIGER

@<TRIPOS>ATOM
      1 O          -0.2032    2.7033   24.2201 O.2     1  UNL1       -0.2749
      2 C           0.7115    1.9009   25.0973 C.2     1  UNL1        0.2252
      3 N           1.6812    0.9344   24.4844 N.am    1  UNL1       -0.2794
      4 C           1.7362    0.7705   22.9944 C.3     1  UNL1        0.0953
      5 C           2.7059   -0.1960   22.3815 C.3     1  UNL1        0.0442
      6 C           3.6207   -0.9985   23.2586 C.3     1  UNL1        0.0933
      7 C           3.5656   -0.8345   24.7486 C.3     1  UNL1        0.0442
      8 C           2.5959    0.1319   25.3615 C.3     1  UNL1        0.0953
      9 N           4.5904   -1.9649   22.6457 N.ar    1  UNL1       -0.2817
     10 C           5.8868   -2.4161   23.2505 C.ar    1  UNL1        0.3317
     11 O           6.4412   -1.9800   24.5743 O.2     1  UNL1       -0.2463
     12 N           6.5316   -3.3798   22.2989 N.ar    1  UNL1       -0.2758
     13 C           5.6336   -3.5244   21.1061 C.ar    1  UNL1        0.0800
     14 C           5.7534   -4.3393   19.8525 C.ar    1  UNL1        0.0188
     15 C           4.6735   -4.2797   18.8133 C.ar    1  UNL1        0.0016
     16 C           3.4737   -3.4052   19.0276 C.ar    1  UNL1        0.0016
     17 C           3.3540   -2.5903   20.2812 C.ar    1  UNL1        0.0188
     18 C           4.4339   -2.6499   21.3205 C.ar    1  UNL1        0.0796
     19 C           7.8439   -4.0768   22.5042 C.3     1  UNL1        0.1373
     20 C           7.9568   -5.1814   23.5128 C.ar    1  UNL1        0.0006
     21 C           8.7402   -6.4182   23.1860 C.ar    1  UNL1       -0.0015
     22 C           8.8532   -7.5228   24.1945 C.ar    1  UNL1        0.0111
     23 C           8.1827   -7.3906   25.5298 C.ar    1  UNL1        0.0577
     24 CL          8.2956   -8.4951   26.5383 Cl      1  UNL1       -0.0822
     25 C           7.3993   -6.1538   25.8565 C.ar    1  UNL1        0.0111
     26 C           7.2864   -5.0492   24.8481 C.ar    1  UNL1       -0.0015
     27 C           0.6565    2.0648   26.5873 C.3     1  UNL1        0.0795
     28 C           1.4966    3.1107   27.2582 C.3     1  UNL1        0.0264
     29 C           1.4416    3.2747   28.7482 C.3     1  UNL1        0.0729
     30 N           0.5464    2.3927   29.5673 N.3     1  UNL1       -0.2689
     31 C          -0.2938    1.3468   28.8963 C.3     1  UNL1        0.0729
     32 C          -0.2388    1.1828   27.4063 C.3     1  UNL1        0.0264
     33 C           0.4914    2.5567   31.0572 C.3     1  UNL1        0.0992
     34 C           1.5435    1.9260   31.9206 C.ar    1  UNL1       -0.0031
     35 C           2.3659    0.7889   31.3907 C.ar    1  UNL1        0.0178
     36 C           3.4180    0.1582   32.2539 C.ar    1  UNL1        0.0986
     37 N           3.6477    0.6645   33.6471 N.ar    1  UNL1       -0.2423
     38 C           2.8253    1.8015   34.1770 C.ar    1  UNL1        0.0986
     39 C           1.7732    2.4323   33.3137 C.ar    1  UNL1        0.0178
@<TRIPOS>BOND
     1     1     2    2
     2     2    27    1
     3    27    28    1
     4    28    29    1
     5    29    30    1
     6    30    33    1
     7    33    34    1
     8    34    35   ar
     9    35    36   ar
    10    36    37   ar
    11    37    38   ar
    12    38    39   ar
    13    30    31    1
    14    31    32    1
    15     2     3   am
    16     3     4    1
    17     4     5    1
    18     5     6    1
    19     6     9    1
    20     9    10   ar
    21    10    11    2
    22    10    12   ar
    23    12    19    1
    24    19    20    1
    25    20    21   ar
    26    21    22   ar
    27    22    23   ar
    28    23    24    1
    29    23    25   ar
    30    25    26   ar
    31    12    13   ar
    32    13    14   ar
    33    14    15   ar
    34    15    16   ar
    35    16    17   ar
    36    17    18   ar
    37     6     7    1
    38     7     8    1
    39    32    27    1
    40     8     3    1
    41    39    34   ar
    42    18     9   ar
    43    26    20   ar
    44    18    13   ar
