@<TRIPOS>MOLECULE
*****
 28 30 0 0 0
SMALL
GASTEIGER

@<TRIPOS>ATOM
      1 C          -7.9443  -17.9222   22.9134 C.ar    1  UNL1        0.0534
      2 C          -6.8782  -16.9730   23.3741 C.ar    1  UNL1        0.0046
      3 C          -5.4506  -17.1956   22.9709 C.ar    1  UNL1        0.0033
      4 C          -5.0892  -18.3674   22.1071 C.ar    1  UNL1        0.0391
      5 C          -6.1554  -19.3166   21.6464 C.ar    1  UNL1        0.0033
      6 C          -7.5829  -19.0941   22.0496 C.ar    1  UNL1        0.0046
      7 C          -3.6616  -18.5900   21.7039 C.ar    1  UNL1        0.2035
      8 N          -2.9030  -19.8787   21.8211 N.ar    1  UNL1       -0.0557
      9 O          -1.5146  -19.6482   21.3024 O.2     1  UNL1       -0.3282
     10 C          -1.4151  -18.2168   20.8647 C.ar    1  UNL1        0.3320
     11 N          -2.7420  -17.5629   21.1128 N.ar    1  UNL1       -0.1837
     12 C          -0.2016  -17.5556   20.2812 C.3     1  UNL1        0.4721
     13 F           1.0118  -16.8944   19.6978 F       1  UNL1       -0.1619
     14 F          -0.6819  -16.2277   20.7874 F       1  UNL1       -0.1619
     15 F           0.2786  -18.8835   19.7751 F       1  UNL1       -0.1619
     16 N         -10.3172  -18.8612   23.4008 N.am    1  UNL1       -0.3011
     17 C          -9.3719  -17.6997   23.3166 C.2     1  UNL1        0.2458
     18 O          -9.8541  -16.3156   23.6355 O.2     1  UNL1       -0.2701
     19 H         -10.0008  -19.7696   23.1914 H       1  UNL1        0.1497
     20 C         -12.1754  -18.9037   25.2161 C.3     1  UNL1        0.0227
     21 C         -11.7449  -18.6386   23.8039 C.3     1  UNL1        0.0878
     22 C         -12.7419  -18.1511   22.7948 C.3     1  UNL1        0.0918
     23 N         -12.2698  -17.5325   21.5125 N.3     1  UNL1       -0.2726
     24 C         -12.4852  -16.1100   21.0881 C.3     1  UNL1        0.0721
     25 C         -11.8480  -15.9261   19.7427 C.3     1  UNL1        0.0187
     26 C         -11.2388  -17.2350   19.3356 C.3     1  UNL1        0.0174
     27 C         -11.4995  -18.2278   20.4294 C.3     1  UNL1        0.0576
     28 C         -11.0659  -19.6637   20.4385 C.3     1  UNL1        0.0173
@<TRIPOS>BOND
     1    21    20    1
     2    21    22    1
     3    22    23    1
     4    23    24    1
     5    24    25    1
     6    25    26    1
     7    26    27    1
     8    27    28    1
     9    21    16    1
    10    16    17   am
    11    17    18    2
    12    17     1    1
    13     1     2   ar
    14     2     3   ar
    15     3     4   ar
    16     4     7    1
    17     7     8   ar
    18     8     9   ar
    19     9    10   ar
    20    10    12    1
    21    12    13    1
    22    12    14    1
    23    12    15    1
    24    10    11   ar
    25     4     5   ar
    26     5     6   ar
    27    27    23    1
    28     6     1   ar
    29    11     7   ar
    30    16    19    1
@<TRIPOS>MOLECULE
*****
 28 30 0 0 0
SMALL
GASTEIGER

@<TRIPOS>ATOM
      1 C          -7.8790  -18.5796   21.0542 C.ar    1  UNL1        0.0534
      2 C          -7.2615  -19.1153   19.7966 C.ar    1  UNL1        0.0046
      3 C          -5.7709  -19.2416   19.6878 C.ar    1  UNL1        0.0033
      4 C          -4.8976  -18.8322   20.8366 C.ar    1  UNL1        0.0391
      5 C          -5.5151  -18.2965   22.0942 C.ar    1  UNL1        0.0033
      6 C          -7.0057  -18.1702   22.2031 C.ar    1  UNL1        0.0046
      7 C          -3.4069  -18.9585   20.7277 C.ar    1  UNL1        0.2035
      8 N          -2.6104  -20.2116   20.9405 N.ar    1  UNL1       -0.0557
      9 O          -1.1622  -19.8816   20.7313 O.2     1  UNL1       -0.3282
     10 C          -1.0637  -18.4244   20.3892 C.ar    1  UNL1        0.3320
     11 N          -2.4510  -17.8539   20.3870 N.ar    1  UNL1       -0.1837
     12 C           0.2003  -17.6701   20.1001 C.3     1  UNL1        0.4721
     13 F           1.4642  -16.9158   19.8110 F       1  UNL1       -0.1619
     14 F           0.9113  -18.9637   19.8335 F       1  UNL1       -0.1619
     15 F          -0.5108  -16.3765   20.3667 F       1  UNL1       -0.1619
     16 N         -10.0087  -17.0962   21.1722 N.am    1  UNL1       -0.3011
     17 C          -9.3697  -18.4533   21.1631 C.2     1  UNL1        0.2458
     18 O         -10.2214  -19.6840   21.2628 O.2     1  UNL1       -0.2701
     19 H          -9.4498  -16.2885   21.1068 H       1  UNL1        0.1497
     20 C         -12.3053  -16.5460   20.0891 C.3     1  UNL1        0.0227
     21 C         -11.4995  -16.9699   21.2811 C.3     1  UNL1        0.0878
     22 C         -12.1844  -17.2675   22.5820 C.3     1  UNL1        0.0918
     23 N         -11.4397  -17.9704   23.6781 N.3     1  UNL1       -0.2726
     24 C         -11.7586  -19.3278   24.2309 C.3     1  UNL1        0.0721
     25 C         -10.7613  -19.6356   25.3083 C.3     1  UNL1        0.0187
     26 C          -9.8260  -18.4683   25.4212 C.3     1  UNL1        0.0174
     27 C         -10.2453  -17.4391   24.4137 C.3     1  UNL1        0.0576
     28 C          -9.5859  -16.1118   24.1825 C.3     1  UNL1        0.0173
@<TRIPOS>BOND
     1    21    20    1
     2    21    22    1
     3    22    23    1
     4    23    24    1
     5    24    25    1
     6    25    26    1
     7    26    27    1
     8    27    28    1
     9    21    16    1
    10    16    17   am
    11    17    18    2
    12    17     1    1
    13     1     2   ar
    14     2     3   ar
    15     3     4   ar
    16     4     7    1
    17     7     8   ar
    18     8     9   ar
    19     9    10   ar
    20    10    12    1
    21    12    13    1
    22    12    14    1
    23    12    15    1
    24    10    11   ar
    25     4     5   ar
    26     5     6   ar
    27    27    23    1
    28     6     1   ar
    29    11     7   ar
    30    16    19    1
@<TRIPOS>MOLECULE
*****
 28 30 0 0 0
SMALL
GASTEIGER

@<TRIPOS>ATOM
      1 C          -7.6592  -18.1221   22.8486 C.ar    1  UNL1        0.0534
      2 C          -6.5920  -17.1856   23.3323 C.ar    1  UNL1        0.0046
      3 C          -5.1731  -17.3685   22.8815 C.ar    1  UNL1        0.0033
      4 C          -4.8214  -18.4879   21.9471 C.ar    1  UNL1        0.0391
      5 C          -5.8886  -19.4244   21.4634 C.ar    1  UNL1        0.0033
      6 C          -7.3075  -19.2415   21.9141 C.ar    1  UNL1        0.0046
      7 C          -3.4024  -18.6707   21.4963 C.ar    1  UNL1        0.2035
      8 N          -2.6532  -19.9693   21.4478 N.ar    1  UNL1       -0.0557
      9 O          -1.2713  -19.6883   20.9364 O.2     1  UNL1       -0.3282
     10 C          -1.1665  -18.2160   20.6690 C.ar    1  UNL1        0.3320
     11 N          -2.4836  -17.5872   21.0150 N.ar    1  UNL1       -0.1837
     12 C           0.0430  -17.4986   20.1471 C.3     1  UNL1        0.4721
     13 F           1.2526  -16.7812   19.6252 F       1  UNL1       -0.1619
     14 F           0.6588  -18.8128   19.7678 F       1  UNL1       -0.1619
     15 F          -0.5728  -16.1845   20.5264 F       1  UNL1       -0.1619
     16 N          -9.9994  -19.1206   23.3745 N.am    1  UNL1       -0.3011
     17 C          -9.0782  -17.9392   23.2993 C.2     1  UNL1        0.2458
     18 O          -9.5759  -16.5749   23.6750 O.2     1  UNL1       -0.2701
     19 H          -9.6728  -20.0160   23.1279 H       1  UNL1        0.1497
     20 C         -11.7749  -19.1163   25.2712 C.3     1  UNL1        0.0227
     21 C         -11.4184  -18.9377   23.8252 C.3     1  UNL1        0.0878
     22 C         -12.4808  -18.5763   22.8299 C.3     1  UNL1        0.0918
     23 N         -12.1194  -17.8101   21.5921 N.3     1  UNL1       -0.2726
     24 C         -11.6109  -18.3971   20.3087 C.3     1  UNL1        0.0721
     25 C         -11.3803  -17.2721   19.3437 C.3     1  UNL1        0.0187
     26 C         -11.7462  -15.9898   20.0307 C.3     1  UNL1        0.0174
     27 C         -12.2030  -16.3223   21.4202 C.3     1  UNL1        0.0576
     28 C         -12.6627  -15.3395   22.4560 C.3     1  UNL1        0.0173
@<TRIPOS>BOND
     1    21    20    1
     2    21    22    1
     3    22    23    1
     4    23    24    1
     5    24    25    1
     6    25    26    1
     7    26    27    1
     8    27    28    1
     9    21    16    1
    10    16    17   am
    11    17    18    2
    12    17     1    1
    13     1     2   ar
    14     2     3   ar
    15     3     4   ar
    16     4     7    1
    17     7     8   ar
    18     8     9   ar
    19     9    10   ar
    20    10    12    1
    21    12    13    1
    22    12    14    1
    23    12    15    1
    24    10    11   ar
    25     4     5   ar
    26     5     6   ar
    27    27    23    1
    28     6     1   ar
    29    11     7   ar
    30    16    19    1
@<TRIPOS>MOLECULE
*****
 28 30 0 0 0
SMALL
GASTEIGER

@<TRIPOS>ATOM
      1 C           3.2894   -0.2365   25.9896 C.ar    1  UNL1        0.0534
      2 C           2.5231    0.4479   24.8968 C.ar    1  UNL1        0.0046
      3 C           2.6435   -0.0336   23.4814 C.ar    1  UNL1        0.0033
      4 C           3.5303   -1.1996   23.1587 C.ar    1  UNL1        0.0391
      5 C           4.2966   -1.8841   24.2516 C.ar    1  UNL1        0.0033
      6 C           4.1762   -1.4025   25.6670 C.ar    1  UNL1        0.0046
      7 C           3.6507   -1.6812   21.7432 C.ar    1  UNL1        0.2035
      8 N           3.3618   -0.8767   20.5106 N.ar    1  UNL1       -0.0557
      9 O           3.6137   -1.7500   19.3174 O.2     1  UNL1       -0.3282
     10 C           4.0583   -3.0944   19.8126 C.ar    1  UNL1        0.3320
     11 N           4.0811   -3.0518   21.3118 N.ar    1  UNL1       -0.1837
     12 C           4.4170   -4.2741   18.9584 C.3     1  UNL1        0.4721
     13 F           4.7757   -5.4539   18.1043 F       1  UNL1       -0.1619
     14 F           5.8700   -3.9233   19.0841 F       1  UNL1       -0.1619
     15 F           2.9640   -4.6249   18.8327 F       1  UNL1       -0.1619
     16 N           2.4187   -0.5726   28.4143 N.am    1  UNL1       -0.3011
     17 C           3.1690    0.2451   27.4052 C.2     1  UNL1        0.2458
     18 O           3.7989    1.5443   27.8115 O.2     1  UNL1       -0.2701
     19 H           2.0053   -1.4254   28.1476 H       1  UNL1        0.1497
     20 C           3.1835   -0.6660   30.8955 C.3     1  UNL1        0.0227
     21 C           2.2983   -0.0910   29.8298 C.3     1  UNL1        0.0878
     22 C           1.2926    0.9655   30.1796 C.3     1  UNL1        0.0918
     23 N           0.4397    1.5738   29.1061 N.3     1  UNL1       -0.2726
     24 C           0.6324    2.9267   28.4876 C.3     1  UNL1        0.0721
     25 C          -0.4439    3.1251   27.4618 C.3     1  UNL1        0.0187
     26 C          -1.3019    1.8947   27.4464 C.3     1  UNL1        0.0174
     27 C          -0.7558    0.9360   28.4626 C.3     1  UNL1        0.0576
     28 C          -1.3082   -0.4220   28.7797 C.3     1  UNL1        0.0173
@<TRIPOS>BOND
     1    21    20    1
     2    21    22    1
     3    22    23    1
     4    23    24    1
     5    24    25    1
     6    25    26    1
     7    26    27    1
     8    27    28    1
     9    21    16    1
    10    16    17   am
    11    17    18    2
    12    17     1    1
    13     1     2   ar
    14     2     3   ar
    15     3     4   ar
    16     4     7    1
    17     7     8   ar
    18     8     9   ar
    19     9    10   ar
    20    10    12    1
    21    12    13    1
    22    12    14    1
    23    12    15    1
    24    10    11   ar
    25     4     5   ar
    26     5     6   ar
    27    27    23    1
    28     6     1   ar
    29    11     7   ar
    30    16    19    1
@<TRIPOS>MOLECULE
*****
 28 30 0 0 0
SMALL
GASTEIGER

@<TRIPOS>ATOM
      1 C           0.0660    1.7235   21.3910 C.ar    1  UNL1        0.0534
      2 C           1.0901    1.4322   22.4475 C.ar    1  UNL1        0.0046
      3 C           2.1178    0.3633   22.2212 C.ar    1  UNL1        0.0033
      4 C           2.1214   -0.4143   20.9385 C.ar    1  UNL1        0.0391
      5 C           1.0973   -0.1230   19.8820 C.ar    1  UNL1        0.0033
      6 C           0.0695    0.9459   20.1083 C.ar    1  UNL1        0.0046
      7 C           3.1492   -1.4832   20.7124 C.ar    1  UNL1        0.2035
      8 N           4.4539   -1.6198   21.4397 N.ar    1  UNL1       -0.0557
      9 O           5.1638   -2.8242   20.8961 O.2     1  UNL1       -0.3282
     10 C           4.2978   -3.4319   19.8327 C.ar    1  UNL1        0.3320
     11 N           3.0527   -2.6031   19.7192 N.ar    1  UNL1       -0.1837
     12 C           4.6203   -4.6538   19.0247 C.3     1  UNL1        0.4721
     13 F           4.9428   -5.8758   18.2166 F       1  UNL1       -0.1619
     14 F           5.5998   -3.8588   18.2132 F       1  UNL1       -0.1619
     15 F           3.6407   -5.4489   19.8361 F       1  UNL1       -0.1619
     16 N          -2.2235    2.8034   20.8060 N.am    1  UNL1       -0.3011
     17 C          -0.9619    2.7924   21.6171 C.2     1  UNL1        0.2458
     18 O          -0.7279    3.8503   22.6545 O.2     1  UNL1       -0.2701
     19 H          -2.3770    2.1091   20.1251 H       1  UNL1        0.1497
     20 C          -2.9520    5.2927   20.6538 C.3     1  UNL1        0.0227
     21 C          -3.2513    3.8724   21.0321 C.3     1  UNL1        0.0878
     22 C          -4.5784    3.5209   21.6367 C.3     1  UNL1        0.0918
     23 N          -4.8272    3.7681   23.0950 N.3     1  UNL1       -0.2726
     24 C          -3.8382    3.5668   24.2047 C.3     1  UNL1        0.0721
     25 C          -4.5085    3.9342   25.4954 C.3     1  UNL1        0.0187
     26 C          -5.9119    4.3625   25.1833 C.3     1  UNL1        0.0174
     27 C          -6.1088    4.2598   23.6998 C.3     1  UNL1        0.0576
     28 C          -7.3665    4.5907   22.9524 C.3     1  UNL1        0.0173
@<TRIPOS>BOND
     1    21    20    1
     2    21    22    1
     3    22    23    1
     4    23    24    1
     5    24    25    1
     6    25    26    1
     7    26    27    1
     8    27    28    1
     9    21    16    1
    10    16    17   am
    11    17    18    2
    12    17     1    1
    13     1     2   ar
    14     2     3   ar
    15     3     4   ar
    16     4     7    1
    17     7     8   ar
    18     8     9   ar
    19     9    10   ar
    20    10    12    1
    21    12    13    1
    22    12    14    1
    23    12    15    1
    24    10    11   ar
    25     4     5   ar
    26     5     6   ar
    27    27    23    1
    28     6     1   ar
    29    11     7   ar
    30    16    19    1
@<TRIPOS>MOLECULE
*****
 28 30 0 0 0
SMALL
GASTEIGER

@<TRIPOS>ATOM
      1 C          -0.2181    2.2290   20.5568 C.ar    1  UNL1        0.0534
      2 C           0.2241    2.2860   19.1247 C.ar    1  UNL1        0.0046
      3 C           1.2212    1.2918   18.6075 C.ar    1  UNL1        0.0033
      4 C           1.7760    0.2407   19.5226 C.ar    1  UNL1        0.0391
      5 C           1.3338    0.1837   20.9547 C.ar    1  UNL1        0.0033
      6 C           0.3367    1.1778   21.4718 C.ar    1  UNL1        0.0046
      7 C           2.7732   -0.7535   19.0054 C.ar    1  UNL1        0.2035
      8 N           3.7545   -0.5218   17.8948 N.ar    1  UNL1       -0.0557
      9 O           4.5518   -1.7789   17.7110 O.2     1  UNL1       -0.3282
     10 C           4.0632   -2.7877   18.7079 C.ar    1  UNL1        0.3320
     11 N           2.9640   -2.1539   19.5079 N.ar    1  UNL1       -0.1837
     12 C           4.5827   -4.1848   18.8755 C.3     1  UNL1        0.4721
     13 F           5.1022   -5.5820   19.0430 F       1  UNL1       -0.1619
     14 F           3.1877   -4.7196   18.7413 F       1  UNL1       -0.1619
     15 F           5.9777   -3.6501   19.0096 F       1  UNL1       -0.1619
     16 N          -2.6721    2.8692   21.1210 N.am    1  UNL1       -0.3011
     17 C          -1.2152    3.2231   21.0740 C.2     1  UNL1        0.2458
     18 O          -0.7554    4.5713   21.5443 O.2     1  UNL1       -0.2701
     19 H          -2.9739    1.9844   20.8123 H       1  UNL1        0.1497
     20 C          -4.1012    3.8149   23.0738 C.3     1  UNL1        0.0227
     21 C          -3.6692    3.8634   21.6382 C.3     1  UNL1        0.0878
     22 C          -4.2343    4.9060   20.7197 C.3     1  UNL1        0.0918
     23 N          -4.1029    4.7474   19.2339 N.3     1  UNL1       -0.2726
     24 C          -3.0349    5.3550   18.3735 C.3     1  UNL1        0.0721
     25 C          -3.2883    4.9365   16.9555 C.3     1  UNL1        0.0187
     26 C          -4.5128    4.0702   16.9396 C.3     1  UNL1        0.0174
     27 C          -5.0162    3.9534   18.3478 C.3     1  UNL1        0.0576
     28 C          -6.2214    3.1786   18.7918 C.3     1  UNL1        0.0173
@<TRIPOS>BOND
     1    21    20    1
     2    21    22    1
     3    22    23    1
     4    23    24    1
     5    24    25    1
     6    25    26    1
     7    26    27    1
     8    27    28    1
     9    21    16    1
    10    16    17   am
    11    17    18    2
    12    17     1    1
    13     1     2   ar
    14     2     3   ar
    15     3     4   ar
    16     4     7    1
    17     7     8   ar
    18     8     9   ar
    19     9    10   ar
    20    10    12    1
    21    12    13    1
    22    12    14    1
    23    12    15    1
    24    10    11   ar
    25     4     5   ar
    26     5     6   ar
    27    27    23    1
    28     6     1   ar
    29    11     7   ar
    30    16    19    1
@<TRIPOS>MOLECULE
*****
 28 30 0 0 0
SMALL
GASTEIGER

@<TRIPOS>ATOM
      1 C           2.3088    0.6092   18.9484 C.ar    1  UNL1        0.0534
      2 C           1.3506   -0.1905   19.7804 C.ar    1  UNL1        0.0046
      3 C           0.2165    0.4939   20.4841 C.ar    1  UNL1        0.0033
      4 C           0.0405    1.9780   20.3559 C.ar    1  UNL1        0.0391
      5 C           0.9987    2.7777   19.5239 C.ar    1  UNL1        0.0033
      6 C           2.1328    2.0934   18.8202 C.ar    1  UNL1        0.0046
      7 C          -1.0937    2.6624   21.0597 C.ar    1  UNL1        0.2035
      8 N          -1.0073    3.3948   22.3659 N.ar    1  UNL1       -0.0557
      9 O          -2.3735    3.9196   22.6944 O.2     1  UNL1       -0.3282
     10 C          -3.3044    3.5114   21.5912 C.ar    1  UNL1        0.3320
     11 N          -2.5134    2.7344   20.5810 N.ar    1  UNL1       -0.1837
     12 C          -4.7691    3.8252   21.5122 C.3     1  UNL1        0.4721
     13 F          -6.2338    4.1389   21.4332 F       1  UNL1       -0.1619
     14 F          -4.9312    2.7965   20.4326 F       1  UNL1       -0.1619
     15 F          -4.6070    4.8538   22.5918 F       1  UNL1       -0.1619
     16 N           4.7999   -0.1254   18.8818 N.am    1  UNL1       -0.3011
     17 C           3.4430   -0.0751   18.2446 C.2     1  UNL1        0.2458
     18 O           3.2201   -0.7092   16.9036 O.2     1  UNL1       -0.2701
     19 H           4.9462    0.2908   19.7619 H       1  UNL1        0.1497
     20 C           6.7707   -0.0516   17.1904 C.3     1  UNL1        0.0227
     21 C           5.9342   -0.8098   18.1779 C.3     1  UNL1        0.0878
     22 C           6.2317   -2.2523   18.4617 C.3     1  UNL1        0.0918
     23 N           5.8634   -2.8472   19.7885 N.3     1  UNL1       -0.2726
     24 C           6.7230   -2.8610   21.0177 C.3     1  UNL1        0.0721
     25 C           5.9616   -3.5550   22.1080 C.3     1  UNL1        0.0187
     26 C           4.6315   -3.9701   21.5526 C.3     1  UNL1        0.0174
     27 C           4.5708   -3.5326   20.1191 C.3     1  UNL1        0.0576
     28 C           3.4196   -3.7436   19.1809 C.3     1  UNL1        0.0173
@<TRIPOS>BOND
     1    21    20    1
     2    21    22    1
     3    22    23    1
     4    23    24    1
     5    24    25    1
     6    25    26    1
     7    26    27    1
     8    27    28    1
     9    21    16    1
    10    16    17   am
    11    17    18    2
    12    17     1    1
    13     1     2   ar
    14     2     3   ar
    15     3     4   ar
    16     4     7    1
    17     7     8   ar
    18     8     9   ar
    19     9    10   ar
    20    10    12    1
    21    12    13    1
    22    12    14    1
    23    12    15    1
    24    10    11   ar
    25     4     5   ar
    26     5     6   ar
    27    27    23    1
    28     6     1   ar
    29    11     7   ar
    30    16    19    1
@<TRIPOS>MOLECULE
*****
 28 30 0 0 0
SMALL
GASTEIGER

@<TRIPOS>ATOM
      1 C           7.1829   -4.3515   23.2543 C.ar    1  UNL1        0.0534
      2 C           7.7920   -5.5971   23.8264 C.ar    1  UNL1        0.0046
      3 C           7.7787   -5.8258   25.3088 C.ar    1  UNL1        0.0033
      4 C           7.1563   -4.8089   26.2190 C.ar    1  UNL1        0.0391
      5 C           6.5473   -3.5632   25.6469 C.ar    1  UNL1        0.0033
      6 C           6.5606   -3.3346   24.1645 C.ar    1  UNL1        0.0046
      7 C           7.1431   -5.0376   27.7015 C.ar    1  UNL1        0.2035
      8 N           7.5322   -6.3060   28.4014 N.ar    1  UNL1       -0.0557
      9 O           7.3680   -6.0904   29.8767 O.2     1  UNL1       -0.3282
     10 C           6.8773   -4.6888   30.0886 C.ar    1  UNL1        0.3320
     11 N           6.7384   -4.0382   28.7442 N.ar    1  UNL1       -0.1837
     12 C           6.5782   -4.0500   31.4124 C.3     1  UNL1        0.4721
     13 F           6.2791   -3.4113   32.7363 F       1  UNL1       -0.1619
     14 F           6.4534   -2.7150   30.7400 F       1  UNL1       -0.1619
     15 F           6.7030   -5.3851   32.0848 F       1  UNL1       -0.1619
     16 N           6.6847   -2.8305   21.2077 N.am    1  UNL1       -0.3011
     17 C           7.1962   -4.1228   21.7718 C.2     1  UNL1        0.2458
     18 O           7.7210   -5.1864   20.8535 O.2     1  UNL1       -0.2701
     19 H           6.3402   -2.1324   21.8105 H       1  UNL1        0.1497
     20 C           7.9519   -2.1307   19.0503 C.3     1  UNL1        0.0227
     21 C           6.6979   -2.6017   19.7253 C.3     1  UNL1        0.0878
     22 C           5.4572   -2.8441   18.9179 C.3     1  UNL1        0.0918
     23 N           4.2825   -1.9212   19.0527 N.3     1  UNL1       -0.2726
     24 C           3.1914   -2.0264   20.0766 C.3     1  UNL1        0.0721
     25 C           2.2272   -0.9012   19.8439 C.3     1  UNL1        0.0187
     26 C           2.7224   -0.1005   18.6761 C.3     1  UNL1        0.0174
     27 C           3.9926   -0.7309   18.1871 C.3     1  UNL1        0.0576
     28 C           4.8265   -0.2546   17.0348 C.3     1  UNL1        0.0173
@<TRIPOS>BOND
     1    21    20    1
     2    21    22    1
     3    22    23    1
     4    23    24    1
     5    24    25    1
     6    25    26    1
     7    26    27    1
     8    27    28    1
     9    21    16    1
    10    16    17   am
    11    17    18    2
    12    17     1    1
    13     1     2   ar
    14     2     3   ar
    15     3     4   ar
    16     4     7    1
    17     7     8   ar
    18     8     9   ar
    19     9    10   ar
    20    10    12    1
    21    12    13    1
    22    12    14    1
    23    12    15    1
    24    10    11   ar
    25     4     5   ar
    26     5     6   ar
    27    27    23    1
    28     6     1   ar
    29    11     7   ar
    30    16    19    1
@<TRIPOS>MOLECULE
*****
 28 30 0 0 0
SMALL
GASTEIGER

@<TRIPOS>ATOM
      1 C           0.5109    1.7983   19.4385 C.ar    1  UNL1        0.0534
      2 C           1.6821    2.2257   18.6046 C.ar    1  UNL1        0.0046
      3 C           2.8223    1.2794   18.3721 C.ar    1  UNL1        0.0033
      4 C           2.7914   -0.0944   18.9735 C.ar    1  UNL1        0.0391
      5 C           1.6202   -0.5218   19.8075 C.ar    1  UNL1        0.0033
      6 C           0.4799    0.4246   20.0400 C.ar    1  UNL1        0.0046
      7 C           3.9317   -1.0408   18.7409 C.ar    1  UNL1        0.2035
      8 N           4.4312   -1.5084   17.4060 N.ar    1  UNL1       -0.0557
      9 O           5.5809   -2.4423   17.6425 O.2     1  UNL1       -0.3282
     10 C           5.7920   -2.5520   19.1235 C.ar    1  UNL1        0.3320
     11 N           4.7727   -1.6858   19.8024 N.ar    1  UNL1       -0.1837
     12 C           6.8386   -3.3821   19.8059 C.3     1  UNL1        0.4721
     13 F           7.8852   -4.2122   20.4883 F       1  UNL1       -0.1619
     14 F           5.7730   -4.0608   20.6146 F       1  UNL1       -0.1619
     15 F           7.9042   -2.7034   18.9973 F       1  UNL1       -0.1619
     16 N          -1.4976    2.5893   20.8844 N.am    1  UNL1       -0.3011
     17 C          -0.6295    2.7448   19.6711 C.2     1  UNL1        0.2458
     18 O          -0.9016    3.8465   18.6903 O.2     1  UNL1       -0.2701
     19 H          -1.3189    1.8662   21.5281 H       1  UNL1        0.1497
     20 C          -2.3983    4.8417   21.8147 C.3     1  UNL1        0.0227
     21 C          -2.6379    3.5357   21.1170 C.3     1  UNL1        0.0878
     22 C          -4.0179    3.1761   20.6518 C.3     1  UNL1        0.0918
     23 N          -5.2124    3.8590   21.2488 N.3     1  UNL1       -0.2726
     24 C          -5.8115    3.5719   22.5937 C.3     1  UNL1        0.0721
     25 C          -6.9870    4.4844   22.7819 C.3     1  UNL1        0.0187
     26 C          -7.1144    5.3356   21.5533 C.3     1  UNL1        0.0174
     27 C          -6.0176    4.9491   20.6059 C.3     1  UNL1        0.0576
     28 C          -5.7697    5.5475   19.2530 C.3     1  UNL1        0.0173
@<TRIPOS>BOND
     1    21    20    1
     2    21    22    1
     3    22    23    1
     4    23    24    1
     5    24    25    1
     6    25    26    1
     7    26    27    1
     8    27    28    1
     9    21    16    1
    10    16    17   am
    11    17    18    2
    12    17     1    1
    13     1     2   ar
    14     2     3   ar
    15     3     4   ar
    16     4     7    1
    17     7     8   ar
    18     8     9   ar
    19     9    10   ar
    20    10    12    1
    21    12    13    1
    22    12    14    1
    23    12    15    1
    24    10    11   ar
    25     4     5   ar
    26     5     6   ar
    27    27    23    1
    28     6     1   ar
    29    11     7   ar
    30    16    19    1
