@<TRIPOS>MOLECULE
*****
 38 43 0 0 0
SMALL
GASTEIGER

@<TRIPOS>ATOM
      1 C          -1.8841    3.1608   26.3298 C.ar    1  UNL1        0.0140
      2 C          -1.1081    2.7273   27.5381 C.ar    1  UNL1        0.0011
      3 C           0.1585    1.9408   27.3735 C.ar    1  UNL1        0.0000
      4 C           0.6492    1.5878   26.0007 C.ar    1  UNL1        0.0000
      5 C           1.9157    0.8012   25.8361 C.ar    1  UNL1        0.0000
      6 C           2.4064    0.4483   24.4633 C.ar    1  UNL1       -0.0000
      7 C           1.6304    0.8818   23.2550 C.ar    1  UNL1       -0.0000
      8 C           0.3638    1.6684   23.4196 C.ar    1  UNL1        0.0000
      9 C          -0.1268    2.0213   24.7924 C.ar    1  UNL1        0.0000
     10 C          -1.3935    2.8079   24.9570 C.ar    1  UNL1        0.0011
     11 C           0.9344    1.5072   28.5818 C.ar    1  UNL1       -0.0000
     12 C           1.0672    0.0483   28.9041 C.ar    1  UNL1       -0.0003
     13 C           1.8432   -0.3852   30.1124 C.ar    1  UNL1       -0.0042
     14 C           2.4864    0.6401   30.9983 C.ar    1  UNL1       -0.0209
     15 C           2.3536    2.0991   30.6760 C.ar    1  UNL1       -0.0042
     16 C           1.5776    2.5326   29.4678 C.ar    1  UNL1       -0.0003
     17 C           3.2623    0.2066   32.2066 C.3     1  UNL1        0.0408
     18 C           4.0144   -1.0827   32.3556 C.3     1  UNL1        0.0151
     19 C           4.6394   -1.0999   33.7191 C.3     1  UNL1        0.0785
     20 C           4.2735    0.1787   34.4128 C.3     1  UNL1        0.0290
     21 C           3.4225    0.9861   33.4781 C.3     1  UNL1        0.0760
     22 N           4.0475    0.9689   34.8416 N.am    1  UNL1       -0.3056
     23 C           4.7995   -0.3203   34.9905 C.2     1  UNL1        0.2220
     24 O           5.5754   -0.7539   36.1987 O.2     1  UNL1       -0.2751
     25 H           3.9765    1.6791   35.5197 H       1  UNL1        0.1494
     26 C           2.1211    0.5288   21.8822 C.ar    1  UNL1       -0.0000
     27 C           2.6239   -0.8556   21.5983 C.ar    1  UNL1       -0.0001
     28 C           3.1145   -1.2086   20.2255 C.ar    1  UNL1        0.0039
     29 C           3.1024   -0.1771   19.1365 C.ar    1  UNL1        0.0714
     30 C           2.5996    1.2074   19.4203 C.ar    1  UNL1        0.0039
     31 C           2.1089    1.5603   20.7932 C.ar    1  UNL1       -0.0001
     32 C           3.5931   -0.5300   17.7637 C.3     1  UNL1        0.4186
     33 F           4.0837   -0.8829   16.3909 F       1  UNL1       -0.1659
     34 F           3.5948    0.9229   17.3908 F       1  UNL1       -0.1659
     35 F           3.5913   -1.9829   18.1366 F       1  UNL1       -0.1659
     36 O          -4.4383    3.4219   25.9323 O.co2   1  UNL1       -0.5446
     37 C          -3.1507    3.9474   26.4944 C.2     1  UNL1        0.0729
     38 O          -3.1297    5.2594   27.2211 O.co2   1  UNL1       -0.5446
@<TRIPOS>UNITY_ATOM_ATTR
36 1
charge -1
@<TRIPOS>BOND
     1    36    37   ar
     2    37    38   ar
     3    37     1    1
     4     1     2   ar
     5     2     3   ar
     6     3    11    1
     7    11    12   ar
     8    12    13   ar
     9    13    14   ar
    10    17    14    1
    11    17    18    1
    12    19    18    1
    13    19    20    1
    14    20    21    1
    15    21    22    1
    16    22    23   am
    17    23    24    2
    18    14    15   ar
    19    15    16   ar
    20     3     4   ar
    21     4     5   ar
    22     5     6   ar
    23     6     7   ar
    24     7    26    1
    25    26    27   ar
    26    27    28   ar
    27    28    29   ar
    28    29    32    1
    29    32    33    1
    30    32    34    1
    31    32    35    1
    32    29    30   ar
    33    30    31   ar
    34     7     8   ar
    35     8     9   ar
    36     9    10   ar
    37    10     1   ar
    38    16    11   ar
    39     9     4   ar
    40    21    17    1
    41    31    26   ar
    42    23    19    1
    43    22    25    1
@<TRIPOS>MOLECULE
*****
 38 43 0 0 0
SMALL
GASTEIGER

@<TRIPOS>ATOM
      1 C           8.0141   -5.2809   30.1971 C.ar    1  UNL1        0.0140
      2 C           7.6743   -4.4017   31.3639 C.ar    1  UNL1        0.0011
      3 C           6.8110   -3.1913   31.1646 C.ar    1  UNL1        0.0000
      4 C           6.2875   -2.8602   29.7984 C.ar    1  UNL1        0.0000
      5 C           5.4242   -1.6499   29.5991 C.ar    1  UNL1        0.0000
      6 C           4.9007   -1.3188   28.2330 C.ar    1  UNL1       -0.0000
      7 C           5.2405   -2.1981   27.0662 C.ar    1  UNL1       -0.0000
      8 C           6.1038   -3.4084   27.2655 C.ar    1  UNL1        0.0000
      9 C           6.6273   -3.7395   28.6316 C.ar    1  UNL1        0.0000
     10 C           7.4907   -4.9498   28.8309 C.ar    1  UNL1        0.0011
     11 C           6.4712   -2.3121   32.3314 C.ar    1  UNL1       -0.0000
     12 C           5.1118   -2.3925   32.9603 C.ar    1  UNL1       -0.0003
     13 C           4.7720   -1.5133   34.1271 C.ar    1  UNL1       -0.0042
     14 C           5.7915   -0.5536   34.6650 C.ar    1  UNL1       -0.0209
     15 C           7.1510   -0.4731   34.0361 C.ar    1  UNL1       -0.0042
     16 C           7.4908   -1.3523   32.8693 C.ar    1  UNL1       -0.0003
     17 C           5.4517    0.3257   35.8318 C.3     1  UNL1        0.0408
     18 C           6.1207    1.6212   36.1838 C.3     1  UNL1        0.0151
     19 C           5.4657    2.1600   37.4211 C.3     1  UNL1        0.0785
     20 C           4.3918    1.1974   37.8336 C.3     1  UNL1        0.0290
     21 C           4.3832    0.0638   36.8514 C.3     1  UNL1        0.0760
     22 N           3.7282    0.6025   38.0886 N.am    1  UNL1       -0.3056
     23 C           4.3972    1.8980   38.4406 C.2     1  UNL1        0.2220
     24 O           4.0574    2.7773   39.6074 O.2     1  UNL1       -0.2751
     25 H           2.9889    0.1800   38.5828 H       1  UNL1        0.1494
     26 C           4.7170   -1.8669   25.7000 C.ar    1  UNL1       -0.0000
     27 C           3.6359   -0.8395   25.5398 C.ar    1  UNL1       -0.0001
     28 C           3.1124   -0.5084   24.1736 C.ar    1  UNL1        0.0039
     29 C           3.6700   -1.2047   22.9677 C.ar    1  UNL1        0.0714
     30 C           4.7511   -2.2322   23.1280 C.ar    1  UNL1        0.0039
     31 C           5.2745   -2.5633   24.4941 C.ar    1  UNL1       -0.0001
     32 C           3.1465   -0.8737   21.6016 C.3     1  UNL1        0.4186
     33 F           2.6230   -0.5426   20.2355 F       1  UNL1       -0.1659
     34 F           4.2394   -1.6945   20.9839 F       1  UNL1       -0.1659
     35 F           2.0536   -0.0528   22.2193 F       1  UNL1       -0.1659
     36 O           9.4735   -6.7738   31.7436 O.co2   1  UNL1       -0.5446
     37 C           8.8775   -6.4913   30.3964 C.2     1  UNL1        0.0729
     38 O           9.1449   -7.4191   29.2485 O.co2   1  UNL1       -0.5446
@<TRIPOS>UNITY_ATOM_ATTR
36 1
charge -1
@<TRIPOS>BOND
     1    36    37   ar
     2    37    38   ar
     3    37     1    1
     4     1     2   ar
     5     2     3   ar
     6     3    11    1
     7    11    12   ar
     8    12    13   ar
     9    13    14   ar
    10    17    14    1
    11    17    18    1
    12    19    18    1
    13    19    20    1
    14    20    21    1
    15    21    22    1
    16    22    23   am
    17    23    24    2
    18    14    15   ar
    19    15    16   ar
    20     3     4   ar
    21     4     5   ar
    22     5     6   ar
    23     6     7   ar
    24     7    26    1
    25    26    27   ar
    26    27    28   ar
    27    28    29   ar
    28    29    32    1
    29    32    33    1
    30    32    34    1
    31    32    35    1
    32    29    30   ar
    33    30    31   ar
    34     7     8   ar
    35     8     9   ar
    36     9    10   ar
    37    10     1   ar
    38    16    11   ar
    39     9     4   ar
    40    21    17    1
    41    31    26   ar
    42    23    19    1
    43    22    25    1
@<TRIPOS>MOLECULE
*****
 38 43 0 0 0
SMALL
GASTEIGER

@<TRIPOS>ATOM
      1 C          -0.9300    2.9461   26.2229 C.ar    1  UNL1        0.0140
      2 C          -0.2812    2.6976   27.5523 C.ar    1  UNL1        0.0011
      3 C           0.9010    1.7796   27.6500 C.ar    1  UNL1        0.0000
      4 C           1.4345    1.1100   26.4183 C.ar    1  UNL1        0.0000
      5 C           2.6167    0.1920   26.5161 C.ar    1  UNL1        0.0000
      6 C           3.1501   -0.4776   25.2844 C.ar    1  UNL1       -0.0000
      7 C           2.5013   -0.2292   23.9550 C.ar    1  UNL1       -0.0000
      8 C           1.3191    0.6888   23.8572 C.ar    1  UNL1        0.0000
      9 C           0.7857    1.3584   25.0889 C.ar    1  UNL1        0.0000
     10 C          -0.3965    2.2765   24.9912 C.ar    1  UNL1        0.0011
     11 C           1.5498    1.5312   28.9795 C.ar    1  UNL1       -0.0000
     12 C           1.6896    0.1298   29.4956 C.ar    1  UNL1       -0.0003
     13 C           2.3383   -0.1186   30.8250 C.ar    1  UNL1       -0.0042
     14 C           2.8474    1.0343   31.6383 C.ar    1  UNL1       -0.0209
     15 C           2.7076    2.4359   31.1222 C.ar    1  UNL1       -0.0042
     16 C           2.0588    2.6843   29.7928 C.ar    1  UNL1       -0.0003
     17 C           3.4962    0.7859   32.9677 C.3     1  UNL1        0.0408
     18 C           3.5809    1.7619   34.1036 C.3     1  UNL1        0.0151
     19 C           4.3112    1.0971   35.2326 C.3     1  UNL1        0.0785
     20 C           4.6778   -0.2899   34.7945 C.3     1  UNL1        0.0290
     21 C           4.1741   -0.4822   33.3947 C.3     1  UNL1        0.0760
     22 N           4.9044   -1.1470   34.5237 N.am    1  UNL1       -0.3056
     23 C           4.9891   -0.1710   35.6595 C.2     1  UNL1        0.2220
     24 O           5.6379   -0.4194   36.9889 O.2     1  UNL1       -0.2751
     25 H           5.2648   -2.0632   34.5199 H       1  UNL1        0.1494
     26 C           3.0348   -0.8989   22.7233 C.ar    1  UNL1       -0.0000
     27 C           4.1381   -1.9087   22.8367 C.ar    1  UNL1       -0.0001
     28 C           4.6716   -2.5783   21.6050 C.ar    1  UNL1        0.0039
     29 C           4.1017   -2.2381   20.2599 C.ar    1  UNL1        0.0714
     30 C           2.9983   -1.2282   20.1464 C.ar    1  UNL1        0.0039
     31 C           2.4649   -0.5586   21.3781 C.ar    1  UNL1       -0.0001
     32 C           4.6351   -2.9077   19.0282 C.3     1  UNL1        0.4186
     33 F           5.1685   -3.5773   17.7965 F       1  UNL1       -0.1659
     34 F           3.4095   -3.7702   18.9663 F       1  UNL1       -0.1659
     35 F           5.8607   -2.0451   19.0901 F       1  UNL1       -0.1659
     36 O          -2.0099    5.1377   25.3393 O.co2   1  UNL1       -0.5446
     37 C          -2.1122    3.8642   26.1252 C.2     1  UNL1        0.0729
     38 O          -3.3968    3.5086   26.8133 O.co2   1  UNL1       -0.5446
@<TRIPOS>UNITY_ATOM_ATTR
36 1
charge -1
@<TRIPOS>BOND
     1    36    37   ar
     2    37    38   ar
     3    37     1    1
     4     1     2   ar
     5     2     3   ar
     6     3    11    1
     7    11    12   ar
     8    12    13   ar
     9    13    14   ar
    10    17    14    1
    11    17    18    1
    12    19    18    1
    13    19    20    1
    14    20    21    1
    15    21    22    1
    16    22    23   am
    17    23    24    2
    18    14    15   ar
    19    15    16   ar
    20     3     4   ar
    21     4     5   ar
    22     5     6   ar
    23     6     7   ar
    24     7    26    1
    25    26    27   ar
    26    27    28   ar
    27    28    29   ar
    28    29    32    1
    29    32    33    1
    30    32    34    1
    31    32    35    1
    32    29    30   ar
    33    30    31   ar
    34     7     8   ar
    35     8     9   ar
    36     9    10   ar
    37    10     1   ar
    38    16    11   ar
    39     9     4   ar
    40    21    17    1
    41    31    26   ar
    42    23    19    1
    43    22    25    1
@<TRIPOS>MOLECULE
*****
 38 43 0 0 0
SMALL
GASTEIGER

@<TRIPOS>ATOM
      1 C          -1.8457    4.0018   24.1146 C.ar    1  UNL1        0.0140
      2 C          -1.4336    3.9775   25.5567 C.ar    1  UNL1        0.0011
      3 C          -0.3349    3.0613   26.0074 C.ar    1  UNL1        0.0000
      4 C           0.3518    2.1692   25.0160 C.ar    1  UNL1        0.0000
      5 C           1.4506    1.2530   25.4668 C.ar    1  UNL1        0.0000
      6 C           2.1372    0.3610   24.4754 C.ar    1  UNL1       -0.0000
      7 C           1.7251    0.3853   23.0333 C.ar    1  UNL1       -0.0000
      8 C           0.6264    1.3016   22.5826 C.ar    1  UNL1        0.0000
      9 C          -0.0602    2.1935   23.5740 C.ar    1  UNL1        0.0000
     10 C          -1.1591    3.1099   23.1233 C.ar    1  UNL1        0.0011
     11 C           0.0772    3.0370   27.4495 C.ar    1  UNL1       -0.0000
     12 C           0.7684    4.2240   28.0521 C.ar    1  UNL1       -0.0003
     13 C           1.1805    4.1997   29.4942 C.ar    1  UNL1       -0.0042
     14 C           0.9014    2.9884   30.3337 C.ar    1  UNL1       -0.0209
     15 C           0.2101    1.8013   29.7311 C.ar    1  UNL1       -0.0042
     16 C          -0.2020    1.8256   28.2890 C.ar    1  UNL1       -0.0003
     17 C           1.3135    2.9641   31.7758 C.3     1  UNL1        0.0408
     18 C           1.1129    4.0703   32.7688 C.3     1  UNL1        0.0151
     19 C           1.6740    3.6192   34.0848 C.3     1  UNL1        0.0785
     20 C           2.2212    2.2342   33.9051 C.3     1  UNL1        0.0290
     21 C           1.9984    1.8294   32.4780 C.3     1  UNL1        0.0760
     22 N           2.5594    1.3783   33.7940 N.am    1  UNL1       -0.3056
     23 C           2.3589    2.4845   34.7870 C.2     1  UNL1        0.2220
     24 O           2.7710    2.4602   36.2290 O.2     1  UNL1       -0.2751
     25 H           2.9846    0.5089   33.9743 H       1  UNL1        0.1494
     26 C           2.4119   -0.5067   22.0419 C.ar    1  UNL1       -0.0000
     27 C           2.0043   -0.4777   20.5987 C.ar    1  UNL1       -0.0001
     28 C           2.6910   -1.3697   19.6073 C.ar    1  UNL1        0.0039
     29 C           3.7853   -2.2908   20.0593 C.ar    1  UNL1        0.0714
     30 C           4.1928   -2.3198   21.5026 C.ar    1  UNL1        0.0039
     31 C           3.5061   -1.4278   22.4939 C.ar    1  UNL1       -0.0001
     32 C           4.4720   -3.1828   19.0680 C.3     1  UNL1        0.4186
     33 F           5.1587   -4.0748   18.0767 F       1  UNL1       -0.1659
     34 F           5.7359   -2.3918   19.2318 F       1  UNL1       -0.1659
     35 F           3.2081   -3.9738   18.9042 F       1  UNL1       -0.1659
     36 O          -2.6115    6.1906   22.9429 O.co2   1  UNL1       -0.5446
     37 C          -2.9445    4.9182   23.6639 C.2     1  UNL1        0.0729
     38 O          -4.3763    4.5619   23.9343 O.co2   1  UNL1       -0.5446
@<TRIPOS>UNITY_ATOM_ATTR
36 1
charge -1
@<TRIPOS>BOND
     1    36    37   ar
     2    37    38   ar
     3    37     1    1
     4     1     2   ar
     5     2     3   ar
     6     3    11    1
     7    11    12   ar
     8    12    13   ar
     9    13    14   ar
    10    17    14    1
    11    17    18    1
    12    19    18    1
    13    19    20    1
    14    20    21    1
    15    21    22    1
    16    22    23   am
    17    23    24    2
    18    14    15   ar
    19    15    16   ar
    20     3     4   ar
    21     4     5   ar
    22     5     6   ar
    23     6     7   ar
    24     7    26    1
    25    26    27   ar
    26    27    28   ar
    27    28    29   ar
    28    29    32    1
    29    32    33    1
    30    32    34    1
    31    32    35    1
    32    29    30   ar
    33    30    31   ar
    34     7     8   ar
    35     8     9   ar
    36     9    10   ar
    37    10     1   ar
    38    16    11   ar
    39     9     4   ar
    40    21    17    1
    41    31    26   ar
    42    23    19    1
    43    22    25    1
@<TRIPOS>MOLECULE
*****
 38 43 0 0 0
SMALL
GASTEIGER

@<TRIPOS>ATOM
      1 C           2.1845    0.6617   24.0835 C.ar    1  UNL1        0.0140
      2 C           2.6595    0.5052   25.4976 C.ar    1  UNL1        0.0011
      3 C           1.8124    0.9998   26.6324 C.ar    1  UNL1        0.0000
      4 C           0.4903    1.6511   26.3530 C.ar    1  UNL1        0.0000
      5 C          -0.3568    2.1457   27.4878 C.ar    1  UNL1        0.0000
      6 C          -1.6788    2.7969   27.2084 C.ar    1  UNL1       -0.0000
      7 C          -2.1538    2.9534   25.7942 C.ar    1  UNL1       -0.0000
      8 C          -1.3067    2.4588   24.6594 C.ar    1  UNL1        0.0000
      9 C           0.0153    1.8076   24.9388 C.ar    1  UNL1        0.0000
     10 C           0.8625    1.3129   23.8040 C.ar    1  UNL1        0.0011
     11 C           2.2874    0.8433   28.0466 C.ar    1  UNL1       -0.0000
     12 C           3.1061    1.9248   28.6868 C.ar    1  UNL1       -0.0003
     13 C           3.5811    1.7682   30.1010 C.ar    1  UNL1       -0.0042
     14 C           3.2373    0.5302   30.8749 C.ar    1  UNL1       -0.0209
     15 C           2.4185   -0.5514   30.2347 C.ar    1  UNL1       -0.0042
     16 C           1.9436   -0.3948   28.8205 C.ar    1  UNL1       -0.0003
     17 C           3.7123    0.3737   32.2891 C.3     1  UNL1        0.0408
     18 C           3.8406    1.4718   33.3028 C.3     1  UNL1        0.0151
     19 C           4.3499    0.8684   34.5781 C.3     1  UNL1        0.0785
     20 C           4.5365   -0.6028   34.3526 C.3     1  UNL1        0.0290
     21 C           4.1424   -0.9085   32.9380 C.3     1  UNL1        0.0760
     22 N           4.6517   -1.5120   34.2133 N.am    1  UNL1       -0.3056
     23 C           4.7800   -0.4138   35.2268 C.2     1  UNL1        0.2220
     24 O           5.2550   -0.5704   36.6410 O.2     1  UNL1       -0.2751
     25 H           4.8645   -2.4621   34.3593 H       1  UNL1        0.1494
     26 C          -3.4759    3.6047   25.5148 C.ar    1  UNL1       -0.0000
     27 C          -4.1432    3.4074   24.1860 C.ar    1  UNL1       -0.0001
     28 C          -5.4653    4.0586   23.9067 C.ar    1  UNL1        0.0039
     29 C          -6.1201    4.9071   24.9561 C.ar    1  UNL1        0.0714
     30 C          -5.4527    5.1044   26.2850 C.ar    1  UNL1        0.0039
     31 C          -4.1306    4.4532   26.5643 C.ar    1  UNL1       -0.0001
     32 C          -7.4421    5.5583   24.6768 C.3     1  UNL1        0.4186
     33 F          -8.7641    6.2096   24.3975 F       1  UNL1       -0.1659
     34 F          -7.0256    6.7509   25.4857 F       1  UNL1       -0.1659
     35 F          -7.8586    4.3658   23.8679 F       1  UNL1       -0.1659
     36 O           3.6338    1.1426   21.9814 O.co2   1  UNL1       -0.5446
     37 C           3.0317    0.1670   22.9487 C.2     1  UNL1        0.0729
     38 O           3.2767   -1.3033   22.7812 O.co2   1  UNL1       -0.5446
@<TRIPOS>UNITY_ATOM_ATTR
36 1
charge -1
@<TRIPOS>BOND
     1    36    37   ar
     2    37    38   ar
     3    37     1    1
     4     1     2   ar
     5     2     3   ar
     6     3    11    1
     7    11    12   ar
     8    12    13   ar
     9    13    14   ar
    10    17    14    1
    11    17    18    1
    12    19    18    1
    13    19    20    1
    14    20    21    1
    15    21    22    1
    16    22    23   am
    17    23    24    2
    18    14    15   ar
    19    15    16   ar
    20     3     4   ar
    21     4     5   ar
    22     5     6   ar
    23     6     7   ar
    24     7    26    1
    25    26    27   ar
    26    27    28   ar
    27    28    29   ar
    28    29    32    1
    29    32    33    1
    30    32    34    1
    31    32    35    1
    32    29    30   ar
    33    30    31   ar
    34     7     8   ar
    35     8     9   ar
    36     9    10   ar
    37    10     1   ar
    38    16    11   ar
    39     9     4   ar
    40    21    17    1
    41    31    26   ar
    42    23    19    1
    43    22    25    1
@<TRIPOS>MOLECULE
*****
 38 43 0 0 0
SMALL
GASTEIGER

@<TRIPOS>ATOM
      1 C           0.2078    2.6691   26.6735 C.ar    1  UNL1        0.0140
      2 C           0.9353    2.3878   27.9548 C.ar    1  UNL1        0.0011
      3 C           2.0362    1.3694   27.9842 C.ar    1  UNL1        0.0000
      4 C           2.4096    0.6322   26.7323 C.ar    1  UNL1        0.0000
      5 C           3.5104   -0.3862   26.7617 C.ar    1  UNL1        0.0000
      6 C           3.8838   -1.1234   25.5099 C.ar    1  UNL1       -0.0000
      7 C           3.1562   -0.8421   24.2286 C.ar    1  UNL1       -0.0000
      8 C           2.0554    0.1763   24.1992 C.ar    1  UNL1        0.0000
      9 C           1.6821    0.9134   25.4511 C.ar    1  UNL1        0.0000
     10 C           0.5811    1.9319   25.4217 C.ar    1  UNL1        0.0011
     11 C           2.7637    1.0882   29.2655 C.ar    1  UNL1       -0.0000
     12 C           2.4454   -0.1482   30.0528 C.ar    1  UNL1       -0.0003
     13 C           3.1729   -0.4295   31.3341 C.ar    1  UNL1       -0.0042
     14 C           4.2187    0.5257   31.8280 C.ar    1  UNL1       -0.0209
     15 C           4.5370    1.7622   31.0406 C.ar    1  UNL1       -0.0042
     16 C           3.8095    2.0434   29.7594 C.ar    1  UNL1       -0.0003
     17 C           4.9462    0.2444   33.1092 C.3     1  UNL1        0.0408
     18 C           6.4093   -0.0573   33.2445 C.3     1  UNL1        0.0151
     19 C           6.7057   -0.2727   34.6990 C.3     1  UNL1        0.0785
     20 C           5.4258   -0.1041   35.4628 C.3     1  UNL1        0.0290
     21 C           4.3384    0.2155   34.4803 C.3     1  UNL1        0.0760
     22 N           4.6348    0.0001   35.9348 N.am    1  UNL1       -0.3056
     23 C           6.0979   -0.3016   36.0700 C.2     1  UNL1        0.2220
     24 O           6.8254   -0.5828   37.3512 O.2     1  UNL1       -0.2751
     25 H           3.9835    0.0484   36.6715 H       1  UNL1        0.1494
     26 C           3.5296   -1.5794   22.9767 C.ar    1  UNL1       -0.0000
     27 C           3.0056   -1.1171   21.6495 C.ar    1  UNL1       -0.0001
     28 C           3.3790   -1.8543   20.3976 C.ar    1  UNL1        0.0039
     29 C           4.2764   -3.0538   20.4731 C.ar    1  UNL1        0.0714
     30 C           4.8005   -3.5161   21.8004 C.ar    1  UNL1        0.0039
     31 C           4.4271   -2.7789   23.0522 C.ar    1  UNL1       -0.0001
     32 C           4.6498   -3.7910   19.2213 C.3     1  UNL1        0.4186
     33 F           5.0232   -4.5283   17.9695 F       1  UNL1       -0.1659
     34 F           3.2324   -3.6928   18.7406 F       1  UNL1       -0.1659
     35 F           6.0673   -3.8893   19.7019 F       1  UNL1       -0.1659
     36 O          -2.3175    3.2579   26.8348 O.co2   1  UNL1       -0.5446
     37 C          -0.8931    3.6875   26.6442 C.2     1  UNL1        0.0729
     38 O          -0.5695    5.1356   26.4242 O.co2   1  UNL1       -0.5446
@<TRIPOS>UNITY_ATOM_ATTR
36 1
charge -1
@<TRIPOS>BOND
     1    36    37   ar
     2    37    38   ar
     3    37     1    1
     4     1     2   ar
     5     2     3   ar
     6     3    11    1
     7    11    12   ar
     8    12    13   ar
     9    13    14   ar
    10    17    14    1
    11    17    18    1
    12    19    18    1
    13    19    20    1
    14    20    21    1
    15    21    22    1
    16    22    23   am
    17    23    24    2
    18    14    15   ar
    19    15    16   ar
    20     3     4   ar
    21     4     5   ar
    22     5     6   ar
    23     6     7   ar
    24     7    26    1
    25    26    27   ar
    26    27    28   ar
    27    28    29   ar
    28    29    32    1
    29    32    33    1
    30    32    34    1
    31    32    35    1
    32    29    30   ar
    33    30    31   ar
    34     7     8   ar
    35     8     9   ar
    36     9    10   ar
    37    10     1   ar
    38    16    11   ar
    39     9     4   ar
    40    21    17    1
    41    31    26   ar
    42    23    19    1
    43    22    25    1
@<TRIPOS>MOLECULE
*****
 38 43 0 0 0
SMALL
GASTEIGER

@<TRIPOS>ATOM
      1 C           4.7940   -2.9055   21.8442 C.ar    1  UNL1        0.0140
      2 C           3.9550   -1.8937   21.1215 C.ar    1  UNL1        0.0011
      3 C           3.2003   -0.8544   21.8962 C.ar    1  UNL1        0.0000
      4 C           3.2845   -0.8268   23.3936 C.ar    1  UNL1        0.0000
      5 C           2.5298    0.2125   24.1683 C.ar    1  UNL1        0.0000
      6 C           2.6142    0.2401   25.6656 C.ar    1  UNL1       -0.0000
      7 C           3.4532   -0.7718   26.3883 C.ar    1  UNL1       -0.0000
      8 C           4.2079   -1.8111   25.6136 C.ar    1  UNL1        0.0000
      9 C           4.1236   -1.8386   24.1163 C.ar    1  UNL1        0.0000
     10 C           4.8783   -2.8780   23.3416 C.ar    1  UNL1        0.0011
     11 C           2.3612    0.1575   21.1735 C.ar    1  UNL1       -0.0000
     12 C           0.9282   -0.1481   20.8528 C.ar    1  UNL1       -0.0003
     13 C           0.0891    0.8638   20.1302 C.ar    1  UNL1       -0.0042
     14 C           0.6832    2.1811   19.7282 C.ar    1  UNL1       -0.0209
     15 C           2.1164    2.4867   20.0488 C.ar    1  UNL1       -0.0042
     16 C           2.9554    1.4749   20.7715 C.ar    1  UNL1       -0.0003
     17 C          -0.1558    3.1929   19.0055 C.3     1  UNL1        0.0408
     18 C          -0.8836    4.3447   19.6329 C.3     1  UNL1        0.0151
     19 C          -1.5919    5.0943   18.5437 C.3     1  UNL1        0.0785
     20 C          -1.3020    4.4057   17.2430 C.3     1  UNL1        0.0290
     21 C          -0.4144    3.2306   17.5284 C.3     1  UNL1        0.0760
     22 N          -1.1228    3.9802   16.4392 N.am    1  UNL1       -0.3056
     23 C          -1.8505    5.1319   17.0667 C.2     1  UNL1        0.2220
     24 O          -2.6895    6.1437   16.3440 O.2     1  UNL1       -0.2751
     25 H          -1.1120    3.7556   15.4807 H       1  UNL1        0.1494
     26 C           3.5375   -0.7442   27.8857 C.ar    1  UNL1       -0.0000
     27 C           4.8587   -0.9465   28.5664 C.ar    1  UNL1       -0.0001
     28 C           4.9430   -0.9189   30.0638 C.ar    1  UNL1        0.0039
     29 C           3.7060   -0.6891   30.8805 C.ar    1  UNL1        0.0714
     30 C           2.3847   -0.4868   30.1998 C.ar    1  UNL1        0.0039
     31 C           2.3005   -0.5144   28.7024 C.ar    1  UNL1       -0.0001
     32 C           3.7902   -0.6615   32.3779 C.3     1  UNL1        0.4186
     33 F           3.8745   -0.6340   33.8752 F       1  UNL1       -0.1659
     34 F           4.9053   -1.6638   32.3336 F       1  UNL1       -0.1659
     35 F           2.6751    0.3407   32.4221 F       1  UNL1       -0.1659
     36 O           4.9187   -4.5922   19.8719 O.co2   1  UNL1       -0.5446
     37 C           5.5487   -3.9449   21.0695 C.2     1  UNL1        0.0729
     38 O           6.9335   -4.3369   21.4923 O.co2   1  UNL1       -0.5446
@<TRIPOS>UNITY_ATOM_ATTR
36 1
charge -1
@<TRIPOS>BOND
     1    36    37   ar
     2    37    38   ar
     3    37     1    1
     4     1     2   ar
     5     2     3   ar
     6     3    11    1
     7    11    12   ar
     8    12    13   ar
     9    13    14   ar
    10    17    14    1
    11    17    18    1
    12    19    18    1
    13    19    20    1
    14    20    21    1
    15    21    22    1
    16    22    23   am
    17    23    24    2
    18    14    15   ar
    19    15    16   ar
    20     3     4   ar
    21     4     5   ar
    22     5     6   ar
    23     6     7   ar
    24     7    26    1
    25    26    27   ar
    26    27    28   ar
    27    28    29   ar
    28    29    32    1
    29    32    33    1
    30    32    34    1
    31    32    35    1
    32    29    30   ar
    33    30    31   ar
    34     7     8   ar
    35     8     9   ar
    36     9    10   ar
    37    10     1   ar
    38    16    11   ar
    39     9     4   ar
    40    21    17    1
    41    31    26   ar
    42    23    19    1
    43    22    25    1
@<TRIPOS>MOLECULE
*****
 38 43 0 0 0
SMALL
GASTEIGER

@<TRIPOS>ATOM
      1 C           1.5705    1.2280   28.6772 C.ar    1  UNL1        0.0140
      2 C           2.3171    0.8907   27.4206 C.ar    1  UNL1        0.0011
      3 C           1.7258    1.2270   26.0837 C.ar    1  UNL1        0.0000
      4 C           0.3880    1.9007   26.0033 C.ar    1  UNL1        0.0000
      5 C          -0.2032    2.2370   24.6665 C.ar    1  UNL1        0.0000
      6 C          -1.5410    2.9107   24.5861 C.ar    1  UNL1       -0.0000
      7 C          -2.2876    3.2480   25.8426 C.ar    1  UNL1       -0.0000
      8 C          -1.6963    2.9116   27.1795 C.ar    1  UNL1        0.0000
      9 C          -0.3586    2.2380   27.2599 C.ar    1  UNL1        0.0000
     10 C           0.2327    1.9016   28.5968 C.ar    1  UNL1        0.0011
     11 C           2.4724    0.8897   24.8272 C.ar    1  UNL1       -0.0000
     12 C           2.9623    1.9863   23.9286 C.ar    1  UNL1       -0.0003
     13 C           3.7088    1.6490   22.6721 C.ar    1  UNL1       -0.0042
     14 C           3.9656    0.2151   22.3142 C.ar    1  UNL1       -0.0209
     15 C           3.4757   -0.8815   23.2128 C.ar    1  UNL1       -0.0042
     16 C           2.7291   -0.5442   24.4693 C.ar    1  UNL1       -0.0003
     17 C           4.7121   -0.1222   21.0576 C.3     1  UNL1        0.0408
     18 C           5.8318    0.6746   20.4565 C.3     1  UNL1        0.0151
     19 C           6.2818   -0.0262   19.2089 C.3     1  UNL1        0.0785
     20 C           5.4402   -1.2562   19.0391 C.3     1  UNL1        0.0290
     21 C           4.4701   -1.3155   20.1816 C.3     1  UNL1        0.0760
     22 N           4.9201   -2.0164   18.9341 N.am    1  UNL1       -0.3056
     23 C           6.0397   -1.2195   18.3330 C.2     1  UNL1        0.2220
     24 O           6.7863   -1.5568   17.0765 O.2     1  UNL1       -0.2751
     25 H           4.5462   -2.8526   18.5732 H       1  UNL1        0.1494
     26 C          -3.6254    3.9217   25.7622 C.ar    1  UNL1       -0.0000
     27 C          -4.0959    4.7919   26.8897 C.ar    1  UNL1       -0.0001
     28 C          -5.4337    5.4656   26.8093 C.ar    1  UNL1        0.0039
     29 C          -6.3010    5.2690   25.6014 C.ar    1  UNL1        0.0714
     30 C          -5.8305    4.3987   24.4738 C.ar    1  UNL1        0.0039
     31 C          -4.4927    3.7251   24.5543 C.ar    1  UNL1       -0.0001
     32 C          -7.6388    5.9426   25.5209 C.3     1  UNL1        0.4186
     33 F          -8.9766    6.6162   25.4405 F       1  UNL1       -0.1659
     34 F          -7.7976    5.4589   24.1100 F       1  UNL1       -0.1659
     35 F          -7.4801    6.4263   26.9319 F       1  UNL1       -0.1659
     36 O           2.0278   -0.4969   30.5655 O.co2   1  UNL1       -0.5446
     37 C           2.1618    0.8916   30.0141 C.2     1  UNL1        0.0729
     38 O           2.8870    1.9437   30.7996 O.co2   1  UNL1       -0.5446
@<TRIPOS>UNITY_ATOM_ATTR
36 1
charge -1
@<TRIPOS>BOND
     1    36    37   ar
     2    37    38   ar
     3    37     1    1
     4     1     2   ar
     5     2     3   ar
     6     3    11    1
     7    11    12   ar
     8    12    13   ar
     9    13    14   ar
    10    17    14    1
    11    17    18    1
    12    19    18    1
    13    19    20    1
    14    20    21    1
    15    21    22    1
    16    22    23   am
    17    23    24    2
    18    14    15   ar
    19    15    16   ar
    20     3     4   ar
    21     4     5   ar
    22     5     6   ar
    23     6     7   ar
    24     7    26    1
    25    26    27   ar
    26    27    28   ar
    27    28    29   ar
    28    29    32    1
    29    32    33    1
    30    32    34    1
    31    32    35    1
    32    29    30   ar
    33    30    31   ar
    34     7     8   ar
    35     8     9   ar
    36     9    10   ar
    37    10     1   ar
    38    16    11   ar
    39     9     4   ar
    40    21    17    1
    41    31    26   ar
    42    23    19    1
    43    22    25    1
@<TRIPOS>MOLECULE
*****
 38 43 0 0 0
SMALL
GASTEIGER

@<TRIPOS>ATOM
      1 C          -2.1076    3.1182   25.5055 C.ar    1  UNL1        0.0140
      2 C          -1.2505    2.4735   24.4568 C.ar    1  UNL1        0.0011
      3 C           0.0372    1.8093   24.8448 C.ar    1  UNL1        0.0000
      4 C           0.4679    1.7898   26.2815 C.ar    1  UNL1        0.0000
      5 C           1.7557    1.1257   26.6695 C.ar    1  UNL1        0.0000
      6 C           2.1864    1.1062   28.1062 C.ar    1  UNL1       -0.0000
      7 C           1.3293    1.7509   29.1549 C.ar    1  UNL1       -0.0000
      8 C           0.0416    2.4151   28.7669 C.ar    1  UNL1        0.0000
      9 C          -0.3891    2.4345   27.3302 C.ar    1  UNL1        0.0000
     10 C          -1.6769    3.0987   26.9422 C.ar    1  UNL1        0.0011
     11 C           0.8943    1.1646   23.7961 C.ar    1  UNL1       -0.0000
     12 C           2.0916    0.3560   24.1990 C.ar    1  UNL1       -0.0003
     13 C           2.9487   -0.2887   23.1503 C.ar    1  UNL1       -0.0042
     14 C           2.6084   -0.1249   21.6986 C.ar    1  UNL1       -0.0209
     15 C           1.4109    0.6837   21.2957 C.ar    1  UNL1       -0.0042
     16 C           0.5539    1.3285   22.3444 C.ar    1  UNL1       -0.0003
     17 C           3.4654   -0.7696   20.6499 C.3     1  UNL1        0.0408
     18 C           3.0760   -1.9315   19.7848 C.3     1  UNL1        0.0151
     19 C           4.2323   -2.2456   18.8824 C.3     1  UNL1        0.0785
     20 C           5.3364   -1.2779   19.1898 C.3     1  UNL1        0.0290
     21 C           4.8624   -0.3657   20.2822 C.3     1  UNL1        0.0760
     22 N           6.0187   -0.6798   19.3798 N.am    1  UNL1       -0.3056
     23 C           5.6292   -1.8416   18.5147 C.2     1  UNL1        0.2220
     24 O           6.4863   -2.4864   17.4660 O.2     1  UNL1       -0.2751
     25 H           6.8817   -0.2065   19.3589 H       1  UNL1        0.1494
     26 C           1.7601    1.7315   30.5916 C.ar    1  UNL1       -0.0000
     27 C           1.2255    2.7552   31.5488 C.ar    1  UNL1       -0.0001
     28 C           1.6563    2.7358   32.9855 C.ar    1  UNL1        0.0039
     29 C           2.6215    1.6925   33.4650 C.ar    1  UNL1        0.0714
     30 C           3.1561    0.6687   32.5078 C.ar    1  UNL1        0.0039
     31 C           2.7253    0.6882   31.0711 C.ar    1  UNL1       -0.0001
     32 C           3.0523    1.6730   34.9017 C.3     1  UNL1        0.4186
     33 F           3.4830    1.6535   36.3383 F       1  UNL1       -0.1659
     34 F           3.9911    0.5415   34.6048 F       1  UNL1       -0.1659
     35 F           2.1135    2.8045   35.1985 F       1  UNL1       -0.1659
     36 O          -4.6172    3.6049   25.9693 O.co2   1  UNL1       -0.5446
     37 C          -3.3954    3.7824   25.1175 C.2     1  UNL1        0.0729
     38 O          -3.4613    4.6239   23.8776 O.co2   1  UNL1       -0.5446
@<TRIPOS>UNITY_ATOM_ATTR
36 1
charge -1
@<TRIPOS>BOND
     1    36    37   ar
     2    37    38   ar
     3    37     1    1
     4     1     2   ar
     5     2     3   ar
     6     3    11    1
     7    11    12   ar
     8    12    13   ar
     9    13    14   ar
    10    17    14    1
    11    17    18    1
    12    19    18    1
    13    19    20    1
    14    20    21    1
    15    21    22    1
    16    22    23   am
    17    23    24    2
    18    14    15   ar
    19    15    16   ar
    20     3     4   ar
    21     4     5   ar
    22     5     6   ar
    23     6     7   ar
    24     7    26    1
    25    26    27   ar
    26    27    28   ar
    27    28    29   ar
    28    29    32    1
    29    32    33    1
    30    32    34    1
    31    32    35    1
    32    29    30   ar
    33    30    31   ar
    34     7     8   ar
    35     8     9   ar
    36     9    10   ar
    37    10     1   ar
    38    16    11   ar
    39     9     4   ar
    40    21    17    1
    41    31    26   ar
    42    23    19    1
    43    22    25    1
