@<TRIPOS>MOLECULE
*****
 22 23 0 0 0
SMALL
GASTEIGER

@<TRIPOS>ATOM
      1 C          -9.5549  -18.2137   21.3825 C.3     1  UNL1        0.1529
      2 C          -9.7632  -16.8087   21.8645 C.2     1  UNL1        0.1458
      3 N         -10.7883  -15.9340   21.2056 N.2     1  UNL1       -0.0768
      4 C         -11.6051  -16.4644   20.0647 C.2     1  UNL1        0.4093
      5 N         -12.6302  -15.5897   19.4058 N.pl3   1  UNL1       -0.2485
      6 N         -11.3967  -17.8695   19.5828 N.am    1  UNL1       -0.0026
      7 C         -10.3716  -18.7441   20.2417 C.2     1  UNL1        0.3250
      8 O         -10.1633  -20.1493   19.7597 O.2     1  UNL1       -0.2530
      9 H         -12.7669  -14.6675   19.7222 H       1  UNL1        0.2413
     10 H         -13.1662  -15.9379   18.6570 H       1  UNL1        0.2413
     11 C          -8.9465  -16.2782   23.0054 C.ar    1  UNL1        0.0306
     12 C          -9.4788  -16.3499   24.4059 C.ar    1  UNL1        0.0026
     13 C          -8.6620  -15.8194   25.5468 C.ar    1  UNL1        0.0001
     14 C          -7.3130  -15.2173   25.2871 C.ar    1  UNL1        0.0000
     15 C          -6.7807  -15.1456   23.8865 C.ar    1  UNL1        0.0001
     16 C          -7.5974  -15.6760   22.7457 C.ar    1  UNL1        0.0026
     17 C          -8.5298  -19.0884   22.0414 C.3     1  UNL1        0.0197
     18 C          -8.9489  -20.0765   23.0892 C.3     1  UNL1        0.0178
     19 N         -10.2475  -20.1065   25.3393 N.3     1  UNL1       -0.3211
     20 C         -10.2173  -19.8597   23.8600 C.3     1  UNL1        0.0652
     21 H         -11.1822  -19.9105   25.6977 H       1  UNL1        0.1189
     22 H          -9.5721  -19.4963   25.7996 H       1  UNL1        0.1189
@<TRIPOS>BOND
     1    19    20    1
     2    20    18    1
     3    18    17    1
     4    17     1    1
     5     1     2    1
     6     2    11    1
     7    11    12   ar
     8    12    13   ar
     9    13    14   ar
    10    14    15   ar
    11    15    16   ar
    12     2     3    2
    13     3     4    1
    14     4     5    1
    15     4     6    2
    16     6     7    1
    17     7     8    2
    18     7     1    1
    19    16    11   ar
    20    19    21    1
    21    19    22    1
    22     5     9    1
    23     5    10    1
@<TRIPOS>MOLECULE
*****
 22 23 0 0 0
SMALL
GASTEIGER

@<TRIPOS>ATOM
      1 C          -7.5833  -16.2865   23.9236 C.3     1  UNL1        0.1529
      2 C          -8.2693  -17.4216   23.2229 C.2     1  UNL1        0.1458
      3 N          -7.4664  -18.4048   22.4238 N.2     1  UNL1       -0.0768
      4 C          -5.9774  -18.2529   22.3253 C.2     1  UNL1        0.4093
      5 N          -5.1744  -19.2361   21.5262 N.pl3   1  UNL1       -0.2485
      6 N          -5.2913  -17.1179   23.0260 N.am    1  UNL1       -0.0026
      7 C          -6.0943  -16.1347   23.8251 C.2     1  UNL1        0.3250
      8 O          -5.4081  -14.9996   24.5258 O.2     1  UNL1       -0.2530
      9 H          -5.6247  -19.9811   21.0663 H       1  UNL1        0.2413
     10 H          -4.1971  -19.1364   21.4615 H       1  UNL1        0.2413
     11 C          -9.7584  -17.5735   23.3214 C.ar    1  UNL1        0.0306
     12 C         -10.3513  -18.5167   24.3258 C.ar    1  UNL1        0.0026
     13 C         -11.8404  -18.6686   24.4243 C.ar    1  UNL1        0.0001
     14 C         -12.7365  -17.8773   23.5183 C.ar    1  UNL1        0.0000
     15 C         -12.1436  -16.9340   22.5139 C.ar    1  UNL1        0.0001
     16 C         -10.6546  -16.7822   22.4155 C.ar    1  UNL1        0.0026
     17 C          -8.3862  -15.3034   24.7227 C.3     1  UNL1        0.0197
     18 C          -8.7313  -15.6023   26.1515 C.3     1  UNL1        0.0178
     19 N          -6.5621  -14.7402   27.2924 N.3     1  UNL1       -0.3211
     20 C          -7.6402  -15.7756   27.1662 C.3     1  UNL1        0.0652
     21 H          -5.9090  -15.0171   28.0254 H       1  UNL1        0.1189
     22 H          -6.9804  -13.8412   27.5315 H       1  UNL1        0.1189
@<TRIPOS>BOND
     1    19    20    1
     2    20    18    1
     3    18    17    1
     4    17     1    1
     5     1     2    1
     6     2    11    1
     7    11    12   ar
     8    12    13   ar
     9    13    14   ar
    10    14    15   ar
    11    15    16   ar
    12     2     3    2
    13     3     4    1
    14     4     5    1
    15     4     6    2
    16     6     7    1
    17     7     8    2
    18     7     1    1
    19    16    11   ar
    20    19    21    1
    21    19    22    1
    22     5     9    1
    23     5    10    1
@<TRIPOS>MOLECULE
*****
 22 23 0 0 0
SMALL
GASTEIGER

@<TRIPOS>ATOM
      1 C          -7.6156  -16.7612   23.4116 C.3     1  UNL1        0.1529
      2 C          -8.8035  -16.4977   24.2887 C.2     1  UNL1        0.1458
      3 N          -8.6216  -15.8184   25.6137 N.2     1  UNL1       -0.0768
      4 C          -7.2517  -15.4026   26.0615 C.2     1  UNL1        0.4093
      5 N          -7.0698  -14.7233   27.3864 N.pl3   1  UNL1       -0.2485
      6 N          -6.0638  -15.6662   25.1844 N.am    1  UNL1       -0.0026
      7 C          -6.2457  -16.3455   23.8595 C.2     1  UNL1        0.3250
      8 O          -5.0577  -16.6091   22.9824 O.2     1  UNL1       -0.2530
      9 H          -7.8495  -14.5503   27.9621 H       1  UNL1        0.2413
     10 H          -6.1707  -14.4504   27.6803 H       1  UNL1        0.2413
     11 C         -10.1735  -16.9134   23.8409 C.ar    1  UNL1        0.0306
     12 C         -10.7564  -18.2111   24.3166 C.ar    1  UNL1        0.0026
     13 C         -12.1263  -18.6268   23.8688 C.ar    1  UNL1        0.0001
     14 C         -12.9133  -17.7449   22.9453 C.ar    1  UNL1        0.0000
     15 C         -12.3303  -16.4472   22.4696 C.ar    1  UNL1        0.0001
     16 C         -10.9605  -16.0315   22.9175 C.ar    1  UNL1        0.0026
     17 C          -7.7975  -17.4406   22.0867 C.3     1  UNL1        0.0197
     18 C          -7.4072  -18.8794   21.9218 C.3     1  UNL1        0.0178
     19 N          -5.9943  -18.5854   19.7614 N.3     1  UNL1       -0.3211
     20 C          -6.9606  -19.3866   20.5826 C.3     1  UNL1        0.0652
     21 H          -5.8023  -19.0758   18.8878 H       1  UNL1        0.1189
     22 H          -5.1252  -18.4641   20.2813 H       1  UNL1        0.1189
@<TRIPOS>BOND
     1    19    20    1
     2    20    18    1
     3    18    17    1
     4    17     1    1
     5     1     2    1
     6     2    11    1
     7    11    12   ar
     8    12    13   ar
     9    13    14   ar
    10    14    15   ar
    11    15    16   ar
    12     2     3    2
    13     3     4    1
    14     4     5    1
    15     4     6    2
    16     6     7    1
    17     7     8    2
    18     7     1    1
    19    16    11   ar
    20    19    21    1
    21    19    22    1
    22     5     9    1
    23     5    10    1
@<TRIPOS>MOLECULE
*****
 22 23 0 0 0
SMALL
GASTEIGER

@<TRIPOS>ATOM
      1 C          -7.0783  -16.8824   23.1580 C.3     1  UNL1        0.1529
      2 C          -7.1644  -18.2371   22.5198 C.2     1  UNL1        0.1458
      3 N          -5.9122  -19.0094   22.2275 N.2     1  UNL1       -0.0768
      4 C          -4.5739  -18.4270   22.5734 C.2     1  UNL1        0.4093
      5 N          -3.3217  -19.1994   22.2812 N.pl3   1  UNL1       -0.2485
      6 N          -4.4878  -17.0723   23.2116 N.am    1  UNL1       -0.0026
      7 C          -5.7400  -16.3000   23.5039 C.2     1  UNL1        0.3250
      8 O          -5.6539  -14.9452   24.1421 O.2     1  UNL1       -0.2530
      9 H          -3.3782  -20.0885   21.8623 H       1  UNL1        0.2413
     10 H          -2.4433  -18.8171   22.5082 H       1  UNL1        0.2413
     11 C          -8.5028  -18.8195   22.1739 C.ar    1  UNL1        0.0306
     12 C          -9.0703  -18.6302   20.7984 C.ar    1  UNL1        0.0026
     13 C         -10.4087  -19.2126   20.4525 C.ar    1  UNL1        0.0001
     14 C         -11.1795  -19.9844   21.4821 C.ar    1  UNL1        0.0000
     15 C         -10.6119  -20.1738   22.8577 C.ar    1  UNL1        0.0001
     16 C          -9.2736  -19.5913   23.2035 C.ar    1  UNL1        0.0026
     17 C          -8.3306  -16.1101   23.4503 C.3     1  UNL1        0.0197
     18 C          -9.0753  -16.3455   24.7309 C.3     1  UNL1        0.0178
     19 N          -7.5972  -14.9753   26.3704 N.3     1  UNL1       -0.3211
     20 C          -8.3637  -16.2232   26.0457 C.3     1  UNL1        0.0652
     21 H          -7.1804  -15.0638   27.2971 H       1  UNL1        0.1189
     22 H          -8.2292  -14.1748   26.3568 H       1  UNL1        0.1189
@<TRIPOS>BOND
     1    19    20    1
     2    20    18    1
     3    18    17    1
     4    17     1    1
     5     1     2    1
     6     2    11    1
     7    11    12   ar
     8    12    13   ar
     9    13    14   ar
    10    14    15   ar
    11    15    16   ar
    12     2     3    2
    13     3     4    1
    14     4     5    1
    15     4     6    2
    16     6     7    1
    17     7     8    2
    18     7     1    1
    19    16    11   ar
    20    19    21    1
    21    19    22    1
    22     5     9    1
    23     5    10    1
@<TRIPOS>MOLECULE
*****
 22 23 0 0 0
SMALL
GASTEIGER

@<TRIPOS>ATOM
      1 C          -8.4660  -18.3844   21.8520 C.3     1  UNL1        0.1529
      2 C          -9.8327  -18.8481   21.4431 C.2     1  UNL1        0.1458
      3 N         -10.0155  -19.6044   20.1607 N.2     1  UNL1       -0.0768
      4 C          -8.8317  -19.8970   19.2872 C.2     1  UNL1        0.4093
      5 N          -9.0145  -20.6533   18.0048 N.pl3   1  UNL1       -0.2485
      6 N          -7.4651  -19.4333   19.6962 N.am    1  UNL1       -0.0026
      7 C          -7.2823  -18.6770   20.9786 C.2     1  UNL1        0.3250
      8 O          -5.9155  -18.2133   21.3875 O.2     1  UNL1       -0.2530
      9 H          -9.9115  -20.9577   17.7364 H       1  UNL1        0.2413
     10 H          -8.2375  -20.8454   17.4315 H       1  UNL1        0.2413
     11 C         -11.0165  -18.5555   22.3166 C.ar    1  UNL1        0.0306
     12 C         -11.1085  -19.1650   23.6840 C.ar    1  UNL1        0.0026
     13 C         -12.2924  -18.8724   24.5575 C.ar    1  UNL1        0.0001
     14 C         -13.3843  -17.9703   24.0634 C.ar    1  UNL1        0.0000
     15 C         -13.2922  -17.3608   22.6959 C.ar    1  UNL1        0.0001
     16 C         -12.1084  -17.6534   21.8225 C.ar    1  UNL1        0.0026
     17 C          -8.2832  -17.6281   23.1344 C.3     1  UNL1        0.0197
     18 C          -8.4136  -16.1339   23.1490 C.3     1  UNL1        0.0178
     19 N          -7.0879  -14.4105   24.5713 N.3     1  UNL1       -0.3211
     20 C          -7.1992  -15.2770   23.3519 C.3     1  UNL1        0.0652
     21 H          -6.2049  -13.9005   24.5465 H       1  UNL1        0.1189
     22 H          -7.1201  -14.9942   25.4072 H       1  UNL1        0.1189
@<TRIPOS>BOND
     1    19    20    1
     2    20    18    1
     3    18    17    1
     4    17     1    1
     5     1     2    1
     6     2    11    1
     7    11    12   ar
     8    12    13   ar
     9    13    14   ar
    10    14    15   ar
    11    15    16   ar
    12     2     3    2
    13     3     4    1
    14     4     5    1
    15     4     6    2
    16     6     7    1
    17     7     8    2
    18     7     1    1
    19    16    11   ar
    20    19    21    1
    21    19    22    1
    22     5     9    1
    23     5    10    1
@<TRIPOS>MOLECULE
*****
 22 23 0 0 0
SMALL
GASTEIGER

@<TRIPOS>ATOM
      1 C          -9.4988  -18.2306   21.2085 C.3     1  UNL1        0.1529
      2 C          -9.7901  -16.8795   21.7912 C.2     1  UNL1        0.1458
      3 N         -10.8326  -16.0015   21.1648 N.2     1  UNL1       -0.0768
      4 C         -11.5837  -16.4746   19.9557 C.2     1  UNL1        0.4093
      5 N         -12.6261  -15.5966   19.3293 N.pl3   1  UNL1       -0.2485
      6 N         -11.2923  -17.8257   19.3730 N.am    1  UNL1       -0.0026
      7 C         -10.2499  -18.7037   19.9994 C.2     1  UNL1        0.3250
      8 O          -9.9586  -20.0549   19.4166 O.2     1  UNL1       -0.2530
      9 H         -12.8173  -14.7098   19.7118 H       1  UNL1        0.2413
     10 H         -13.1191  -15.9071   18.5358 H       1  UNL1        0.2413
     11 C          -9.0390  -16.4064   23.0004 C.ar    1  UNL1        0.0306
     12 C          -7.8299  -15.5336   22.8382 C.ar    1  UNL1        0.0026
     13 C          -7.0788  -15.0605   24.0474 C.ar    1  UNL1        0.0001
     14 C          -7.5368  -15.4601   25.4187 C.ar    1  UNL1        0.0000
     15 C          -8.7459  -16.3330   25.5808 C.ar    1  UNL1        0.0001
     16 C          -9.4970  -16.8061   24.3717 C.ar    1  UNL1        0.0026
     17 C          -8.4563  -19.1087   21.8349 C.3     1  UNL1        0.0197
     18 C          -7.0526  -19.1004   21.3063 C.3     1  UNL1        0.0178
     19 N          -4.6113  -19.4767   22.1116 N.3     1  UNL1       -0.3211
     20 C          -5.9126  -18.7372   22.2110 C.3     1  UNL1        0.0652
     21 H          -3.9540  -19.1017   22.7956 H       1  UNL1        0.1189
     22 H          -4.2270  -19.3640   21.1735 H       1  UNL1        0.1189
@<TRIPOS>BOND
     1    19    20    1
     2    20    18    1
     3    18    17    1
     4    17     1    1
     5     1     2    1
     6     2    11    1
     7    11    12   ar
     8    12    13   ar
     9    13    14   ar
    10    14    15   ar
    11    15    16   ar
    12     2     3    2
    13     3     4    1
    14     4     5    1
    15     4     6    2
    16     6     7    1
    17     7     8    2
    18     7     1    1
    19    16    11   ar
    20    19    21    1
    21    19    22    1
    22     5     9    1
    23     5    10    1
@<TRIPOS>MOLECULE
*****
 22 23 0 0 0
SMALL
GASTEIGER

@<TRIPOS>ATOM
      1 C          -6.9054  -17.2523   22.8280 C.3     1  UNL1        0.1529
      2 C          -7.0681  -18.6161   22.2251 C.2     1  UNL1        0.1458
      3 N          -5.8617  -19.4656   21.9550 N.2     1  UNL1       -0.0768
      4 C          -4.4926  -18.9513   22.2879 C.2     1  UNL1        0.4093
      5 N          -3.2862  -19.8008   22.0178 N.pl3   1  UNL1       -0.2485
      6 N          -4.3298  -17.5875   22.8908 N.am    1  UNL1       -0.0026
      7 C          -5.5362  -16.7381   23.1609 C.2     1  UNL1        0.3250
      8 O          -5.3734  -15.3742   23.7639 O.2     1  UNL1       -0.2530
      9 H          -3.3930  -20.6959   21.6220 H       1  UNL1        0.2413
     10 H          -2.3875  -19.4632   22.2363 H       1  UNL1        0.2413
     11 C          -8.4374  -19.1304   21.8921 C.ar    1  UNL1        0.0306
     12 C          -8.9053  -19.1497   20.4672 C.ar    1  UNL1        0.0026
     13 C         -10.2745  -19.6641   20.1342 C.ar    1  UNL1        0.0001
     14 C         -11.1757  -20.1591   21.2264 C.ar    1  UNL1        0.0000
     15 C         -10.7077  -20.1398   22.6514 C.ar    1  UNL1        0.0001
     16 C          -9.3386  -19.6255   22.9843 C.ar    1  UNL1        0.0026
     17 C          -8.1118  -16.4028   23.0981 C.3     1  UNL1        0.0197
     18 C          -8.7833  -15.6742   21.9721 C.3     1  UNL1        0.0178
     19 N         -10.6687  -15.8979   20.1985 N.3     1  UNL1       -0.3211
     20 C         -10.2095  -15.9823   21.6240 C.3     1  UNL1        0.0652
     21 H         -11.6586  -16.1381   20.1454 H       1  UNL1        0.1189
     22 H         -10.1296  -16.5496   19.6284 H       1  UNL1        0.1189
@<TRIPOS>BOND
     1    19    20    1
     2    20    18    1
     3    18    17    1
     4    17     1    1
     5     1     2    1
     6     2    11    1
     7    11    12   ar
     8    12    13   ar
     9    13    14   ar
    10    14    15   ar
    11    15    16   ar
    12     2     3    2
    13     3     4    1
    14     4     5    1
    15     4     6    2
    16     6     7    1
    17     7     8    2
    18     7     1    1
    19    16    11   ar
    20    19    21    1
    21    19    22    1
    22     5     9    1
    23     5    10    1
@<TRIPOS>MOLECULE
*****
 22 23 0 0 0
SMALL
GASTEIGER

@<TRIPOS>ATOM
      1 C          -8.7238  -18.1896   22.7139 C.3     1  UNL1        0.1529
      2 C          -7.2639  -17.8708   22.5832 C.2     1  UNL1        0.1458
      3 N          -6.7138  -16.6133   23.1881 N.2     1  UNL1       -0.0768
      4 C          -7.6235  -15.6745   23.9237 C.2     1  UNL1        0.4093
      5 N          -7.0733  -14.4170   24.5287 N.pl3   1  UNL1       -0.2485
      6 N          -9.0833  -15.9933   24.0544 N.am    1  UNL1       -0.0026
      7 C          -9.6335  -17.2508   23.4495 C.2     1  UNL1        0.3250
      8 O         -11.0935  -17.5696   23.5802 O.2     1  UNL1       -0.2530
      9 H          -6.1151  -14.2078   24.4429 H       1  UNL1        0.2413
     10 H          -7.6704  -13.8009   25.0115 H       1  UNL1        0.2413
     11 C          -6.3541  -18.8096   21.8476 C.ar    1  UNL1        0.0306
     12 C          -4.8855  -18.8234   22.1522 C.ar    1  UNL1        0.0026
     13 C          -3.9757  -19.7621   21.4165 C.ar    1  UNL1        0.0001
     14 C          -4.5347  -20.6871   20.3763 C.ar    1  UNL1        0.0000
     15 C          -6.0034  -20.6733   20.0717 C.ar    1  UNL1        0.0001
     16 C          -6.9131  -19.7345   20.8074 C.ar    1  UNL1        0.0026
     17 C          -9.2740  -19.4471   22.1089 C.3     1  UNL1        0.0197
     18 C         -10.0124  -20.4313   22.9668 C.3     1  UNL1        0.0178
     19 N         -10.4018  -20.0135   25.5013 N.3     1  UNL1       -0.3211
     20 C          -9.6030  -20.6366   24.3951 C.3     1  UNL1        0.0652
     21 H          -9.9840  -20.2549   26.4000 H       1  UNL1        0.1189
     22 H         -11.3597  -20.3622   25.4670 H       1  UNL1        0.1189
@<TRIPOS>BOND
     1    19    20    1
     2    20    18    1
     3    18    17    1
     4    17     1    1
     5     1     2    1
     6     2    11    1
     7    11    12   ar
     8    12    13   ar
     9    13    14   ar
    10    14    15   ar
    11    15    16   ar
    12     2     3    2
    13     3     4    1
    14     4     5    1
    15     4     6    2
    16     6     7    1
    17     7     8    2
    18     7     1    1
    19    16    11   ar
    20    19    21    1
    21    19    22    1
    22     5     9    1
    23     5    10    1
@<TRIPOS>MOLECULE
*****
 22 23 0 0 0
SMALL
GASTEIGER

@<TRIPOS>ATOM
      1 C          -7.2794  -17.9420   22.3794 C.3     1  UNL1        0.1529
      2 C          -6.8024  -18.7474   21.2074 C.2     1  UNL1        0.1458
      3 N          -7.7884  -19.2672   20.2035 N.2     1  UNL1       -0.0768
      4 C          -9.2512  -18.9815   20.3717 C.2     1  UNL1        0.4093
      5 N         -10.2372  -19.5013   19.3678 N.pl3   1  UNL1       -0.2485
      6 N          -9.7282  -18.1761   21.5437 N.am    1  UNL1       -0.0026
      7 C          -8.7423  -17.6563   22.5476 C.2     1  UNL1        0.3250
      8 O          -9.2193  -16.8508   23.7197 O.2     1  UNL1       -0.2530
      9 H          -9.9241  -20.0299   18.5985 H       1  UNL1        0.2413
     10 H         -11.1973  -19.3138   19.4782 H       1  UNL1        0.2413
     11 C          -5.3395  -19.0331   21.0392 C.ar    1  UNL1        0.0306
     12 C          -4.7014  -18.9075   19.6875 C.ar    1  UNL1        0.0026
     13 C          -3.2384  -19.1932   19.5193 C.ar    1  UNL1        0.0001
     14 C          -2.4137  -19.6045   20.7028 C.ar    1  UNL1        0.0000
     15 C          -3.0518  -19.7300   22.0545 C.ar    1  UNL1        0.0001
     16 C          -4.5147  -19.4444   22.2226 C.ar    1  UNL1        0.0026
     17 C          -6.2935  -17.4222   23.3833 C.3     1  UNL1        0.0197
     18 C          -5.9350  -15.9658   23.3978 C.3     1  UNL1        0.0178
     19 N          -7.6374  -14.1974   24.2492 N.3     1  UNL1       -0.3211
     20 C          -6.4477  -15.0780   24.4928 C.3     1  UNL1        0.0652
     21 H          -7.8463  -13.6666   25.0948 H       1  UNL1        0.1189
     22 H          -8.4420  -14.7735   24.0020 H       1  UNL1        0.1189
@<TRIPOS>BOND
     1    19    20    1
     2    20    18    1
     3    18    17    1
     4    17     1    1
     5     1     2    1
     6     2    11    1
     7    11    12   ar
     8    12    13   ar
     9    13    14   ar
    10    14    15   ar
    11    15    16   ar
    12     2     3    2
    13     3     4    1
    14     4     5    1
    15     4     6    2
    16     6     7    1
    17     7     8    2
    18     7     1    1
    19    16    11   ar
    20    19    21    1
    21    19    22    1
    22     5     9    1
    23     5    10    1
