@<TRIPOS>MOLECULE
*****
 23 26 0 0 0
SMALL
GASTEIGER

@<TRIPOS>ATOM
      1 N          -9.3269  -17.5576   22.0110 N.pl3   1  UNL1       -0.3066
      2 C         -10.3764  -16.7722   21.2819 C.3     1  UNL1        0.1078
      3 C         -11.0411  -17.3536   20.0695 C.3     1  UNL1        0.0903
      4 N         -10.6563  -18.7205   19.5861 N.3     1  UNL1       -0.2947
      5 C          -9.6067  -19.5059   20.3152 C.3     1  UNL1        0.0885
      6 C          -8.9420  -18.9244   21.5277 C.3     1  UNL1        0.0885
      7 H         -10.3290  -18.6120   18.6261 H       1  UNL1        0.1233
      8 C          -9.3555  -17.0207   24.5528 C.2     1  UNL1        0.0155
      9 C          -8.6908  -16.4392   25.7654 C.2     1  UNL1        0.0184
     10 C          -7.3327  -15.8131   25.6484 C.2     1  UNL1        0.0900
     11 N          -6.4363  -15.1639   26.6608 N.2     1  UNL1       -0.1519
     12 N          -5.1889  -14.7181   25.9570 N.2     1  UNL1       -0.1507
     13 C          -5.3144  -15.0918   24.5097 C.2     1  UNL1        0.1058
     14 C          -6.6394  -15.7686   24.3190 C.3     1  UNL1        0.1083
     15 C          -7.3041  -16.3501   23.1066 C.2     1  UNL1        0.0001
     16 C          -8.6622  -16.9761   23.2235 C.2     1  UNL1        0.0443
     17 C          -7.8925  -19.7098   22.2568 C.3     1  UNL1        0.0211
     18 C          -6.4955  -19.7787   21.7148 C.3     1  UNL1        0.0017
     19 C          -5.4041  -18.9689   22.3495 C.3     1  UNL1        0.0001
     20 C          -4.0071  -19.0377   21.8076 C.3     1  UNL1        0.0000
     21 C          -3.7015  -19.9164   20.6310 C.3     1  UNL1        0.0000
     22 C          -4.7930  -20.7262   19.9962 C.3     1  UNL1        0.0000
     23 C          -6.1900  -20.6574   20.5381 C.3     1  UNL1        0.0001
@<TRIPOS>BOND
     1     8     9    2
     2     9    10    1
     3    10    11    2
     4    11    12    1
     5    12    13    2
     6    13    14    1
     7    14    15    1
     8    15    16    2
     9    16     1    1
    10     1     2    1
    11     2     3    1
    12     3     4    1
    13     4     5    1
    14     5     6    1
    15     6    17    1
    16    17    18    1
    17    18    19    1
    18    19    20    1
    19    20    21    1
    20    21    22    1
    21    22    23    1
    22    16     8    1
    23     6     1    1
    24    23    18    1
    25    14    10    1
    26     4     7    1
@<TRIPOS>MOLECULE
*****
 23 26 0 0 0
SMALL
GASTEIGER

@<TRIPOS>ATOM
      1 N          -9.3195  -17.2443   22.0473 N.pl3   1  UNL1       -0.3066
      2 C         -10.3479  -16.4137   21.3384 C.3     1  UNL1        0.1078
      3 C         -11.1406  -17.0039   20.2100 C.3     1  UNL1        0.0903
      4 N         -10.9050  -18.4246   19.7905 N.3     1  UNL1       -0.2947
      5 C          -9.8766  -19.2552   20.4993 C.3     1  UNL1        0.0885
      6 C          -9.0838  -18.6650   21.6278 C.3     1  UNL1        0.0885
      7 H         -10.6368  -18.4004   18.8066 H       1  UNL1        0.1233
      8 C          -7.3065  -15.8317   22.8853 C.2     1  UNL1        0.0155
      9 C          -6.5138  -15.2414   24.0138 C.2     1  UNL1        0.0184
     10 C          -6.9415  -15.4738   25.4326 C.2     1  UNL1        0.0900
     11 N          -6.3639  -15.0232   26.7416 N.2     1  UNL1       -0.1519
     12 N          -7.2273  -15.5672   27.8409 N.2     1  UNL1       -0.1507
     13 C          -8.3384  -16.3541   27.2115 C.2     1  UNL1        0.1058
     14 C          -8.1618  -16.2964   25.7230 C.3     1  UNL1        0.1083
     15 C          -8.9544  -16.8865   24.5946 C.2     1  UNL1        0.0001
     16 C          -8.5268  -16.6541   23.1757 C.2     1  UNL1        0.0443
     17 C          -8.0554  -19.4956   22.3366 C.3     1  UNL1        0.0211
     18 C          -6.6705  -19.6163   21.7732 C.3     1  UNL1        0.0017
     19 C          -5.5521  -18.8004   22.3509 C.3     1  UNL1        0.0001
     20 C          -4.1672  -18.9210   21.7875 C.3     1  UNL1        0.0000
     21 C          -3.9006  -19.8575   20.6465 C.3     1  UNL1        0.0000
     22 C          -5.0190  -20.6733   20.0688 C.3     1  UNL1        0.0000
     23 C          -6.4038  -20.5527   20.6322 C.3     1  UNL1        0.0001
@<TRIPOS>BOND
     1     8     9    2
     2     9    10    1
     3    10    11    2
     4    11    12    1
     5    12    13    2
     6    13    14    1
     7    14    15    1
     8    15    16    2
     9    16     1    1
    10     1     2    1
    11     2     3    1
    12     3     4    1
    13     4     5    1
    14     5     6    1
    15     6    17    1
    16    17    18    1
    17    18    19    1
    18    19    20    1
    19    20    21    1
    20    21    22    1
    21    22    23    1
    22    16     8    1
    23     6     1    1
    24    23    18    1
    25    14    10    1
    26     4     7    1
@<TRIPOS>MOLECULE
*****
 23 26 0 0 0
SMALL
GASTEIGER

@<TRIPOS>ATOM
      1 N          -9.1229  -18.1803   21.9819 N.pl3   1  UNL1       -0.3066
      2 C         -10.2906  -19.0956   21.7610 C.3     1  UNL1        0.1078
      3 C         -11.6637  -18.6783   22.1974 C.3     1  UNL1        0.0903
      4 N         -11.8691  -17.3457   22.8547 N.3     1  UNL1       -0.2947
      5 C         -10.7015  -16.4304   23.0756 C.3     1  UNL1        0.0885
      6 C          -9.3283  -16.8478   22.6391 C.3     1  UNL1        0.0885
      7 H         -12.2768  -17.5294   23.7715 H       1  UNL1        0.1233
      8 C          -7.5193  -19.0634   20.1384 C.2     1  UNL1        0.0155
      9 C          -6.1462  -19.4808   19.7019 C.2     1  UNL1        0.0184
     10 C          -5.0036  -19.4322   20.6726 C.2     1  UNL1        0.0900
     11 N          -3.5511  -19.7787   20.5311 N.2     1  UNL1       -0.1519
     12 N          -2.8839  -19.5270   21.8507 N.2     1  UNL1       -0.1507
     13 C          -3.9241  -19.0249   22.8078 C.2     1  UNL1        0.1058
     14 C          -5.2342  -18.9664   22.0796 C.3     1  UNL1        0.1083
     15 C          -6.6072  -18.5491   22.5160 C.2     1  UNL1        0.0001
     16 C          -7.7498  -18.5976   21.5454 C.2     1  UNL1        0.0443
     17 C          -8.1607  -15.9325   22.8600 C.3     1  UNL1        0.0211
     18 C          -7.6028  -15.7480   24.2401 C.3     1  UNL1        0.0017
     19 C          -8.4925  -15.9114   25.4367 C.3     1  UNL1        0.0001
     20 C          -7.9346  -15.7269   26.8169 C.3     1  UNL1        0.0000
     21 C          -6.4872  -15.3790   27.0005 C.3     1  UNL1        0.0000
     22 C          -5.5975  -15.2156   25.8038 C.3     1  UNL1        0.0000
     23 C          -6.1553  -15.4001   24.4237 C.3     1  UNL1        0.0001
@<TRIPOS>BOND
     1     8     9    2
     2     9    10    1
     3    10    11    2
     4    11    12    1
     5    12    13    2
     6    13    14    1
     7    14    15    1
     8    15    16    2
     9    16     1    1
    10     1     2    1
    11     2     3    1
    12     3     4    1
    13     4     5    1
    14     5     6    1
    15     6    17    1
    16    17    18    1
    17    18    19    1
    18    19    20    1
    19    20    21    1
    20    21    22    1
    21    22    23    1
    22    16     8    1
    23     6     1    1
    24    23    18    1
    25    14    10    1
    26     4     7    1
@<TRIPOS>MOLECULE
*****
 23 26 0 0 0
SMALL
GASTEIGER

@<TRIPOS>ATOM
      1 N          -7.7527  -18.7167   22.2554 N.pl3   1  UNL1       -0.3066
      2 C          -7.2246  -20.0425   21.7936 C.3     1  UNL1        0.1078
      3 C          -5.7461  -20.2944   21.7716 C.3     1  UNL1        0.0903
      4 N          -4.7957  -19.2205   22.2115 N.3     1  UNL1       -0.2947
      5 C          -5.3238  -17.8947   22.6733 C.3     1  UNL1        0.0885
      6 C          -6.8024  -17.6428   22.6952 C.3     1  UNL1        0.0885
      7 H          -4.1779  -19.0325   21.4219 H       1  UNL1        0.1233
      8 C          -9.9285  -17.9829   21.0397 C.2     1  UNL1        0.0155
      9 C         -11.4071  -17.7311   21.0617 C.2     1  UNL1        0.0184
     10 C         -12.1884  -17.9612   22.3212 C.2     1  UNL1        0.0900
     11 N         -13.6448  -17.8004   22.6424 N.2     1  UNL1       -0.1519
     12 N         -13.8476  -18.1830   24.0785 N.2     1  UNL1       -0.1507
     13 C         -12.5167  -18.5803   24.6449 C.2     1  UNL1        0.1058
     14 C         -11.4912  -18.4432   23.5588 C.3     1  UNL1        0.1083
     15 C         -10.0127  -18.6950   23.5368 C.2     1  UNL1        0.0001
     16 C          -9.2314  -18.4648   22.2773 C.2     1  UNL1        0.0443
     17 C          -7.3306  -16.3170   23.1570 C.3     1  UNL1        0.0211
     18 C          -7.2217  -15.9282   24.6017 C.3     1  UNL1        0.0017
     19 C          -5.8965  -15.5134   25.1689 C.3     1  UNL1        0.0001
     20 C          -5.7876  -15.1246   26.6135 C.3     1  UNL1        0.0000
     21 C          -7.0039  -15.1506   27.4910 C.3     1  UNL1        0.0000
     22 C          -8.3291  -15.5653   26.9237 C.3     1  UNL1        0.0000
     23 C          -8.4380  -15.9541   25.4791 C.3     1  UNL1        0.0001
@<TRIPOS>BOND
     1     8     9    2
     2     9    10    1
     3    10    11    2
     4    11    12    1
     5    12    13    2
     6    13    14    1
     7    14    15    1
     8    15    16    2
     9    16     1    1
    10     1     2    1
    11     2     3    1
    12     3     4    1
    13     4     5    1
    14     5     6    1
    15     6    17    1
    16    17    18    1
    17    18    19    1
    18    19    20    1
    19    20    21    1
    20    21    22    1
    21    22    23    1
    22    16     8    1
    23     6     1    1
    24    23    18    1
    25    14    10    1
    26     4     7    1
@<TRIPOS>MOLECULE
*****
 23 26 0 0 0
SMALL
GASTEIGER

@<TRIPOS>ATOM
      1 N          -5.3372  -16.6301   23.8625 N.pl3   1  UNL1       -0.3066
      2 C          -4.8621  -15.9097   25.0894 C.3     1  UNL1        0.1078
      3 C          -5.8423  -15.1734   25.9536 C.3     1  UNL1        0.0903
      4 N          -7.2977  -15.1575   25.5909 N.3     1  UNL1       -0.2947
      5 C          -7.7729  -15.8779   24.3641 C.3     1  UNL1        0.0885
      6 C          -6.7925  -16.6142   23.4999 C.3     1  UNL1        0.0885
      7 H          -7.5626  -14.1788   25.4789 H       1  UNL1        0.1233
      8 C          -4.5163  -18.8406   22.7716 C.2     1  UNL1        0.0155
      9 C          -3.5359  -19.5769   21.9074 C.2     1  UNL1        0.0184
     10 C          -2.3962  -18.8390   21.2700 C.2     1  UNL1        0.0900
     11 N          -1.2813  -19.2937   20.3754 N.2     1  UNL1       -0.1519
     12 N          -0.4328  -18.1005   20.0492 N.2     1  UNL1       -0.1507
     13 C          -1.0233  -16.9084   20.7422 C.2     1  UNL1        0.1058
     14 C          -2.2367  -17.3649   21.4967 C.3     1  UNL1        0.1083
     15 C          -3.2171  -16.6286   22.3609 C.2     1  UNL1        0.0001
     16 C          -4.3569  -17.3665   22.9983 C.2     1  UNL1        0.0443
     17 C          -7.2677  -17.3347   22.2730 C.3     1  UNL1        0.0211
     18 C          -8.5414  -18.1259   22.3138 C.3     1  UNL1        0.0017
     19 C          -9.7467  -17.6463   21.5606 C.3     1  UNL1        0.0001
     20 C         -11.0204  -18.4374   21.6014 C.3     1  UNL1        0.0000
     21 C         -11.0889  -19.7082   22.3954 C.3     1  UNL1        0.0000
     22 C          -9.8836  -20.1877   23.1486 C.3     1  UNL1        0.0000
     23 C          -8.6100  -19.3966   23.1078 C.3     1  UNL1        0.0001
@<TRIPOS>BOND
     1     8     9    2
     2     9    10    1
     3    10    11    2
     4    11    12    1
     5    12    13    2
     6    13    14    1
     7    14    15    1
     8    15    16    2
     9    16     1    1
    10     1     2    1
    11     2     3    1
    12     3     4    1
    13     4     5    1
    14     5     6    1
    15     6    17    1
    16    17    18    1
    17    18    19    1
    18    19    20    1
    19    20    21    1
    20    21    22    1
    21    22    23    1
    22    16     8    1
    23     6     1    1
    24    23    18    1
    25    14    10    1
    26     4     7    1
@<TRIPOS>MOLECULE
*****
 23 26 0 0 0
SMALL
GASTEIGER

@<TRIPOS>ATOM
      1 N          -7.5699  -18.4222   21.6146 N.pl3   1  UNL1       -0.3066
      2 C          -8.4417  -19.5266   21.0948 C.3     1  UNL1        0.1078
      3 C          -9.9346  -19.3863   21.1365 C.3     1  UNL1        0.0903
      4 N         -10.5555  -18.1416   21.6980 N.3     1  UNL1       -0.2947
      5 C          -9.6836  -17.0372   22.2177 C.3     1  UNL1        0.0885
      6 C          -8.1907  -17.1776   22.1760 C.3     1  UNL1        0.0885
      7 H         -11.1531  -18.4337   22.4713 H       1  UNL1        0.1233
      8 C          -5.2946  -18.6363   22.8504 C.2     1  UNL1        0.0155
      9 C          -3.8017  -18.7767   22.8086 C.2     1  UNL1        0.0184
     10 C          -3.0913  -18.8433   21.4892 C.2     1  UNL1        0.0900
     11 N          -1.6397  -18.9797   21.1366 N.2     1  UNL1       -0.1519
     12 N          -1.5251  -18.9903   19.6410 N.2     1  UNL1       -0.1507
     13 C          -2.9058  -18.8603   19.0693 C.2     1  UNL1        0.1058
     14 C          -3.8738  -18.7695   20.2116 C.3     1  UNL1        0.1083
     15 C          -5.3666  -18.6292   20.2534 C.2     1  UNL1        0.0001
     16 C          -6.0770  -18.5626   21.5728 C.2     1  UNL1        0.0443
     17 C          -7.3189  -16.0732   22.6957 C.3     1  UNL1        0.0211
     18 C          -7.1581  -15.8771   24.1742 C.3     1  UNL1        0.0017
     19 C          -5.8085  -15.5587   24.7461 C.3     1  UNL1        0.0001
     20 C          -5.6477  -15.3625   26.2245 C.3     1  UNL1        0.0000
     21 C          -6.8366  -15.4848   27.1310 C.3     1  UNL1        0.0000
     22 C          -8.1862  -15.8032   26.5590 C.3     1  UNL1        0.0000
     23 C          -8.3470  -15.9993   25.0807 C.3     1  UNL1        0.0001
@<TRIPOS>BOND
     1     8     9    2
     2     9    10    1
     3    10    11    2
     4    11    12    1
     5    12    13    2
     6    13    14    1
     7    14    15    1
     8    15    16    2
     9    16     1    1
    10     1     2    1
    11     2     3    1
    12     3     4    1
    13     4     5    1
    14     5     6    1
    15     6    17    1
    16    17    18    1
    17    18    19    1
    18    19    20    1
    19    20    21    1
    20    21    22    1
    21    22    23    1
    22    16     8    1
    23     6     1    1
    24    23    18    1
    25    14    10    1
    26     4     7    1
@<TRIPOS>MOLECULE
*****
 23 26 0 0 0
SMALL
GASTEIGER

@<TRIPOS>ATOM
      1 N          -9.6505  -18.2387   21.7758 N.pl3   1  UNL1       -0.3066
      2 C         -10.1636  -17.9080   20.4057 C.3     1  UNL1        0.1078
      3 C         -11.6002  -17.5207   20.2161 C.3     1  UNL1        0.0903
      4 N         -12.5239  -17.4642   21.3967 N.3     1  UNL1       -0.2947
      5 C         -12.0108  -17.7949   22.7668 C.3     1  UNL1        0.0885
      6 C         -10.5740  -18.1821   22.9564 C.3     1  UNL1        0.0885
      7 H         -13.2879  -18.1119   21.2041 H       1  UNL1        0.1233
      8 C          -7.7598  -20.0142   21.6240 C.2     1  UNL1        0.0155
      9 C          -6.3230  -20.4014   21.8135 C.2     1  UNL1        0.0184
     10 C          -5.3403  -19.4003   22.3444 C.2     1  UNL1        0.0900
     11 N          -3.8715  -19.4922   22.6345 N.2     1  UNL1       -0.1519
     12 N          -3.4177  -18.1607   23.1552 N.2     1  UNL1       -0.1507
     13 C          -4.6060  -17.2459   23.1869 C.2     1  UNL1        0.1058
     14 C          -5.7942  -18.0120   22.6858 C.3     1  UNL1        0.1083
     15 C          -7.2310  -17.6248   22.4963 C.2     1  UNL1        0.0001
     16 C          -8.2137  -18.6259   21.9654 C.2     1  UNL1        0.0443
     17 C         -10.0609  -18.5128   24.3265 C.3     1  UNL1        0.0211
     18 C          -9.4399  -17.4419   25.1736 C.3     1  UNL1        0.0017
     19 C          -9.1713  -16.0862   24.5907 C.3     1  UNL1        0.0001
     20 C          -8.5502  -15.0152   25.4377 C.3     1  UNL1        0.0000
     21 C          -8.1978  -15.3000   26.8676 C.3     1  UNL1        0.0000
     22 C          -8.4664  -16.6558   27.4505 C.3     1  UNL1        0.0000
     23 C          -9.0874  -17.7267   26.6035 C.3     1  UNL1        0.0001
@<TRIPOS>BOND
     1     8     9    2
     2     9    10    1
     3    10    11    2
     4    11    12    1
     5    12    13    2
     6    13    14    1
     7    14    15    1
     8    15    16    2
     9    16     1    1
    10     1     2    1
    11     2     3    1
    12     3     4    1
    13     4     5    1
    14     5     6    1
    15     6    17    1
    16    17    18    1
    17    18    19    1
    18    19    20    1
    19    20    21    1
    20    21    22    1
    21    22    23    1
    22    16     8    1
    23     6     1    1
    24    23    18    1
    25    14    10    1
    26     4     7    1
@<TRIPOS>MOLECULE
*****
 23 26 0 0 0
SMALL
GASTEIGER

@<TRIPOS>ATOM
      1 N          -6.1222  -16.6629   24.0933 N.pl3   1  UNL1       -0.3066
      2 C          -5.3466  -16.0738   25.2341 C.3     1  UNL1        0.1078
      3 C          -6.0055  -15.0998   26.1652 C.3     1  UNL1        0.0903
      4 N          -7.4400  -14.7148   25.9556 N.3     1  UNL1       -0.2947
      5 C          -8.2156  -15.3039   24.8149 C.3     1  UNL1        0.0885
      6 C          -7.5566  -16.2780   23.8837 C.3     1  UNL1        0.0885
      7 H          -7.4582  -13.7025   25.8324 H       1  UNL1        0.1233
      8 C          -6.3005  -18.5468   22.3131 C.2     1  UNL1        0.0155
      9 C          -5.6415  -19.5209   21.3820 C.2     1  UNL1        0.0184
     10 C          -4.1451  -19.5851   21.3000 C.2     1  UNL1        0.0900
     11 N          -3.2204  -20.4363   20.4813 N.2     1  UNL1       -0.1519
     12 N          -1.8115  -20.0525   20.8245 N.2     1  UNL1       -0.1507
     13 C          -1.8655  -18.9641   21.8552 C.2     1  UNL1        0.1058
     14 C          -3.3078  -18.6752   22.1491 C.3     1  UNL1        0.1083
     15 C          -3.9668  -17.7012   23.0802 C.2     1  UNL1        0.0001
     16 C          -5.4632  -17.6370   23.1622 C.2     1  UNL1        0.0443
     17 C          -8.3322  -16.8671   22.7429 C.3     1  UNL1        0.0211
     18 C          -9.7927  -17.1683   22.9052 C.3     1  UNL1        0.0017
     19 C         -10.2364  -18.2384   23.8581 C.3     1  UNL1        0.0001
     20 C         -11.6968  -18.5397   24.0204 C.3     1  UNL1        0.0000
     21 C         -12.7136  -17.7709   23.2298 C.3     1  UNL1        0.0000
     22 C         -12.2699  -16.7008   22.2769 C.3     1  UNL1        0.0000
     23 C         -10.8095  -16.3995   22.1146 C.3     1  UNL1        0.0001
@<TRIPOS>BOND
     1     8     9    2
     2     9    10    1
     3    10    11    2
     4    11    12    1
     5    12    13    2
     6    13    14    1
     7    14    15    1
     8    15    16    2
     9    16     1    1
    10     1     2    1
    11     2     3    1
    12     3     4    1
    13     4     5    1
    14     5     6    1
    15     6    17    1
    16    17    18    1
    17    18    19    1
    18    19    20    1
    19    20    21    1
    20    21    22    1
    21    22    23    1
    22    16     8    1
    23     6     1    1
    24    23    18    1
    25    14    10    1
    26     4     7    1
@<TRIPOS>MOLECULE
*****
 23 26 0 0 0
SMALL
GASTEIGER

@<TRIPOS>ATOM
      1 N          -5.8734  -16.4255   24.2989 N.pl3   1  UNL1       -0.3066
      2 C          -5.2496  -15.9863   25.5904 C.3     1  UNL1        0.1078
      3 C          -6.0555  -15.2039   26.5846 C.3     1  UNL1        0.0903
      4 N          -7.4851  -14.8607   26.2872 N.3     1  UNL1       -0.2947
      5 C          -8.1089  -15.3000   24.9958 C.3     1  UNL1        0.0885
      6 C          -7.3029  -16.0824   24.0016 C.3     1  UNL1        0.0885
      7 H          -7.5563  -13.8436   26.3177 H       1  UNL1        0.1233
      8 C          -3.6314  -16.8523   23.0574 C.2     1  UNL1        0.0155
      9 C          -2.8254  -17.6348   22.0632 C.2     1  UNL1        0.0184
     10 C          -3.4556  -18.7729   21.3165 C.2     1  UNL1        0.0900
     11 N          -2.9153  -19.7175   20.2841 N.2     1  UNL1       -0.1519
     12 N          -4.0175  -20.6570   19.8935 N.2     1  UNL1       -0.1507
     13 C          -5.2390  -20.2930   20.6845 C.2     1  UNL1        0.1058
     14 C          -4.8917  -19.1285   21.5639 C.3     1  UNL1        0.1083
     15 C          -5.6976  -18.3461   22.5580 C.2     1  UNL1        0.0001
     16 C          -5.0674  -17.2080   23.3048 C.2     1  UNL1        0.0443
     17 C          -7.9267  -16.5217   22.7101 C.3     1  UNL1        0.0211
     18 C          -9.3109  -17.0996   22.7040 C.3     1  UNL1        0.0017
     19 C         -10.4203  -16.3814   21.9946 C.3     1  UNL1        0.0001
     20 C         -11.8045  -16.9593   21.9884 C.3     1  UNL1        0.0000
     21 C         -12.0793  -18.2554   22.6917 C.3     1  UNL1        0.0000
     22 C         -10.9697  -18.9736   23.4011 C.3     1  UNL1        0.0000
     23 C          -9.5856  -18.3957   23.4073 C.3     1  UNL1        0.0001
@<TRIPOS>BOND
     1     8     9    2
     2     9    10    1
     3    10    11    2
     4    11    12    1
     5    12    13    2
     6    13    14    1
     7    14    15    1
     8    15    16    2
     9    16     1    1
    10     1     2    1
    11     2     3    1
    12     3     4    1
    13     4     5    1
    14     5     6    1
    15     6    17    1
    16    17    18    1
    17    18    19    1
    18    19    20    1
    19    20    21    1
    20    21    22    1
    21    22    23    1
    22    16     8    1
    23     6     1    1
    24    23    18    1
    25    14    10    1
    26     4     7    1
