@<TRIPOS>MOLECULE
*****
 27 29 0 0 0
SMALL
GASTEIGER

@<TRIPOS>ATOM
      1 C         -10.3010  -18.4729   23.7128 C.ar    1  UNL1        0.0537
      2 C          -9.5331  -17.1845   23.7292 C.ar    1  UNL1        0.0061
      3 C          -8.1077  -17.1549   23.2631 C.ar    1  UNL1        0.0193
      4 C          -7.4501  -18.4138   22.7804 C.ar    1  UNL1        0.0824
      5 C          -8.2180  -19.7022   22.7640 C.ar    1  UNL1        0.0193
      6 C          -9.6434  -19.7317   23.2302 C.ar    1  UNL1        0.0061
      7 N          -6.0247  -18.3842   22.3143 N.ar    1  UNL1       -0.2341
      8 N          -4.9919  -17.3671   22.6999 N.ar    1  UNL1       -0.1617
      9 C          -3.7107  -17.7209   22.0046 C.ar    1  UNL1        0.1696
     10 C          -3.9517  -18.9567   21.1893 C.ar    1  UNL1        0.0148
     11 C          -5.3818  -19.3667   21.3807 C.ar    1  UNL1        0.0579
     12 C          -5.9140  -20.5816   20.6801 C.3     1  UNL1        0.0456
     13 C          -5.0159  -21.3865   19.7882 C.3     1  UNL1        0.0066
     14 C          -3.5858  -20.9765   19.5968 C.3     1  UNL1        0.0052
     15 C          -3.0537  -19.7616   20.2973 C.3     1  UNL1        0.0291
     16 C          -2.4159  -16.9706   22.1067 C.3     1  UNL1        0.4362
     17 F          -1.1210  -16.2203   22.2086 F       1  UNL1       -0.1644
     18 F          -2.6599  -16.3656   20.7559 F       1  UNL1       -0.1644
     19 F          -2.1718  -17.5755   23.4573 F       1  UNL1       -0.1644
     20 N         -12.7962  -17.8393   23.3630 N.am    1  UNL1       -0.2743
     21 C         -14.2216  -17.8689   23.8291 C.3     1  UNL1        0.1152
     22 C         -11.7264  -18.5025   24.1789 C.2     1  UNL1        0.2491
     23 O         -12.0820  -19.1952   25.4610 O.2     1  UNL1       -0.2699
     24 C         -12.4405  -17.1466   22.0810 C.3     1  UNL1        0.0938
     25 C         -12.2815  -17.9408   20.8184 C.3     1  UNL1        0.0215
     26 C         -10.3433  -19.2504   19.6877 C.3     1  UNL1        0.0001
     27 C         -10.9658  -17.9489   20.0981 C.3     1  UNL1        0.0018
@<TRIPOS>BOND
     1    26    27    1
     2    27    25    1
     3    25    24    1
     4    24    20    1
     5    20    21    1
     6    20    22   am
     7    22    23    2
     8    22     1    1
     9     1     2   ar
    10     2     3   ar
    11     3     4   ar
    12     4     7    1
    13     7     8   ar
    14     8     9   ar
    15     9    16    1
    16    16    17    1
    17    16    18    1
    18    16    19    1
    19     9    10   ar
    20    10    11   ar
    21    11    12    1
    22    12    13    1
    23    13    14    1
    24    14    15    1
    25     4     5   ar
    26     5     6   ar
    27     6     1   ar
    28    11     7   ar
    29    15    10    1
@<TRIPOS>MOLECULE
*****
 27 29 0 0 0
SMALL
GASTEIGER

@<TRIPOS>ATOM
      1 C          -3.9581  -19.1949   20.8853 C.ar    1  UNL1        0.0537
      2 C          -4.4808  -18.9560   22.2709 C.ar    1  UNL1        0.0061
      3 C          -5.9404  -18.6847   22.4854 C.ar    1  UNL1        0.0193
      4 C          -6.8773  -18.6522   21.3144 C.ar    1  UNL1        0.0824
      5 C          -6.3546  -18.8911   19.9289 C.ar    1  UNL1        0.0193
      6 C          -4.8950  -19.1625   19.7144 C.ar    1  UNL1        0.0061
      7 N          -8.3369  -18.3808   21.5289 N.ar    1  UNL1       -0.2341
      8 N          -9.1889  -17.4493   20.7188 N.ar    1  UNL1       -0.1617
      9 C         -10.5792  -17.4861   21.2805 C.ar    1  UNL1        0.1696
     10 C         -10.5865  -18.4404   22.4378 C.ar    1  UNL1        0.0148
     11 C          -9.2007  -18.9933   22.5913 C.ar    1  UNL1        0.0579
     12 C          -8.9043  -19.9831   23.6787 C.3     1  UNL1        0.0456
     13 C          -9.9938  -20.4200   24.6125 C.3     1  UNL1        0.0066
     14 C         -11.3797  -19.8670   24.4590 C.3     1  UNL1        0.0052
     15 C         -11.6761  -18.8772   23.3716 C.3     1  UNL1        0.0291
     16 C         -11.7558  -16.7057   20.7739 C.3     1  UNL1        0.4362
     17 F         -12.9324  -15.9252   20.2673 F       1  UNL1       -0.1644
     18 F         -11.7594  -15.8928   22.0345 F       1  UNL1       -0.1644
     19 F         -11.7522  -17.5186   19.5133 F       1  UNL1       -0.1644
     20 N          -1.5556  -18.3303   20.4059 N.am    1  UNL1       -0.2743
     21 C          -0.0960  -18.6016   20.1913 C.3     1  UNL1        0.1152
     22 C          -2.4986  -19.4663   20.6708 C.2     1  UNL1        0.2491
     23 O          -1.9821  -20.8737   20.7211 O.2     1  UNL1       -0.2699
     24 C          -2.0721  -16.9229   20.3555 C.3     1  UNL1        0.0938
     25 C          -2.0202  -16.0606   21.5819 C.3     1  UNL1        0.0215
     26 C          -4.1119  -15.4489   22.9962 C.3     1  UNL1        0.0001
     27 C          -2.9355  -16.3424   22.7363 C.3     1  UNL1        0.0018
@<TRIPOS>BOND
     1    26    27    1
     2    27    25    1
     3    25    24    1
     4    24    20    1
     5    20    21    1
     6    20    22   am
     7    22    23    2
     8    22     1    1
     9     1     2   ar
    10     2     3   ar
    11     3     4   ar
    12     4     7    1
    13     7     8   ar
    14     8     9   ar
    15     9    16    1
    16    16    17    1
    17    16    18    1
    18    16    19    1
    19     9    10   ar
    20    10    11   ar
    21    11    12    1
    22    12    13    1
    23    13    14    1
    24    14    15    1
    25     4     5   ar
    26     5     6   ar
    27     6     1   ar
    28    11     7   ar
    29    15    10    1
@<TRIPOS>MOLECULE
*****
 27 29 0 0 0
SMALL
GASTEIGER

@<TRIPOS>ATOM
      1 C          -3.9044  -19.0026   21.2281 C.ar    1  UNL1        0.0537
      2 C          -4.4188  -18.3097   22.4550 C.ar    1  UNL1        0.0061
      3 C          -5.8879  -18.0487   22.6087 C.ar    1  UNL1        0.0193
      4 C          -6.8427  -18.4808   21.5354 C.ar    1  UNL1        0.0824
      5 C          -6.3283  -19.1737   20.3086 C.ar    1  UNL1        0.0193
      6 C          -4.8592  -19.4346   20.1549 C.ar    1  UNL1        0.0061
      7 N          -8.3118  -18.2199   21.6891 N.ar    1  UNL1       -0.2341
      8 N          -9.1418  -17.3162   20.8263 N.ar    1  UNL1       -0.1617
      9 C         -10.5518  -17.3547   21.3366 C.ar    1  UNL1        0.1696
     10 C         -10.5933  -18.2822   22.5147 C.ar    1  UNL1        0.0148
     11 C          -9.2089  -18.8170   22.7326 C.ar    1  UNL1        0.0579
     12 C          -8.9440  -19.7785   23.8529 C.3     1  UNL1        0.0456
     13 C         -10.0634  -20.2053   24.7554 C.3     1  UNL1        0.0066
     14 C         -11.4479  -19.6705   24.5376 C.3     1  UNL1        0.0052
     15 C         -11.7128  -18.7090   23.4172 C.3     1  UNL1        0.0291
     16 C         -11.7160  -16.5984   20.7685 C.3     1  UNL1        0.4362
     17 F         -12.8802  -15.8422   20.2003 F       1  UNL1       -0.1644
     18 F         -11.6914  -17.4748   19.5514 F       1  UNL1       -0.1644
     19 F         -11.7406  -15.7221   21.9855 F       1  UNL1       -0.1644
     20 N          -1.5668  -18.2669   20.3656 N.am    1  UNL1       -0.2743
     21 C          -0.0976  -18.5277   20.2119 C.3     1  UNL1        0.1152
     22 C          -2.4353  -19.2635   21.0744 C.2     1  UNL1        0.2491
     23 O          -1.8348  -20.5210   21.6295 O.2     1  UNL1       -0.2699
     24 C          -2.1673  -17.0094   19.8105 C.3     1  UNL1        0.0938
     25 C          -3.0560  -17.0719   18.6036 C.3     1  UNL1        0.0215
     26 C          -1.3533  -17.8653   16.8088 C.3     1  UNL1        0.0001
     27 C          -2.4652  -16.9510   17.2302 C.3     1  UNL1        0.0018
@<TRIPOS>BOND
     1    26    27    1
     2    27    25    1
     3    25    24    1
     4    24    20    1
     5    20    21    1
     6    20    22   am
     7    22    23    2
     8    22     1    1
     9     1     2   ar
    10     2     3   ar
    11     3     4   ar
    12     4     7    1
    13     7     8   ar
    14     8     9   ar
    15     9    16    1
    16    16    17    1
    17    16    18    1
    18    16    19    1
    19     9    10   ar
    20    10    11   ar
    21    11    12    1
    22    12    13    1
    23    13    14    1
    24    14    15    1
    25     4     5   ar
    26     5     6   ar
    27     6     1   ar
    28    11     7   ar
    29    15    10    1
@<TRIPOS>MOLECULE
*****
 27 29 0 0 0
SMALL
GASTEIGER

@<TRIPOS>ATOM
      1 C          -5.1564  -18.1156   22.8257 C.ar    1  UNL1        0.0537
      2 C          -5.8052  -16.8814   23.3785 C.ar    1  UNL1        0.0061
      3 C          -7.3003  -16.7603   23.3885 C.ar    1  UNL1        0.0193
      4 C          -8.1466  -17.8736   22.8457 C.ar    1  UNL1        0.0824
      5 C          -7.4977  -19.1078   22.2929 C.ar    1  UNL1        0.0193
      6 C          -6.0027  -19.2288   22.2829 C.ar    1  UNL1        0.0061
      7 N          -9.6417  -17.7525   22.8557 N.ar    1  UNL1       -0.2341
      8 N         -10.5591  -18.2465   23.9348 N.ar    1  UNL1       -0.1617
      9 C         -11.9662  -17.9155   23.5343 C.ar    1  UNL1        0.1696
     10 C         -11.9185  -17.2168   22.2078 C.ar    1  UNL1        0.0148
     11 C         -10.4818  -17.1161   21.7884 C.ar    1  UNL1        0.0579
     12 C         -10.1243  -16.4579   20.4888 C.3     1  UNL1        0.0456
     13 C         -11.2034  -15.9005   19.6086 C.3     1  UNL1        0.0066
     14 C         -12.6400  -16.0012   20.0281 C.3     1  UNL1        0.0052
     15 C         -12.9976  -16.6594   21.3276 C.3     1  UNL1        0.0291
     16 C         -13.2038  -18.2281   24.3221 C.3     1  UNL1        0.4362
     17 F         -14.4415  -18.5407   25.1098 F       1  UNL1       -0.1644
     18 F         -13.9238  -17.1048   23.6368 F       1  UNL1       -0.1644
     19 F         -12.4838  -19.3514   25.0074 F       1  UNL1       -0.1644
     20 N          -2.9812  -19.0402   21.7472 N.am    1  UNL1       -0.2743
     21 C          -1.4861  -19.1613   21.7371 C.3     1  UNL1        0.1152
     22 C          -3.6613  -18.2367   22.8157 C.2     1  UNL1        0.2491
     23 O          -2.8465  -17.5544   23.8742 O.2     1  UNL1       -0.2699
     24 C          -3.7960  -19.7225   20.6887 C.3     1  UNL1        0.0938
     25 C          -3.6400  -19.3263   19.2503 C.3     1  UNL1        0.0215
     26 C          -1.8469  -17.6520   18.3950 C.3     1  UNL1        0.0001
     27 C          -3.2332  -17.9261   18.8980 C.3     1  UNL1        0.0018
@<TRIPOS>BOND
     1    26    27    1
     2    27    25    1
     3    25    24    1
     4    24    20    1
     5    20    21    1
     6    20    22   am
     7    22    23    2
     8    22     1    1
     9     1     2   ar
    10     2     3   ar
    11     3     4   ar
    12     4     7    1
    13     7     8   ar
    14     8     9   ar
    15     9    16    1
    16    16    17    1
    17    16    18    1
    18    16    19    1
    19     9    10   ar
    20    10    11   ar
    21    11    12    1
    22    12    13    1
    23    13    14    1
    24    14    15    1
    25     4     5   ar
    26     5     6   ar
    27     6     1   ar
    28    11     7   ar
    29    15    10    1
@<TRIPOS>MOLECULE
*****
 27 29 0 0 0
SMALL
GASTEIGER

@<TRIPOS>ATOM
      1 C         -13.4413   -2.8248   18.1916 C.ar    1  UNL1        0.0537
      2 C         -14.4544   -3.1987   17.1506 C.ar    1  UNL1        0.0061
      3 C         -15.3489   -4.3834   17.3660 C.ar    1  UNL1        0.0193
      4 C         -15.2301   -5.1943   18.6224 C.ar    1  UNL1        0.0824
      5 C         -14.2170   -4.8204   19.6633 C.ar    1  UNL1        0.0193
      6 C         -13.3226   -3.6356   19.4479 C.ar    1  UNL1        0.0061
      7 N         -16.1246   -6.3790   18.8377 N.ar    1  UNL1       -0.2341
      8 N         -15.7144   -7.8196   18.7575 N.ar    1  UNL1       -0.1617
      9 C         -16.9225   -8.6621   19.0413 C.ar    1  UNL1        0.1696
     10 C         -18.0795   -7.7422   19.2969 C.ar    1  UNL1        0.0148
     11 C         -17.5863   -6.3312   19.1711 C.ar    1  UNL1        0.0579
     12 C         -18.5319   -5.1850   19.3764 C.3     1  UNL1        0.0456
     13 C         -19.9707   -5.4499   19.7075 C.3     1  UNL1        0.0066
     14 C         -20.4638   -6.8609   19.8333 C.3     1  UNL1        0.0052
     15 C         -19.5182   -8.0071   19.6280 C.3     1  UNL1        0.0291
     16 C         -16.9662  -10.1612   19.0652 C.3     1  UNL1        0.4362
     17 F         -17.0099  -11.6605   19.0891 F       1  UNL1       -0.1644
     18 F         -17.5476  -10.1664   17.6825 F       1  UNL1       -0.1644
     19 F         -16.3848  -10.1561   20.4479 F       1  UNL1       -0.1644
     20 N         -11.2586   -1.7997   17.2247 N.am    1  UNL1       -0.2743
     21 C         -10.3641   -0.6150   17.0093 C.3     1  UNL1        0.1152
     22 C         -12.5468   -1.6400   17.9763 C.2     1  UNL1        0.2491
     23 O         -12.9407   -0.2956   18.5125 O.2     1  UNL1       -0.2699
     24 C         -10.8648   -3.1441   16.6885 C.3     1  UNL1        0.0938
     25 C          -9.7042   -3.8806   17.2892 C.3     1  UNL1        0.0215
     26 C         -10.0881   -5.7741   19.0263 C.3     1  UNL1        0.0001
     27 C          -9.7660   -4.3426   18.7150 C.3     1  UNL1        0.0018
@<TRIPOS>BOND
     1    26    27    1
     2    27    25    1
     3    25    24    1
     4    24    20    1
     5    20    21    1
     6    20    22   am
     7    22    23    2
     8    22     1    1
     9     1     2   ar
    10     2     3   ar
    11     3     4   ar
    12     4     7    1
    13     7     8   ar
    14     8     9   ar
    15     9    16    1
    16    16    17    1
    17    16    18    1
    18    16    19    1
    19     9    10   ar
    20    10    11   ar
    21    11    12    1
    22    12    13    1
    23    13    14    1
    24    14    15    1
    25     4     5   ar
    26     5     6   ar
    27     6     1   ar
    28    11     7   ar
    29    15    10    1
@<TRIPOS>MOLECULE
*****
 27 29 0 0 0
SMALL
GASTEIGER

@<TRIPOS>ATOM
      1 C           0.3198    2.3160   19.3766 C.ar    1  UNL1        0.0537
      2 C           1.5685    2.0785   18.5801 C.ar    1  UNL1        0.0061
      3 C           2.3834    0.8412   18.8141 C.ar    1  UNL1        0.0193
      4 C           1.9497   -0.1588   19.8448 C.ar    1  UNL1        0.0824
      5 C           0.7011    0.0787   20.6412 C.ar    1  UNL1        0.0193
      6 C          -0.1139    1.3161   20.4072 C.ar    1  UNL1        0.0061
      7 N           2.7647   -1.3962   20.0788 N.ar    1  UNL1       -0.2341
      8 N           3.0315   -2.4790   19.0756 N.ar    1  UNL1       -0.1617
      9 C           3.8876   -3.5200   19.7340 C.ar    1  UNL1        0.1696
     10 C           4.1499   -3.0805   21.1440 C.ar    1  UNL1        0.0148
     11 C           3.4559   -1.7679   21.3571 C.ar    1  UNL1        0.0579
     12 C           3.5430   -1.0808   22.6876 C.3     1  UNL1        0.0456
     13 C           4.3242   -1.7063   23.8049 C.3     1  UNL1        0.0066
     14 C           5.0182   -3.0189   23.5918 C.3     1  UNL1        0.0052
     15 C           4.9311   -3.7060   22.2613 C.3     1  UNL1        0.0291
     16 C           4.3928   -4.7793   19.0946 C.3     1  UNL1        0.4362
     17 F           4.8979   -6.0388   18.4552 F       1  UNL1       -0.1644
     18 F           3.4116   -5.5807   19.8978 F       1  UNL1       -0.1644
     19 F           5.3738   -3.9780   18.2913 F       1  UNL1       -0.1644
     20 N          -0.4272    4.6915   20.1172 N.am    1  UNL1       -0.2743
     21 C          -1.2421    5.9289   19.8833 C.3     1  UNL1        0.1152
     22 C          -0.4951    3.5533   19.1426 C.2     1  UNL1        0.2491
     23 O          -1.3780    3.6525   17.9340 O.2     1  UNL1       -0.2699
     24 C           0.4556    4.5924   21.3258 C.3     1  UNL1        0.0938
     25 C           1.9188    4.9035   21.2134 C.3     1  UNL1        0.0215
     26 C           2.6460    2.7695   22.5046 C.3     1  UNL1        0.0001
     27 C           2.9359    3.8366   21.4912 C.3     1  UNL1        0.0018
@<TRIPOS>BOND
     1    26    27    1
     2    27    25    1
     3    25    24    1
     4    24    20    1
     5    20    21    1
     6    20    22   am
     7    22    23    2
     8    22     1    1
     9     1     2   ar
    10     2     3   ar
    11     3     4   ar
    12     4     7    1
    13     7     8   ar
    14     8     9   ar
    15     9    16    1
    16    16    17    1
    17    16    18    1
    18    16    19    1
    19     9    10   ar
    20    10    11   ar
    21    11    12    1
    22    12    13    1
    23    13    14    1
    24    14    15    1
    25     4     5   ar
    26     5     6   ar
    27     6     1   ar
    28    11     7   ar
    29    15    10    1
@<TRIPOS>MOLECULE
*****
 27 29 0 0 0
SMALL
GASTEIGER

@<TRIPOS>ATOM
      1 C           6.3196   -2.4297   20.0083 C.ar    1  UNL1        0.0537
      2 C           5.3608   -3.4608   20.5254 C.ar    1  UNL1        0.0061
      3 C           5.5795   -4.0787   21.8746 C.ar    1  UNL1        0.0193
      4 C           6.7572   -3.6653   22.7068 C.ar    1  UNL1        0.0824
      5 C           7.7159   -2.6342   22.1897 C.ar    1  UNL1        0.0193
      6 C           7.4972   -2.0163   20.8405 C.ar    1  UNL1        0.0061
      7 N           6.9759   -4.2831   24.0561 N.ar    1  UNL1       -0.2341
      8 N           6.4491   -3.7621   25.3603 N.ar    1  UNL1       -0.1617
      9 C           6.9075   -4.6875   26.4482 C.ar    1  UNL1        0.1696
     10 C           7.7176   -5.7804   25.8164 C.ar    1  UNL1        0.0148
     11 C           7.7599   -5.5305   24.3379 C.ar    1  UNL1        0.0579
     12 C           8.5069   -6.4710   23.4394 C.3     1  UNL1        0.0456
     13 C           9.2115   -7.6615   24.0193 C.3     1  UNL1        0.0066
     14 C           9.1692   -7.9114   25.4977 C.3     1  UNL1        0.0052
     15 C           8.4223   -6.9708   26.3962 C.3     1  UNL1        0.0291
     16 C           6.6083   -4.5450   27.9111 C.3     1  UNL1        0.4362
     17 F           6.3091   -4.4024   29.3741 F       1  UNL1       -0.1644
     18 F           7.5463   -3.3770   27.9892 F       1  UNL1       -0.1644
     19 F           5.6704   -5.7128   27.8331 F       1  UNL1       -0.1644
     20 N           5.1149   -0.6930   18.4975 N.am    1  UNL1       -0.2743
     21 C           4.8961   -0.0751   17.1483 C.3     1  UNL1        0.1152
     22 C           6.1009   -1.8118   18.6591 C.2     1  UNL1        0.2491
     23 O           6.8681   -2.3128   17.4715 O.2     1  UNL1       -0.2699
     24 C           4.3477   -0.1920   19.6851 C.3     1  UNL1        0.0938
     25 C           2.9326   -0.6378   19.9063 C.3     1  UNL1        0.0215
     26 C           3.4067   -0.9715   22.4389 C.3     1  UNL1        0.0001
     27 C           2.4356   -0.8934   21.2983 C.3     1  UNL1        0.0018
@<TRIPOS>BOND
     1    26    27    1
     2    27    25    1
     3    25    24    1
     4    24    20    1
     5    20    21    1
     6    20    22   am
     7    22    23    2
     8    22     1    1
     9     1     2   ar
    10     2     3   ar
    11     3     4   ar
    12     4     7    1
    13     7     8   ar
    14     8     9   ar
    15     9    16    1
    16    16    17    1
    17    16    18    1
    18    16    19    1
    19     9    10   ar
    20    10    11   ar
    21    11    12    1
    22    12    13    1
    23    13    14    1
    24    14    15    1
    25     4     5   ar
    26     5     6   ar
    27     6     1   ar
    28    11     7   ar
    29    15    10    1
@<TRIPOS>MOLECULE
*****
 27 29 0 0 0
SMALL
GASTEIGER

@<TRIPOS>ATOM
      1 C         -13.0827    0.2268   17.5284 C.ar    1  UNL1        0.0537
      2 C         -13.4790   -0.6212   16.3563 C.ar    1  UNL1        0.0061
      3 C         -13.3899   -2.1158   16.4477 C.ar    1  UNL1        0.0193
      4 C         -12.9045   -2.7624   17.7112 C.ar    1  UNL1        0.0824
      5 C         -12.5083   -1.9144   18.8832 C.ar    1  UNL1        0.0193
      6 C         -12.5974   -0.4198   18.7919 C.ar    1  UNL1        0.0061
      7 N         -12.8154   -4.2570   17.8026 N.ar    1  UNL1       -0.2341
      8 N         -13.9038   -5.2281   17.4529 N.ar    1  UNL1       -0.1617
      9 C         -13.3833   -6.6141   17.6939 C.ar    1  UNL1        0.1696
     10 C         -11.9732   -6.4995   18.1924 C.ar    1  UNL1        0.0148
     11 C         -11.6222   -5.0427   18.2596 C.ar    1  UNL1        0.0579
     12 C         -10.2615   -4.6199   18.7282 C.3     1  UNL1        0.0456
     13 C          -9.2518   -5.6539   19.1297 C.3     1  UNL1        0.0066
     14 C          -9.6027   -7.1107   19.0626 C.3     1  UNL1        0.0052
     15 C         -10.9634   -7.5335   18.5939 C.3     1  UNL1        0.0291
     16 C         -14.1399   -7.8906   17.4748 C.3     1  UNL1        0.4362
     17 F         -14.8966   -9.1671   17.2556 F       1  UNL1       -0.1644
     18 F         -13.3711   -8.1291   16.2091 F       1  UNL1       -0.1644
     19 F         -14.9088   -7.6521   18.7404 F       1  UNL1       -0.1644
     20 N         -14.4677    2.4150   17.7361 N.am    1  UNL1       -0.2743
     21 C         -14.5569    3.9096   17.6448 C.3     1  UNL1        0.1152
     22 C         -13.1719    1.7213   17.4370 C.2     1  UNL1        0.2491
     23 O         -11.9651    2.5222   17.0466 O.2     1  UNL1       -0.2699
     24 C         -15.6745    1.6142   18.1265 C.3     1  UNL1        0.0938
     25 C         -15.9784    1.3737   19.5757 C.3     1  UNL1        0.0215
     26 C         -16.2455   -1.1666   19.1010 C.3     1  UNL1        0.0001
     27 C         -16.3072   -0.0096   20.0535 C.3     1  UNL1        0.0018
@<TRIPOS>BOND
     1    26    27    1
     2    27    25    1
     3    25    24    1
     4    24    20    1
     5    20    21    1
     6    20    22   am
     7    22    23    2
     8    22     1    1
     9     1     2   ar
    10     2     3   ar
    11     3     4   ar
    12     4     7    1
    13     7     8   ar
    14     8     9   ar
    15     9    16    1
    16    16    17    1
    17    16    18    1
    18    16    19    1
    19     9    10   ar
    20    10    11   ar
    21    11    12    1
    22    12    13    1
    23    13    14    1
    24    14    15    1
    25     4     5   ar
    26     5     6   ar
    27     6     1   ar
    28    11     7   ar
    29    15    10    1
@<TRIPOS>MOLECULE
*****
 27 29 0 0 0
SMALL
GASTEIGER

@<TRIPOS>ATOM
      1 C           5.1025   -1.3958   21.7211 C.ar    1  UNL1        0.0537
      2 C           6.4206   -1.0692   22.3582 C.ar    1  UNL1        0.0061
      3 C           6.9770   -1.9596   23.4294 C.ar    1  UNL1        0.0193
      4 C           6.2152   -3.1767   23.8637 C.ar    1  UNL1        0.0824
      5 C           4.8972   -3.5032   23.2266 C.ar    1  UNL1        0.0193
      6 C           4.3407   -2.6128   22.1554 C.ar    1  UNL1        0.0061
      7 N           6.7717   -4.0671   24.9349 N.ar    1  UNL1       -0.2341
      8 N           6.6206   -3.8675   26.4139 N.ar    1  UNL1       -0.1617
      9 C           7.3324   -4.9905   27.1082 C.ar    1  UNL1        0.1696
     10 C           7.9234   -5.8842   26.0584 C.ar    1  UNL1        0.0148
     11 C           7.5768   -5.3135   24.7152 C.ar    1  UNL1        0.0579
     12 C           8.0392   -6.0025   23.4657 C.3     1  UNL1        0.0456
     13 C           8.8482   -7.2621   23.5593 C.3     1  UNL1        0.0066
     14 C           9.1947   -7.8328   24.9025 C.3     1  UNL1        0.0052
     15 C           8.7324   -7.1438   26.1521 C.3     1  UNL1        0.0291
     16 C           7.4352   -5.1856   28.5919 C.3     1  UNL1        0.4362
     17 F           7.5381   -5.3807   30.0757 F       1  UNL1       -0.1644
     18 F           8.8855   -4.8062   28.5414 F       1  UNL1       -0.1644
     19 F           5.9849   -5.5650   28.6426 F       1  UNL1       -0.1644
     20 N           4.9067   -0.7446   19.2137 N.am    1  UNL1       -0.2743
     21 C           4.3504    0.1458   18.1424 C.3     1  UNL1        0.1152
     22 C           4.5461   -0.5054   20.6499 C.2     1  UNL1        0.2491
     23 O           3.6290    0.6241   21.0149 O.2     1  UNL1       -0.2699
     24 C           5.8238   -1.8741   18.8487 C.3     1  UNL1        0.0938
     25 C           5.2883   -3.0678   18.1149 C.3     1  UNL1        0.0215
     26 C           3.3267   -4.4183   19.1533 C.3     1  UNL1        0.0001
     27 C           4.7930   -4.2588   18.8805 C.3     1  UNL1        0.0018
@<TRIPOS>BOND
     1    26    27    1
     2    27    25    1
     3    25    24    1
     4    24    20    1
     5    20    21    1
     6    20    22   am
     7    22    23    2
     8    22     1    1
     9     1     2   ar
    10     2     3   ar
    11     3     4   ar
    12     4     7    1
    13     7     8   ar
    14     8     9   ar
    15     9    16    1
    16    16    17    1
    17    16    18    1
    18    16    19    1
    19     9    10   ar
    20    10    11   ar
    21    11    12    1
    22    12    13    1
    23    13    14    1
    24    14    15    1
    25     4     5   ar
    26     5     6   ar
    27     6     1   ar
    28    11     7   ar
    29    15    10    1
