@<TRIPOS>MOLECULE
*****
 28 30 0 0 0
SMALL
GASTEIGER

@<TRIPOS>ATOM
      1 C           3.9861   -2.2892   20.6512 C.3     1  UNL1        0.0976
      2 C           2.9746   -1.1816   20.6515 C.ar    1  UNL1       -0.0059
      3 C           2.2928   -0.7882   19.3746 C.ar    1  UNL1        0.0267
      4 C           1.2813    0.3194   19.3750 C.ar    1  UNL1        0.1399
      5 F           0.5995    0.7129   18.0980 F       1  UNL1       -0.2042
      6 C           0.9516    1.0337   20.6521 C.ar    1  UNL1        0.0293
      7 C           1.6334    0.6403   21.9290 C.ar    1  UNL1       -0.0022
      8 C           2.6448   -0.4673   21.9287 C.ar    1  UNL1       -0.0227
      9 C           3.3267   -0.8607   23.2056 C.3     1  UNL1        0.0476
     10 C           4.3381   -1.9684   23.2053 C.3     1  UNL1        0.0983
     11 N           4.6679   -2.6826   21.9281 N.am    1  UNL1       -0.2760
     12 C           5.6794   -3.7903   21.9278 C.2     1  UNL1        0.2420
     13 O           6.0091   -4.5045   20.6507 O.2     1  UNL1       -0.2734
     14 C           3.5612   -4.2419   18.9910 C.3     1  UNL1        0.0021
     15 C           4.3158   -3.0035   19.3741 C.3     1  UNL1        0.0224
     16 C           5.4002   -2.4792   18.4800 C.3     1  UNL1        0.0021
     17 C           6.3612   -4.1837   23.2047 C.3     1  UNL1        0.1552
     18 N           7.4367   -5.2290   23.1894 N.3     1  UNL1       -0.2879
     19 H           8.0300   -5.0293   22.3840 H       1  UNL1        0.1238
     20 C           8.3481   -5.3849   24.3706 C.3     1  UNL1        0.0961
     21 C           8.2099   -6.5753   25.2726 C.3     1  UNL1        0.1027
     22 O           8.0373   -7.2383   23.9381 O.3     1  UNL1       -0.3854
     23 C           8.4304   -5.4990   26.2937 C.3     1  UNL1        0.0283
     24 C           8.4528   -5.8433   27.7535 C.3     1  UNL1        0.0024
     25 C           8.2546   -7.2640   28.1921 C.3     1  UNL1        0.0002
     26 C           8.0341   -8.3403   27.1710 C.3     1  UNL1        0.0024
     27 C           8.0117   -7.9961   25.7112 C.3     1  UNL1        0.0283
     28 H           8.1043   -6.5729   23.2355 H       1  UNL1        0.2103
@<TRIPOS>BOND
     1    14    15    1
     2    15    16    1
     3    15     1    1
     4     1     2    1
     5     2     3   ar
     6     3     4   ar
     7     4     5    1
     8     4     6   ar
     9     6     7   ar
    10     7     8   ar
    11     8     9    1
    12     9    10    1
    13    10    11    1
    14    11    12   am
    15    12    13    2
    16    12    17    1
    17    17    18    1
    18    18    20    1
    19    20    21    1
    20    21    22    1
    21    21    23    1
    22    23    24    1
    23    24    25    1
    24    25    26    1
    25    26    27    1
    26    11     1    1
    27    27    21    1
    28     8     2   ar
    29    18    19    1
    30    22    28    1
@<TRIPOS>MOLECULE
*****
 28 30 0 0 0
SMALL
GASTEIGER

@<TRIPOS>ATOM
      1 C           7.1316   -3.7160   22.9989 C.3     1  UNL1        0.0976
      2 C           7.5432   -4.9848   23.6851 C.ar    1  UNL1       -0.0059
      3 C           7.1174   -5.2446   25.0997 C.ar    1  UNL1        0.0267
      4 C           7.5289   -6.5133   25.7858 C.ar    1  UNL1        0.1399
      5 F           7.1031   -6.7731   27.2005 F       1  UNL1       -0.2042
      6 C           8.3663   -7.5223   25.0574 C.ar    1  UNL1        0.0293
      7 C           8.7921   -7.2626   23.6428 C.ar    1  UNL1       -0.0022
      8 C           8.3806   -5.9938   22.9566 C.ar    1  UNL1       -0.0227
      9 C           8.8064   -5.7341   21.5419 C.3     1  UNL1        0.0476
     10 C           8.3948   -4.4653   20.8558 C.3     1  UNL1        0.0983
     11 N           7.5574   -3.4563   21.5843 N.am    1  UNL1       -0.2760
     12 C           7.1458   -2.1875   20.8980 C.2     1  UNL1        0.2420
     13 O           6.3084   -1.1785   21.6265 O.2     1  UNL1       -0.2734
     14 C           4.7985   -2.7627   23.6295 C.3     1  UNL1        0.0021
     15 C           6.2942   -2.7070   23.7273 C.3     1  UNL1        0.0224
     16 C           6.9526   -1.6423   24.5537 C.3     1  UNL1        0.0021
     17 C           7.5716   -1.9278   19.4834 C.3     1  UNL1        0.1552
     18 N           6.7038   -2.3755   18.3448 N.3     1  UNL1       -0.2879
     19 H           7.0894   -3.2585   18.0103 H       1  UNL1        0.1238
     20 C           5.2366   -2.5985   18.5627 C.3     1  UNL1        0.0961
     21 C           4.2613   -1.4916   18.2917 C.3     1  UNL1        0.1027
     22 O           5.1558   -1.3492   17.0960 O.3     1  UNL1       -0.3854
     23 C           3.7056   -2.0185   19.5814 C.3     1  UNL1        0.0283
     24 C           2.4851   -1.3889   20.1850 C.3     1  UNL1        0.0024
     25 C           1.8205   -0.2325   19.4987 C.3     1  UNL1        0.0002
     26 C           2.3762    0.2943   18.2089 C.3     1  UNL1        0.0024
     27 C           3.5966   -0.3352   17.6054 C.3     1  UNL1        0.0283
     28 H           5.8562   -2.0191   17.1346 H       1  UNL1        0.2103
@<TRIPOS>BOND
     1    14    15    1
     2    15    16    1
     3    15     1    1
     4     1     2    1
     5     2     3   ar
     6     3     4   ar
     7     4     5    1
     8     4     6   ar
     9     6     7   ar
    10     7     8   ar
    11     8     9    1
    12     9    10    1
    13    10    11    1
    14    11    12   am
    15    12    13    2
    16    12    17    1
    17    17    18    1
    18    18    20    1
    19    20    21    1
    20    21    22    1
    21    21    23    1
    22    23    24    1
    23    24    25    1
    24    25    26    1
    25    26    27    1
    26    11     1    1
    27    27    21    1
    28     8     2   ar
    29    18    19    1
    30    22    28    1
@<TRIPOS>MOLECULE
*****
 28 30 0 0 0
SMALL
GASTEIGER

@<TRIPOS>ATOM
      1 C           6.5510   -3.7918   25.3628 C.3     1  UNL1        0.0976
      2 C           7.1805   -5.1533   25.3639 C.ar    1  UNL1       -0.0059
      3 C           7.6762   -5.7515   24.0808 C.ar    1  UNL1        0.0267
      4 C           8.3058   -7.1129   24.0820 C.ar    1  UNL1        0.1399
      5 F           8.8015   -7.7112   22.7989 F       1  UNL1       -0.2042
      6 C           8.4396   -7.8762   25.3663 C.ar    1  UNL1        0.0293
      7 C           7.9439   -7.2781   26.6495 C.ar    1  UNL1       -0.0022
      8 C           7.3144   -5.9166   26.6483 C.ar    1  UNL1       -0.0227
      9 C           6.8186   -5.3184   27.9314 C.3     1  UNL1        0.0476
     10 C           6.1891   -3.9569   27.9302 C.3     1  UNL1        0.0983
     11 N           6.0553   -3.1936   26.6459 N.am    1  UNL1       -0.2760
     12 C           5.4257   -1.8321   26.6447 C.2     1  UNL1        0.2420
     13 O           5.2918   -1.0688   25.3604 O.2     1  UNL1       -0.2734
     14 C           7.5137   -2.1052   23.6370 C.3     1  UNL1        0.0021
     15 C           6.4171   -3.0285   24.0785 C.3     1  UNL1        0.0224
     16 C           5.1866   -3.1885   23.2356 C.3     1  UNL1        0.0021
     17 C           4.9300   -1.2339   27.9279 C.3     1  UNL1        0.1552
     18 N           3.4707   -1.2950   28.2693 N.3     1  UNL1       -0.2879
     19 H           3.3421   -2.1113   28.8673 H       1  UNL1        0.1238
     20 C           2.8144   -0.1401   28.9661 C.3     1  UNL1        0.0961
     21 C           1.3355    0.0730   28.8346 C.3     1  UNL1        0.1027
     22 O           1.3677   -0.7724   30.0733 O.3     1  UNL1       -0.3854
     23 C           1.8169    0.8443   27.6416 C.3     1  UNL1        0.0283
     24 C           0.8306    1.5351   26.7472 C.3     1  UNL1        0.0024
     25 C          -0.6372    1.4546   27.0458 C.3     1  UNL1        0.0002
     26 C          -1.1186    0.6834   28.2388 C.3     1  UNL1        0.0024
     27 C          -0.1323   -0.0075   29.1332 C.3     1  UNL1        0.0283
     28 H           2.2867   -0.9956   30.2886 H       1  UNL1        0.2103
@<TRIPOS>BOND
     1    14    15    1
     2    15    16    1
     3    15     1    1
     4     1     2    1
     5     2     3   ar
     6     3     4   ar
     7     4     5    1
     8     4     6   ar
     9     6     7   ar
    10     7     8   ar
    11     8     9    1
    12     9    10    1
    13    10    11    1
    14    11    12   am
    15    12    13    2
    16    12    17    1
    17    17    18    1
    18    18    20    1
    19    20    21    1
    20    21    22    1
    21    21    23    1
    22    23    24    1
    23    24    25    1
    24    25    26    1
    25    26    27    1
    26    11     1    1
    27    27    21    1
    28     8     2   ar
    29    18    19    1
    30    22    28    1
@<TRIPOS>MOLECULE
*****
 28 30 0 0 0
SMALL
GASTEIGER

@<TRIPOS>ATOM
      1 C           3.8650   -1.3628   22.0627 C.3     1  UNL1        0.0976
      2 C           2.8180   -0.3485   22.4166 C.ar    1  UNL1       -0.0059
      3 C           2.9133    0.4085   23.7080 C.ar    1  UNL1        0.0267
      4 C           1.8664    1.4227   24.0618 C.ar    1  UNL1        0.1399
      5 F           1.9616    2.1798   25.3533 F       1  UNL1       -0.2042
      6 C           0.7241    1.6799   23.1242 C.ar    1  UNL1        0.0293
      7 C           0.6288    0.9229   21.8328 C.ar    1  UNL1       -0.0022
      8 C           1.6757   -0.0913   21.4790 C.ar    1  UNL1       -0.0227
      9 C           1.5805   -0.8484   20.1875 C.3     1  UNL1        0.0476
     10 C           2.6274   -1.8626   19.8337 C.3     1  UNL1        0.0983
     11 N           3.7697   -2.1198   20.7713 N.am    1  UNL1       -0.2760
     12 C           4.8166   -3.1341   20.4174 C.2     1  UNL1        0.2420
     13 O           5.9589   -3.3913   21.3550 O.2     1  UNL1       -0.2734
     14 C           4.8939   -2.6909   24.0445 C.3     1  UNL1        0.0021
     15 C           5.0072   -1.6200   23.0003 C.3     1  UNL1        0.0224
     16 C           6.2629   -0.8062   22.8937 C.3     1  UNL1        0.0021
     17 C           4.7213   -3.8911   19.1260 C.3     1  UNL1        0.1552
     18 N           5.2274   -3.2741   17.8559 N.3     1  UNL1       -0.2879
     19 H           4.4243   -3.1789   17.2344 H       1  UNL1        0.1238
     20 C           5.9089   -1.9382   17.8906 C.3     1  UNL1        0.0961
     21 C           5.0930   -0.6796   17.8816 C.3     1  UNL1        0.1027
     22 O           4.4087   -1.4414   16.7855 O.3     1  UNL1       -0.3854
     23 C           6.0605   -0.3549   18.9808 C.3     1  UNL1        0.0283
     24 C           5.9746    0.9638   19.6904 C.3     1  UNL1        0.0024
     25 C           4.9210    1.9579   19.3007 C.3     1  UNL1        0.0002
     26 C           3.9534    1.6332   18.2016 C.3     1  UNL1        0.0024
     27 C           4.0394    0.3145   17.4920 C.3     1  UNL1        0.0283
     28 H           4.8399   -2.3029   16.6726 H       1  UNL1        0.2103
@<TRIPOS>BOND
     1    14    15    1
     2    15    16    1
     3    15     1    1
     4     1     2    1
     5     2     3   ar
     6     3     4   ar
     7     4     5    1
     8     4     6   ar
     9     6     7   ar
    10     7     8   ar
    11     8     9    1
    12     9    10    1
    13    10    11    1
    14    11    12   am
    15    12    13    2
    16    12    17    1
    17    17    18    1
    18    18    20    1
    19    20    21    1
    20    21    22    1
    21    21    23    1
    22    23    24    1
    23    24    25    1
    24    25    26    1
    25    26    27    1
    26    11     1    1
    27    27    21    1
    28     8     2   ar
    29    18    19    1
    30    22    28    1
@<TRIPOS>MOLECULE
*****
 28 30 0 0 0
SMALL
GASTEIGER

@<TRIPOS>ATOM
      1 C          -3.0483    3.8263   22.5629 C.3     1  UNL1        0.0976
      2 C          -3.4560    3.9708   23.9992 C.ar    1  UNL1       -0.0059
      3 C          -4.8082    4.5214   24.3432 C.ar    1  UNL1        0.0267
      4 C          -5.2159    4.6659   25.7795 C.ar    1  UNL1        0.1399
      5 F          -6.5681    5.2166   26.1235 F       1  UNL1       -0.2042
      6 C          -4.2714    4.2598   26.8717 C.ar    1  UNL1        0.0293
      7 C          -2.9192    3.7092   26.5277 C.ar    1  UNL1       -0.0022
      8 C          -2.5116    3.5647   25.0915 C.ar    1  UNL1       -0.0227
      9 C          -1.1593    3.0141   24.7474 C.3     1  UNL1        0.0476
     10 C          -0.7516    2.8696   23.3111 C.3     1  UNL1        0.0983
     11 N          -1.6961    3.2757   22.2189 N.am    1  UNL1       -0.2760
     12 C          -1.2884    3.1312   20.7826 C.2     1  UNL1        0.2420
     13 O          -2.2328    3.5373   19.6903 O.2     1  UNL1       -0.2734
     14 C          -4.9430    3.2282   20.8890 C.3     1  UNL1        0.0021
     15 C          -3.9928    4.2324   21.4706 C.3     1  UNL1        0.0224
     16 C          -3.9870    5.6429   20.9601 C.3     1  UNL1        0.0021
     17 C           0.0638    2.5805   20.4386 C.3     1  UNL1        0.1552
     18 N           0.2370    1.1091   20.2044 N.3     1  UNL1       -0.2879
     19 H          -0.6967    0.7200   20.0729 H       1  UNL1        0.1238
     20 C           1.0732    0.6256   19.0568 C.3     1  UNL1        0.0961
     21 C           2.0762   -0.4694   19.2687 C.3     1  UNL1        0.1027
     22 O           1.1686   -0.7179   20.4368 O.3     1  UNL1       -0.3854
     23 C           2.6354    0.1594   18.0270 C.3     1  UNL1        0.0283
     24 C           3.8825   -0.3931   17.4028 C.3     1  UNL1        0.0024
     25 C           4.5704   -1.5744   18.0204 C.3     1  UNL1        0.0002
     26 C           4.0112   -2.2032   19.2621 C.3     1  UNL1        0.0024
     27 C           2.7641   -1.6507   19.8863 C.3     1  UNL1        0.0283
     28 H           0.4496   -0.0669   20.4319 H       1  UNL1        0.2103
@<TRIPOS>BOND
     1    14    15    1
     2    15    16    1
     3    15     1    1
     4     1     2    1
     5     2     3   ar
     6     3     4   ar
     7     4     5    1
     8     4     6   ar
     9     6     7   ar
    10     7     8   ar
    11     8     9    1
    12     9    10    1
    13    10    11    1
    14    11    12   am
    15    12    13    2
    16    12    17    1
    17    17    18    1
    18    18    20    1
    19    20    21    1
    20    21    22    1
    21    21    23    1
    22    23    24    1
    23    24    25    1
    24    25    26    1
    25    26    27    1
    26    11     1    1
    27    27    21    1
    28     8     2   ar
    29    18    19    1
    30    22    28    1
@<TRIPOS>MOLECULE
*****
 28 30 0 0 0
SMALL
GASTEIGER

@<TRIPOS>ATOM
      1 C           7.4866   -5.4873   27.0353 C.3     1  UNL1        0.0976
      2 C           7.3021   -5.1562   28.4867 C.ar    1  UNL1       -0.0059
      3 C           7.6835   -6.1554   29.5383 C.ar    1  UNL1        0.0267
      4 C           7.4991   -5.8242   30.9896 C.ar    1  UNL1        0.1399
      5 F           7.8805   -6.8235   32.0413 F       1  UNL1       -0.2042
      6 C           6.9331   -4.4938   31.3892 C.ar    1  UNL1        0.0293
      7 C           6.5516   -3.4946   30.3376 C.ar    1  UNL1       -0.0022
      8 C           6.7361   -3.8258   28.8863 C.ar    1  UNL1       -0.0227
      9 C           6.3547   -2.8265   27.8346 C.3     1  UNL1        0.0476
     10 C           6.5392   -3.1577   26.3833 C.3     1  UNL1        0.0983
     11 N           7.1051   -4.4881   25.9837 N.am    1  UNL1       -0.2760
     12 C           7.2896   -4.8193   24.5323 C.2     1  UNL1        0.2420
     13 O           7.8555   -6.1497   24.1327 O.2     1  UNL1       -0.2734
     14 C           7.1351   -7.9760   26.3774 C.3     1  UNL1        0.0021
     15 C           8.0525   -6.8178   26.6357 C.3     1  UNL1        0.0224
     16 C           9.5359   -6.9899   26.4944 C.3     1  UNL1        0.0021
     17 C           6.9081   -3.8200   23.4807 C.3     1  UNL1        0.1552
     18 N           6.0361   -4.2351   22.3330 N.3     1  UNL1       -0.2879
     19 H           6.0068   -5.2546   22.3391 H       1  UNL1        0.1238
     20 C           4.6146   -3.7614   22.2615 C.3     1  UNL1        0.0961
     21 C           4.2142   -2.7424   21.2363 C.3     1  UNL1        0.1027
     22 O           3.7295   -2.0624   22.4824 O.3     1  UNL1       -0.3854
     23 C           4.8379   -3.7762   20.3463 C.3     1  UNL1        0.0283
     24 C           4.8930   -3.5548   18.8637 C.3     1  UNL1        0.0024
     25 C           4.3243   -2.2996   18.2712 C.3     1  UNL1        0.0002
     26 C           3.7006   -1.2658   19.1612 C.3     1  UNL1        0.0024
     27 C           3.6455   -1.4871   20.6438 C.3     1  UNL1        0.0283
     28 H           3.9250   -2.6199   23.2518 H       1  UNL1        0.2103
@<TRIPOS>BOND
     1    14    15    1
     2    15    16    1
     3    15     1    1
     4     1     2    1
     5     2     3   ar
     6     3     4   ar
     7     4     5    1
     8     4     6   ar
     9     6     7   ar
    10     7     8   ar
    11     8     9    1
    12     9    10    1
    13    10    11    1
    14    11    12   am
    15    12    13    2
    16    12    17    1
    17    17    18    1
    18    18    20    1
    19    20    21    1
    20    21    22    1
    21    21    23    1
    22    23    24    1
    23    24    25    1
    24    25    26    1
    25    26    27    1
    26    11     1    1
    27    27    21    1
    28     8     2   ar
    29    18    19    1
    30    22    28    1
@<TRIPOS>MOLECULE
*****
 28 30 0 0 0
SMALL
GASTEIGER

@<TRIPOS>ATOM
      1 C           4.2726   -2.3917   21.8710 C.3     1  UNL1        0.0976
      2 C           3.2181   -1.3497   21.6417 C.ar    1  UNL1       -0.0059
      3 C           2.6280   -1.1680   20.2748 C.ar    1  UNL1        0.0267
      4 C           1.5736   -0.1261   20.0455 C.ar    1  UNL1        0.1399
      5 F           0.9834    0.0557   18.6785 F       1  UNL1       -0.2042
      6 C           1.1093    0.7341   21.1833 C.ar    1  UNL1        0.0293
      7 C           1.6994    0.5523   22.5503 C.ar    1  UNL1       -0.0022
      8 C           2.7538   -0.4896   22.7795 C.ar    1  UNL1       -0.0227
      9 C           3.3440   -0.6714   24.1466 C.3     1  UNL1        0.0476
     10 C           4.3984   -1.7133   24.3758 C.3     1  UNL1        0.0983
     11 N           4.8627   -2.5734   23.2380 N.am    1  UNL1       -0.2760
     12 C           5.9172   -3.6154   23.4673 C.2     1  UNL1        0.2420
     13 O           6.3815   -4.4756   22.3295 O.2     1  UNL1       -0.2734
     14 C           5.9207   -2.8346   19.9121 C.3     1  UNL1        0.0021
     15 C           4.7369   -3.2519   20.7333 C.3     1  UNL1        0.0224
     16 C           4.0173   -4.5294   20.4167 C.3     1  UNL1        0.0021
     17 C           6.5073   -3.7971   24.8343 C.3     1  UNL1        0.1552
     18 N           7.0140   -5.1434   25.2595 N.3     1  UNL1       -0.2879
     19 H           8.0326   -5.0921   25.2466 H       1  UNL1        0.1238
     20 C           6.6255   -5.7032   26.5958 C.3     1  UNL1        0.0961
     21 C           7.6854   -6.0775   27.5890 C.3     1  UNL1        0.1027
     22 O           8.3656   -6.4857   26.3159 O.3     1  UNL1       -0.3854
     23 C           6.6371   -5.5393   28.5171 C.3     1  UNL1        0.0283
     24 C           6.8849   -5.5171   29.9963 C.3     1  UNL1        0.0024
     25 C           8.1811   -6.0332   30.5474 C.3     1  UNL1        0.0002
     26 C           9.2293   -6.5714   29.6193 C.3     1  UNL1        0.0024
     27 C           8.9815   -6.5935   28.1401 C.3     1  UNL1        0.0283
     28 H           7.7829   -6.2981   25.5635 H       1  UNL1        0.2103
@<TRIPOS>BOND
     1    14    15    1
     2    15    16    1
     3    15     1    1
     4     1     2    1
     5     2     3   ar
     6     3     4   ar
     7     4     5    1
     8     4     6   ar
     9     6     7   ar
    10     7     8   ar
    11     8     9    1
    12     9    10    1
    13    10    11    1
    14    11    12   am
    15    12    13    2
    16    12    17    1
    17    17    18    1
    18    18    20    1
    19    20    21    1
    20    21    22    1
    21    21    23    1
    22    23    24    1
    23    24    25    1
    24    25    26    1
    25    26    27    1
    26    11     1    1
    27    27    21    1
    28     8     2   ar
    29    18    19    1
    30    22    28    1
@<TRIPOS>MOLECULE
*****
 28 30 0 0 0
SMALL
GASTEIGER

@<TRIPOS>ATOM
      1 C          -3.0668    3.9672   23.0935 C.3     1  UNL1        0.0976
      2 C          -4.5175    4.2230   23.3766 C.ar    1  UNL1       -0.0059
      3 C          -4.9433    4.7073   24.7308 C.ar    1  UNL1        0.0267
      4 C          -6.3940    4.9631   25.0139 C.ar    1  UNL1        0.1399
      5 F          -6.8199    5.4475   26.3681 F       1  UNL1       -0.2042
      6 C          -7.4188    4.7344   23.9427 C.ar    1  UNL1        0.0293
      7 C          -6.9930    4.2500   22.5884 C.ar    1  UNL1       -0.0022
      8 C          -5.5423    3.9943   22.3054 C.ar    1  UNL1       -0.0227
      9 C          -5.1164    3.5099   20.9511 C.3     1  UNL1        0.0476
     10 C          -3.6658    3.2542   20.6680 C.3     1  UNL1        0.0983
     11 N          -2.6409    3.4828   21.7392 N.am    1  UNL1       -0.2760
     12 C          -1.1902    3.2271   21.4561 C.2     1  UNL1        0.2420
     13 O          -0.1654    3.4557   22.5273 O.2     1  UNL1       -0.2734
     14 C          -1.6745    3.0830   25.1009 C.3     1  UNL1        0.0021
     15 C          -2.0419    4.1958   24.1647 C.3     1  UNL1        0.0224
     16 C          -1.3845    5.5374   24.2996 C.3     1  UNL1        0.0021
     17 C          -0.7644    2.7427   20.1019 C.3     1  UNL1        0.1552
     18 N           0.5826    2.1077   19.9219 N.3     1  UNL1       -0.2879
     19 H           0.8772    1.7768   20.8407 H       1  UNL1        0.1238
     20 C           0.7488    0.9574   18.9736 C.3     1  UNL1        0.0961
     21 C           1.6696   -0.1744   19.3215 C.3     1  UNL1        0.1027
     22 O           0.5398   -0.4579   20.2667 O.3     1  UNL1       -0.3854
     23 C           2.4795    0.5021   18.2555 C.3     1  UNL1        0.0283
     24 C           3.8179   -0.0517   17.8657 C.3     1  UNL1        0.0024
     25 C           4.3464   -1.2820   18.5419 C.3     1  UNL1        0.0002
     26 C           3.5365   -1.9584   19.6078 C.3     1  UNL1        0.0024
     27 C           2.1981   -1.4047   19.9977 C.3     1  UNL1        0.0283
     28 H          -0.1523    0.2122   20.1534 H       1  UNL1        0.2103
@<TRIPOS>BOND
     1    14    15    1
     2    15    16    1
     3    15     1    1
     4     1     2    1
     5     2     3   ar
     6     3     4   ar
     7     4     5    1
     8     4     6   ar
     9     6     7   ar
    10     7     8   ar
    11     8     9    1
    12     9    10    1
    13    10    11    1
    14    11    12   am
    15    12    13    2
    16    12    17    1
    17    17    18    1
    18    18    20    1
    19    20    21    1
    20    21    22    1
    21    21    23    1
    22    23    24    1
    23    24    25    1
    24    25    26    1
    25    26    27    1
    26    11     1    1
    27    27    21    1
    28     8     2   ar
    29    18    19    1
    30    22    28    1
@<TRIPOS>MOLECULE
*****
 28 30 0 0 0
SMALL
GASTEIGER

@<TRIPOS>ATOM
      1 C           1.5080    1.4694   24.9706 C.3     1  UNL1        0.0976
      2 C           0.8944    1.1746   26.3073 C.ar    1  UNL1       -0.0059
      3 C           1.6550    0.3725   27.3212 C.ar    1  UNL1        0.0267
      4 C           1.0414    0.0778   28.6578 C.ar    1  UNL1        0.1399
      5 F           1.8019   -0.7243   29.6719 F       1  UNL1       -0.2042
      6 C          -0.3328    0.5853   28.9805 C.ar    1  UNL1        0.0293
      7 C          -1.0934    1.3874   27.9666 C.ar    1  UNL1       -0.0022
      8 C          -0.4797    1.6821   26.6300 C.ar    1  UNL1       -0.0227
      9 C          -1.2403    2.4843   25.6160 C.3     1  UNL1        0.0476
     10 C          -0.6267    2.7790   24.2794 C.3     1  UNL1        0.0983
     11 N           0.7475    2.2715   23.9567 N.am    1  UNL1       -0.2760
     12 C           1.3611    2.5662   22.6200 C.2     1  UNL1        0.2420
     13 O           2.7353    2.0587   22.2973 O.2     1  UNL1       -0.2734
     14 C           3.0536   -0.3832   24.0067 C.3     1  UNL1        0.0021
     15 C           2.8822    0.9619   24.6479 C.3     1  UNL1        0.0224
     16 C           4.0851    1.7996   24.9665 C.3     1  UNL1        0.0021
     17 C           0.6005    3.3683   21.6060 C.3     1  UNL1        0.1552
     18 N           0.7412    3.0577   20.1453 N.3     1  UNL1       -0.2879
     19 H           1.7394    3.0716   19.9362 H       1  UNL1        0.1238
     20 C           0.2017    1.7699   19.5971 C.3     1  UNL1        0.0961
     21 C           0.9900    0.5025   19.7463 C.3     1  UNL1        0.1027
     22 O          -0.2297    0.1459   20.5432 O.3     1  UNL1       -0.3854
     23 C           1.9359    1.2993   18.8975 C.3     1  UNL1        0.0283
     24 C           3.2466    0.7048   18.4747 C.3     1  UNL1        0.0024
     25 C           3.6113   -0.6864   18.9007 C.3     1  UNL1        0.0002
     26 C           2.6654   -1.4832   19.7494 C.3     1  UNL1        0.0024
     27 C           1.3548   -0.8887   20.1722 C.3     1  UNL1        0.0283
     28 H          -0.8496    0.8920   20.5370 H       1  UNL1        0.2103
@<TRIPOS>BOND
     1    14    15    1
     2    15    16    1
     3    15     1    1
     4     1     2    1
     5     2     3   ar
     6     3     4   ar
     7     4     5    1
     8     4     6   ar
     9     6     7   ar
    10     7     8   ar
    11     8     9    1
    12     9    10    1
    13    10    11    1
    14    11    12   am
    15    12    13    2
    16    12    17    1
    17    17    18    1
    18    18    20    1
    19    20    21    1
    20    21    22    1
    21    21    23    1
    22    23    24    1
    23    24    25    1
    24    25    26    1
    25    26    27    1
    26    11     1    1
    27    27    21    1
    28     8     2   ar
    29    18    19    1
    30    22    28    1
