@<TRIPOS>MOLECULE
*****
 28 31 0 0 0
SMALL
GASTEIGER

@<TRIPOS>ATOM
      1 C         -10.3170  -17.5976   24.1746 C.ar    1  UNL1        0.0366
      2 C          -9.0016  -17.4986   23.4606 C.ar    1  UNL1       -0.0012
      3 C          -8.2572  -18.7452   23.0836 C.ar    1  UNL1       -0.0223
      4 C          -8.8284  -20.0906   23.4204 C.ar    1  UNL1       -0.0012
      5 C         -10.1438  -20.1895   24.1344 C.ar    1  UNL1        0.0366
      6 C         -10.8881  -18.9430   24.5114 C.ar    1  UNL1        0.1385
      7 C          -6.9417  -18.6462   22.3696 C.3     1  UNL1        0.0224
      8 C          -5.7850  -17.9486   23.0218 C.3     1  UNL1        0.0057
      9 C          -4.4696  -17.8496   22.3079 C.3     1  UNL1        0.0163
     10 C          -4.3107  -18.4483   20.9417 C.3     1  UNL1        0.0577
     11 C          -5.4674  -19.1459   20.2895 C.3     1  UNL1        0.0163
     12 C          -6.7829  -19.2449   21.0035 C.3     1  UNL1        0.0057
     13 N          -2.9953  -18.3493   20.2278 N.3     1  UNL1       -0.2698
     14 C          -2.9434  -17.8387   18.8183 C.3     1  UNL1        0.1046
     15 C          -1.6279  -17.7397   18.1044 C.3     1  UNL1        0.1595
     16 O          -0.3642  -18.1513   18.8000 O.3     1  UNL1       -0.3508
     17 C          -0.4161  -18.6619   20.2095 C.3     1  UNL1        0.1595
     18 C          -1.7317  -18.7609   20.9234 C.3     1  UNL1        0.1046
     19 O         -12.2037  -19.0420   25.2254 O.3     1  UNL1       -0.4754
     20 C         -13.4640  -18.6047   24.5395 C.3     1  UNL1        0.2068
     21 C         -13.4219  -17.4989   23.5270 C.3     1  UNL1        0.0646
     22 C         -13.5549  -17.8138   22.0665 C.3     1  UNL1        0.0759
     23 N         -12.3317  -18.0995   21.2465 N.3     1  UNL1       -0.2726
     24 C         -11.8138  -19.5029   21.1359 C.3     1  UNL1        0.0721
     25 C         -10.5907  -19.7886   20.3160 C.3     1  UNL1        0.0174
     26 C          -9.8855  -18.6708   19.6066 C.3     1  UNL1        0.0029
     27 C         -10.4034  -17.2674   19.7171 C.3     1  UNL1        0.0174
     28 C         -11.6265  -16.9817   20.5371 C.3     1  UNL1        0.0721
@<TRIPOS>BOND
     1     1     2   ar
     2     2     3   ar
     3     7     3    1
     4     7     8    1
     5     8     9    1
     6     9    10    1
     7    10    13    1
     8    13    14    1
     9    14    15    1
    10    15    16    1
    11    16    17    1
    12    17    18    1
    13    10    11    1
    14    11    12    1
    15     3     4   ar
    16     4     5   ar
    17     5     6   ar
    18     6    19    1
    19    19    20    1
    20    20    21    1
    21    21    22    1
    22    22    23    1
    23    23    24    1
    24    24    25    1
    25    25    26    1
    26    26    27    1
    27    27    28    1
    28     6     1   ar
    29    28    23    1
    30    12     7    1
    31    18    13    1
@<TRIPOS>MOLECULE
*****
 28 31 0 0 0
SMALL
GASTEIGER

@<TRIPOS>ATOM
      1 C           4.4015   -2.2870   22.6662 C.ar    1  UNL1        0.0366
      2 C           3.4714   -1.2068   22.1994 C.ar    1  UNL1       -0.0012
      3 C           2.9384   -1.2301   20.7976 C.ar    1  UNL1       -0.0223
      4 C           3.3354   -2.3336   19.8624 C.ar    1  UNL1       -0.0012
      5 C           4.2655   -3.4139   20.3292 C.ar    1  UNL1        0.0366
      6 C           4.7986   -3.3906   21.7311 C.ar    1  UNL1        0.1385
      7 C           2.0083   -0.1497   20.3308 C.3     1  UNL1        0.0224
      8 C           1.9984    0.2596   18.8878 C.3     1  UNL1        0.0057
      9 C           1.0683    1.3399   18.4210 C.3     1  UNL1        0.0163
     10 C           0.1481    2.0109   19.3973 C.3     1  UNL1        0.0577
     11 C           0.1580    1.6015   20.8403 C.3     1  UNL1        0.0163
     12 C           1.0881    0.5212   21.3070 C.3     1  UNL1        0.0057
     13 N          -0.7820    3.0912   18.9305 N.3     1  UNL1       -0.2698
     14 C          -1.8459    3.6138   19.8497 C.3     1  UNL1        0.1046
     15 C          -2.7760    4.6941   19.3829 C.3     1  UNL1        0.1595
     16 O          -2.6422    5.2518   17.9969 O.3     1  UNL1       -0.3508
     17 C          -1.5783    4.7292   17.0776 C.3     1  UNL1        0.1595
     18 C          -0.6482    3.6488   17.5445 C.3     1  UNL1        0.1046
     19 O           5.7287   -4.4709   22.1979 O.3     1  UNL1       -0.4754
     20 C           7.2110   -4.2417   22.1848 C.3     1  UNL1        0.2068
     21 C           7.9535   -4.2098   20.8819 C.3     1  UNL1        0.0646
     22 C           8.5015   -2.9136   20.3625 C.3     1  UNL1        0.0759
     23 N           7.5751   -1.8868   19.7816 N.3     1  UNL1       -0.2726
     24 C           7.1197   -0.7284   20.6187 C.3     1  UNL1        0.0721
     25 C           6.1934    0.2984   20.0379 C.3     1  UNL1        0.0174
     26 C           5.7223    0.1669   18.6199 C.3     1  UNL1        0.0029
     27 C           6.1777   -0.9915   17.7827 C.3     1  UNL1        0.0174
     28 C           7.1041   -2.0183   18.3636 C.3     1  UNL1        0.0721
@<TRIPOS>BOND
     1     1     2   ar
     2     2     3   ar
     3     7     3    1
     4     7     8    1
     5     8     9    1
     6     9    10    1
     7    10    13    1
     8    13    14    1
     9    14    15    1
    10    15    16    1
    11    16    17    1
    12    17    18    1
    13    10    11    1
    14    11    12    1
    15     3     4   ar
    16     4     5   ar
    17     5     6   ar
    18     6    19    1
    19    19    20    1
    20    20    21    1
    21    21    22    1
    22    22    23    1
    23    23    24    1
    24    24    25    1
    25    25    26    1
    26    26    27    1
    27    27    28    1
    28     6     1   ar
    29    28    23    1
    30    12     7    1
    31    18    13    1
@<TRIPOS>MOLECULE
*****
 28 31 0 0 0
SMALL
GASTEIGER

@<TRIPOS>ATOM
      1 C           7.9460   -1.7242   19.2392 C.ar    1  UNL1        0.0366
      2 C           8.1716   -2.4743   20.5184 C.ar    1  UNL1       -0.0012
      3 C           7.2044   -3.5389   20.9441 C.ar    1  UNL1       -0.0223
      4 C           6.0117   -3.8534   20.0906 C.ar    1  UNL1       -0.0012
      5 C           5.7862   -3.1033   18.8114 C.ar    1  UNL1        0.0366
      6 C           6.7533   -2.0388   18.3857 C.ar    1  UNL1        0.1385
      7 C           7.4300   -4.2889   22.2234 C.3     1  UNL1        0.0224
      8 C           6.6728   -3.9065   23.4606 C.3     1  UNL1        0.0057
      9 C           6.8984   -4.6565   24.7398 C.3     1  UNL1        0.0163
     10 C           7.8812   -5.7890   24.7820 C.3     1  UNL1        0.0577
     11 C           8.6383   -6.1714   23.5449 C.3     1  UNL1        0.0163
     12 C           8.4127   -5.4214   22.2656 C.3     1  UNL1        0.0057
     13 N           8.1067   -6.5390   26.0613 N.3     1  UNL1       -0.2698
     14 C           8.1873   -8.0368   26.0484 C.3     1  UNL1        0.1046
     15 C           8.4129   -8.7868   27.3277 C.3     1  UNL1        0.1595
     16 O           8.5578   -8.0390   28.6199 O.3     1  UNL1       -0.3508
     17 C           8.4772   -6.5413   28.6328 C.3     1  UNL1        0.1595
     18 C           8.2516   -5.7913   27.3535 C.3     1  UNL1        0.1046
     19 O           6.5277   -1.2887   17.1063 O.3     1  UNL1       -0.4754
     20 C           6.5621    0.2109   17.1001 C.3     1  UNL1        0.2068
     21 C           5.3356    0.9907   17.4710 C.3     1  UNL1        0.0646
     22 C           5.0966    1.3778   18.9003 C.3     1  UNL1        0.0759
     23 N           4.5770    0.3632   19.8753 N.3     1  UNL1       -0.2726
     24 C           5.3204    0.0996   21.1511 C.3     1  UNL1        0.0721
     25 C           4.8008   -0.9150   22.1261 C.3     1  UNL1        0.0174
     26 C           3.5378   -1.6660   21.8252 C.3     1  UNL1        0.0029
     27 C           2.7943   -1.4025   20.5493 C.3     1  UNL1        0.0174
     28 C           3.3139   -0.3879   19.5744 C.3     1  UNL1        0.0721
@<TRIPOS>BOND
     1     1     2   ar
     2     2     3   ar
     3     7     3    1
     4     7     8    1
     5     8     9    1
     6     9    10    1
     7    10    13    1
     8    13    14    1
     9    14    15    1
    10    15    16    1
    11    16    17    1
    12    17    18    1
    13    10    11    1
    14    11    12    1
    15     3     4   ar
    16     4     5   ar
    17     5     6   ar
    18     6    19    1
    19    19    20    1
    20    20    21    1
    21    21    22    1
    22    22    23    1
    23    23    24    1
    24    24    25    1
    25    25    26    1
    26    26    27    1
    27    27    28    1
    28     6     1   ar
    29    28    23    1
    30    12     7    1
    31    18    13    1
@<TRIPOS>MOLECULE
*****
 28 31 0 0 0
SMALL
GASTEIGER

@<TRIPOS>ATOM
      1 C           4.2090   -3.1880   19.8937 C.ar    1  UNL1        0.0366
      2 C           3.2168   -2.0988   19.6125 C.ar    1  UNL1       -0.0012
      3 C           2.8375   -1.1320   20.6949 C.ar    1  UNL1       -0.0223
      4 C           3.4504   -1.2545   22.0584 C.ar    1  UNL1       -0.0012
      5 C           4.4426   -2.3437   22.3396 C.ar    1  UNL1        0.0366
      6 C           4.8219   -3.3105   21.2572 C.ar    1  UNL1        0.1385
      7 C           1.8453   -0.0428   20.4136 C.3     1  UNL1        0.0224
      8 C           1.0890    0.5926   21.5425 C.3     1  UNL1        0.0057
      9 C           0.0968    1.6818   21.2614 C.3     1  UNL1        0.0163
     10 C          -0.1391    2.1357   19.8512 C.3     1  UNL1        0.0577
     11 C           0.6172    1.5004   18.7224 C.3     1  UNL1        0.0163
     12 C           1.6094    0.4111   19.0036 C.3     1  UNL1        0.0057
     13 N          -1.1313    3.2250   19.5701 N.3     1  UNL1       -0.2698
     14 C          -0.9229    4.1470   18.4054 C.3     1  UNL1        0.1046
     15 C          -1.9151    5.2362   18.1242 C.3     1  UNL1        0.1595
     16 O          -3.1158    5.4035   19.0078 O.3     1  UNL1       -0.3508
     17 C          -3.3242    4.4814   20.1724 C.3     1  UNL1        0.1595
     18 C          -2.3319    3.3922   20.4536 C.3     1  UNL1        0.1046
     19 O           5.8141   -4.3998   21.5384 O.3     1  UNL1       -0.4754
     20 C           7.2176   -4.2877   21.0211 C.3     1  UNL1        0.2068
     21 C           7.8791   -2.9444   20.9320 C.3     1  UNL1        0.0646
     22 C           8.0263   -2.2676   19.6015 C.3     1  UNL1        0.0759
     23 N           7.0531   -1.2029   19.1899 N.3     1  UNL1       -0.2726
     24 C           6.4991   -1.1916   17.7960 C.3     1  UNL1        0.0721
     25 C           5.5260   -0.1270   17.3843 C.3     1  UNL1        0.0174
     26 C           5.1068    0.9263   18.3665 C.3     1  UNL1        0.0029
     27 C           5.6608    0.9150   19.7604 C.3     1  UNL1        0.0174
     28 C           6.6339   -0.1496   20.1721 C.3     1  UNL1        0.0721
@<TRIPOS>BOND
     1     1     2   ar
     2     2     3   ar
     3     7     3    1
     4     7     8    1
     5     8     9    1
     6     9    10    1
     7    10    13    1
     8    13    14    1
     9    14    15    1
    10    15    16    1
    11    16    17    1
    12    17    18    1
    13    10    11    1
    14    11    12    1
    15     3     4   ar
    16     4     5   ar
    17     5     6   ar
    18     6    19    1
    19    19    20    1
    20    20    21    1
    21    21    22    1
    22    22    23    1
    23    23    24    1
    24    24    25    1
    25    25    26    1
    26    26    27    1
    27    27    28    1
    28     6     1   ar
    29    28    23    1
    30    12     7    1
    31    18    13    1
@<TRIPOS>MOLECULE
*****
 28 31 0 0 0
SMALL
GASTEIGER

@<TRIPOS>ATOM
      1 C         -10.8066   -2.7027   18.4812 C.ar    1  UNL1        0.0366
      2 C         -11.8305   -1.7241   18.9752 C.ar    1  UNL1       -0.0012
      3 C         -13.2005   -1.6998   18.3648 C.ar    1  UNL1       -0.0223
      4 C         -13.5466   -2.6540   17.2605 C.ar    1  UNL1       -0.0012
      5 C         -12.5227   -3.6326   16.7665 C.ar    1  UNL1        0.0366
      6 C         -11.1527   -3.6569   17.3769 C.ar    1  UNL1        0.1385
      7 C         -14.2244   -0.7212   18.8589 C.3     1  UNL1        0.0224
      8 C         -14.0882    0.7363   18.5314 C.3     1  UNL1        0.0057
      9 C         -15.1120    1.7148   19.0254 C.3     1  UNL1        0.0163
     10 C         -16.2722    1.2360   19.8469 C.3     1  UNL1        0.0577
     11 C         -16.4085   -0.2215   20.1743 C.3     1  UNL1        0.0163
     12 C         -15.3845   -1.2001   19.6803 C.3     1  UNL1        0.0057
     13 N         -17.2960    2.2146   20.3409 N.3     1  UNL1       -0.2698
     14 C         -18.0436    1.9404   21.6121 C.3     1  UNL1        0.1046
     15 C         -19.0674    2.9189   22.1061 C.3     1  UNL1        0.1595
     16 O         -19.3438    4.1718   21.3288 O.3     1  UNL1       -0.3508
     17 C         -18.5962    4.4460   20.0576 C.3     1  UNL1        0.1595
     18 C         -17.5723    3.4674   19.5636 C.3     1  UNL1        0.1046
     19 O         -10.1288   -4.6355   16.8828 O.3     1  UNL1       -0.4754
     20 C          -9.6777   -5.7597   17.7675 C.3     1  UNL1        0.2068
     21 C         -10.5479   -6.2185   18.8998 C.3     1  UNL1        0.0646
     22 C         -11.8379   -6.9287   18.6142 C.3     1  UNL1        0.0759
     23 N         -13.1446   -6.2786   18.9607 N.3     1  UNL1       -0.2726
     24 C         -13.2027   -5.2419   20.0432 C.3     1  UNL1        0.0721
     25 C         -14.5094   -4.5919   20.3898 C.3     1  UNL1        0.0174
     26 C         -15.7578   -4.9785   19.6537 C.3     1  UNL1        0.0029
     27 C         -15.6997   -6.0152   18.5712 C.3     1  UNL1        0.0174
     28 C         -14.3931   -6.6653   18.2247 C.3     1  UNL1        0.0721
@<TRIPOS>BOND
     1     1     2   ar
     2     2     3   ar
     3     7     3    1
     4     7     8    1
     5     8     9    1
     6     9    10    1
     7    10    13    1
     8    13    14    1
     9    14    15    1
    10    15    16    1
    11    16    17    1
    12    17    18    1
    13    10    11    1
    14    11    12    1
    15     3     4   ar
    16     4     5   ar
    17     5     6   ar
    18     6    19    1
    19    19    20    1
    20    20    21    1
    21    21    22    1
    22    22    23    1
    23    23    24    1
    24    24    25    1
    25    25    26    1
    26    26    27    1
    27    27    28    1
    28     6     1   ar
    29    28    23    1
    30    12     7    1
    31    18    13    1
@<TRIPOS>MOLECULE
*****
 28 31 0 0 0
SMALL
GASTEIGER

@<TRIPOS>ATOM
      1 C         -13.7203   -5.4028   19.8128 C.ar    1  UNL1        0.0366
      2 C         -13.7468   -3.9035   19.7742 C.ar    1  UNL1       -0.0012
      3 C         -14.9416   -3.1886   19.2164 C.ar    1  UNL1       -0.0223
      4 C         -16.1101   -3.9729   18.6973 C.ar    1  UNL1       -0.0012
      5 C         -16.0837   -5.4721   18.7359 C.ar    1  UNL1        0.0366
      6 C         -14.8888   -6.1871   19.2937 C.ar    1  UNL1        0.1385
      7 C         -14.9680   -1.6893   19.1778 C.3     1  UNL1        0.0224
      8 C         -16.0809   -0.9412   19.8502 C.3     1  UNL1        0.0057
      9 C         -16.1073    0.5580   19.8116 C.3     1  UNL1        0.0163
     10 C         -15.0208    1.3093   19.1007 C.3     1  UNL1        0.0577
     11 C         -13.9080    0.5612   18.4284 C.3     1  UNL1        0.0163
     12 C         -13.8816   -0.9381   18.4670 C.3     1  UNL1        0.0057
     13 N         -15.0473    2.8085   19.0621 N.3     1  UNL1       -0.2698
     14 C         -14.5968    3.5351   17.8296 C.3     1  UNL1        0.1046
     15 C         -14.6233    5.0344   17.7910 C.3     1  UNL1        0.1595
     16 O         -15.1001    5.8071   18.9850 O.3     1  UNL1       -0.3508
     17 C         -15.5506    5.0805   20.2176 C.3     1  UNL1        0.1595
     18 C         -15.5241    3.5812   20.2561 C.3     1  UNL1        0.1046
     19 O         -14.8624   -7.6864   19.3323 O.3     1  UNL1       -0.4754
     20 C         -14.1146   -8.4506   18.2803 C.3     1  UNL1        0.2068
     21 C         -13.8155   -7.8095   16.9576 C.3     1  UNL1        0.0646
     22 C         -12.3931   -7.6100   16.5254 C.3     1  UNL1        0.0759
     23 N         -11.5113   -6.6497   17.2675 N.3     1  UNL1       -0.2726
     24 C         -11.5227   -5.1926   16.9116 C.3     1  UNL1        0.0721
     25 C         -10.6411   -4.2324   17.6536 C.3     1  UNL1        0.0174
     26 C          -9.7480   -4.7293   18.7516 C.3     1  UNL1        0.0029
     27 C          -9.7367   -6.1864   19.1075 C.3     1  UNL1        0.0174
     28 C         -10.6183   -7.1467   18.3655 C.3     1  UNL1        0.0721
@<TRIPOS>BOND
     1     1     2   ar
     2     2     3   ar
     3     7     3    1
     4     7     8    1
     5     8     9    1
     6     9    10    1
     7    10    13    1
     8    13    14    1
     9    14    15    1
    10    15    16    1
    11    16    17    1
    12    17    18    1
    13    10    11    1
    14    11    12    1
    15     3     4   ar
    16     4     5   ar
    17     5     6   ar
    18     6    19    1
    19    19    20    1
    20    20    21    1
    21    21    22    1
    22    22    23    1
    23    23    24    1
    24    24    25    1
    25    25    26    1
    26    26    27    1
    27    27    28    1
    28     6     1   ar
    29    28    23    1
    30    12     7    1
    31    18    13    1
@<TRIPOS>MOLECULE
*****
 28 31 0 0 0
SMALL
GASTEIGER

@<TRIPOS>ATOM
      1 C           7.0137   -2.4769   20.1414 C.ar    1  UNL1        0.0366
      2 C           7.1496   -2.6552   21.6245 C.ar    1  UNL1       -0.0012
      3 C           6.0534   -3.3195   22.4036 C.ar    1  UNL1       -0.0223
      4 C           4.8213   -3.8056   21.6996 C.ar    1  UNL1       -0.0012
      5 C           4.6855   -3.6274   20.2165 C.ar    1  UNL1        0.0366
      6 C           5.7817   -2.9630   19.4374 C.ar    1  UNL1        0.1385
      7 C           6.1893   -3.4977   23.8869 C.3     1  UNL1        0.0224
      8 C           5.7351   -2.4124   24.8174 C.3     1  UNL1        0.0057
      9 C           5.8710   -2.5906   26.3005 C.3     1  UNL1        0.0163
     10 C           6.4611   -3.8541   26.8532 C.3     1  UNL1        0.0577
     11 C           6.9153   -4.9394   25.9227 C.3     1  UNL1        0.0163
     12 C           6.7794   -4.7612   24.4395 C.3     1  UNL1        0.0057
     13 N           6.5970   -4.0323   28.3363 N.3     1  UNL1       -0.2698
     14 C           6.8214   -5.3999   28.9100 C.3     1  UNL1        0.1046
     15 C           6.9572   -5.5781   30.3932 C.3     1  UNL1        0.1595
     16 O           6.8688   -4.3885   31.3027 O.3     1  UNL1       -0.3508
     17 C           6.6444   -3.0209   30.7290 C.3     1  UNL1        0.1595
     18 C           6.5085   -2.8427   29.2458 C.3     1  UNL1        0.1046
     19 O           5.6457   -2.7848   17.9542 O.3     1  UNL1       -0.4754
     20 C           5.4358   -1.4153   17.3795 C.3     1  UNL1        0.2068
     21 C           4.0454   -0.8806   17.2038 C.3     1  UNL1        0.0646
     22 C           3.5376    0.2009   18.1107 C.3     1  UNL1        0.0759
     23 N           3.6247    0.0341   19.5989 N.3     1  UNL1       -0.2726
     24 C           2.5158   -0.6487   20.3432 C.3     1  UNL1        0.0721
     25 C           2.6028   -0.8155   21.8313 C.3     1  UNL1        0.0174
     26 C           3.7988   -0.2995   22.5751 C.3     1  UNL1        0.0029
     27 C           4.9077    0.3834   21.8308 C.3     1  UNL1        0.0174
     28 C           4.8207    0.5501   20.3427 C.3     1  UNL1        0.0721
@<TRIPOS>BOND
     1     1     2   ar
     2     2     3   ar
     3     7     3    1
     4     7     8    1
     5     8     9    1
     6     9    10    1
     7    10    13    1
     8    13    14    1
     9    14    15    1
    10    15    16    1
    11    16    17    1
    12    17    18    1
    13    10    11    1
    14    11    12    1
    15     3     4   ar
    16     4     5   ar
    17     5     6   ar
    18     6    19    1
    19    19    20    1
    20    20    21    1
    21    21    22    1
    22    22    23    1
    23    23    24    1
    24    24    25    1
    25    25    26    1
    26    26    27    1
    27    27    28    1
    28     6     1   ar
    29    28    23    1
    30    12     7    1
    31    18    13    1
@<TRIPOS>MOLECULE
*****
 28 31 0 0 0
SMALL
GASTEIGER

@<TRIPOS>ATOM
      1 C         -11.9274   -5.3369   19.6938 C.ar    1  UNL1        0.0366
      2 C         -12.7889   -4.1113   19.6194 C.ar    1  UNL1       -0.0012
      3 C         -12.2613   -2.8613   18.9798 C.ar    1  UNL1       -0.0223
      4 C         -10.8722   -2.8369   18.4145 C.ar    1  UNL1       -0.0012
      5 C         -10.0106   -4.0625   18.4889 C.ar    1  UNL1        0.0366
      6 C         -10.5382   -5.3125   19.1285 C.ar    1  UNL1        0.1385
      7 C         -13.1230   -1.6356   18.9054 C.3     1  UNL1        0.0224
      8 C         -12.5595   -0.3543   18.3662 C.3     1  UNL1        0.0057
      9 C         -13.4210    0.8713   18.2919 C.3     1  UNL1        0.0163
     10 C         -14.8462    0.8156   18.7567 C.3     1  UNL1        0.0577
     11 C         -15.4097   -0.4657   19.2959 C.3     1  UNL1        0.0163
     12 C         -14.5480   -1.6913   19.3702 C.3     1  UNL1        0.0057
     13 N         -15.7077    2.0412   18.6823 N.3     1  UNL1       -0.2698
     14 C         -15.9304    2.8770   19.9078 C.3     1  UNL1        0.1046
     15 C         -16.7920    4.1026   19.8335 C.3     1  UNL1        0.1595
     16 O         -17.4309    4.4925   18.5335 O.3     1  UNL1       -0.3508
     17 C         -17.2082    3.6567   17.3080 C.3     1  UNL1        0.1595
     18 C         -16.3466    2.4311   17.3824 C.3     1  UNL1        0.1046
     19 O          -9.6766   -6.5381   19.2029 O.3     1  UNL1       -0.4754
     20 C          -9.6182   -7.4854   18.0413 C.3     1  UNL1        0.2068
     21 C         -10.8867   -8.0126   17.4390 C.3     1  UNL1        0.0646
     22 C         -11.5210   -7.2988   16.2822 C.3     1  UNL1        0.0759
     23 N         -12.7613   -6.4821   16.4938 N.3     1  UNL1       -0.2726
     24 C         -13.9386   -7.0774   17.2075 C.3     1  UNL1        0.0721
     25 C         -15.1789   -6.2608   17.4191 C.3     1  UNL1        0.0174
     26 C         -15.2418   -4.8488   16.9169 C.3     1  UNL1        0.0029
     27 C         -14.0644   -4.2534   16.2032 C.3     1  UNL1        0.0174
     28 C         -12.8242   -5.0700   15.9917 C.3     1  UNL1        0.0721
@<TRIPOS>BOND
     1     1     2   ar
     2     2     3   ar
     3     7     3    1
     4     7     8    1
     5     8     9    1
     6     9    10    1
     7    10    13    1
     8    13    14    1
     9    14    15    1
    10    15    16    1
    11    16    17    1
    12    17    18    1
    13    10    11    1
    14    11    12    1
    15     3     4   ar
    16     4     5   ar
    17     5     6   ar
    18     6    19    1
    19    19    20    1
    20    20    21    1
    21    21    22    1
    22    22    23    1
    23    23    24    1
    24    24    25    1
    25    25    26    1
    26    26    27    1
    27    27    28    1
    28     6     1   ar
    29    28    23    1
    30    12     7    1
    31    18    13    1
@<TRIPOS>MOLECULE
*****
 28 31 0 0 0
SMALL
GASTEIGER

@<TRIPOS>ATOM
      1 C           8.9503   -8.0078   25.5227 C.ar    1  UNL1        0.0366
      2 C           8.6347   -7.1012   24.3702 C.ar    1  UNL1       -0.0012
      3 C           7.7553   -5.9038   24.5768 C.ar    1  UNL1       -0.0223
      4 C           7.1915   -5.6129   25.9360 C.ar    1  UNL1       -0.0012
      5 C           7.5071   -6.5195   27.0885 C.ar    1  UNL1        0.0366
      6 C           8.3865   -7.7169   26.8819 C.ar    1  UNL1        0.1385
      7 C           7.4397   -4.9972   23.4241 C.3     1  UNL1        0.0224
      8 C           6.2545   -4.0804   23.4937 C.3     1  UNL1        0.0057
      9 C           5.9389   -3.1739   22.3411 C.3     1  UNL1        0.0163
     10 C           6.8085   -3.1840   21.1189 C.3     1  UNL1        0.0577
     11 C           7.9938   -4.1007   21.0494 C.3     1  UNL1        0.0163
     12 C           8.3094   -5.0073   22.2020 C.3     1  UNL1        0.0057
     13 N           6.4929   -2.2774   19.9663 N.3     1  UNL1       -0.2698
     14 C           7.5824   -1.4662   19.3300 C.3     1  UNL1        0.1046
     15 C           7.2668   -0.5596   18.1774 C.3     1  UNL1        0.1595
     16 O           5.8616   -0.4642   17.6611 O.3     1  UNL1       -0.3508
     17 C           4.7722   -1.2754   18.2974 C.3     1  UNL1        0.1595
     18 C           5.0878   -2.1821   19.4501 C.3     1  UNL1        0.1046
     19 O           8.7021   -8.6235   28.0346 O.3     1  UNL1       -0.4754
     20 C           8.4650  -10.0998   27.9144 C.3     1  UNL1        0.2068
     21 C           7.0686  -10.6250   27.7590 C.3     1  UNL1        0.0646
     22 C           6.7046  -11.9663   28.3232 C.3     1  UNL1        0.0759
     23 N           5.2925  -12.4628   28.2257 N.3     1  UNL1       -0.2726
     24 C           4.3062  -12.1360   29.3076 C.3     1  UNL1        0.0721
     25 C           2.8942  -12.6325   29.2101 C.3     1  UNL1        0.0174
     26 C           2.4684  -13.4558   28.0308 C.3     1  UNL1        0.0029
     27 C           3.4547  -13.7827   26.9490 C.3     1  UNL1        0.0174
     28 C           4.8668  -13.2862   27.0464 C.3     1  UNL1        0.0721
@<TRIPOS>BOND
     1     1     2   ar
     2     2     3   ar
     3     7     3    1
     4     7     8    1
     5     8     9    1
     6     9    10    1
     7    10    13    1
     8    13    14    1
     9    14    15    1
    10    15    16    1
    11    16    17    1
    12    17    18    1
    13    10    11    1
    14    11    12    1
    15     3     4   ar
    16     4     5   ar
    17     5     6   ar
    18     6    19    1
    19    19    20    1
    20    20    21    1
    21    21    22    1
    22    22    23    1
    23    23    24    1
    24    24    25    1
    25    25    26    1
    26    26    27    1
    27    27    28    1
    28     6     1   ar
    29    28    23    1
    30    12     7    1
    31    18    13    1
