@<TRIPOS>MOLECULE
*****
 32 33 0 0 0
SMALL
GASTEIGER

@<TRIPOS>ATOM
      1 C          -8.6099  -18.5272   22.1619 C.ar    1  UNL1       -0.0185
      2 C          -9.5426  -19.6955   22.0391 C.ar    1  UNL1       -0.0041
      3 C         -10.9387  -19.6007   22.5793 C.ar    1  UNL1        0.0057
      4 C         -11.4021  -18.3376   23.2425 C.ar    1  UNL1        0.0696
      5 C         -10.4694  -17.1693   23.3654 C.ar    1  UNL1        0.0095
      6 C          -9.0733  -17.2641   22.8251 C.ar    1  UNL1        0.0677
      7 C          -3.0255  -18.9064   20.0008 C.2     1  UNL1        0.2247
      8 O          -2.8005  -19.2779   18.5651 O.2     1  UNL1       -0.2749
      9 N          -4.4216  -18.8116   20.5411 N.am    1  UNL1       -0.2795
     10 C          -4.6465  -18.4402   21.9768 C.3     1  UNL1        0.0937
     11 C          -6.0426  -18.3454   22.5171 C.3     1  UNL1        0.0259
     12 C          -7.2138  -18.6220   21.6217 C.3     1  UNL1        0.0257
     13 C          -6.9888  -18.9934   20.1859 C.3     1  UNL1        0.0259
     14 C          -5.5927  -19.0882   19.6456 C.3     1  UNL1        0.0937
     15 C          -2.0485  -19.9603   21.5612 C.3     1  UNL1        0.0091
     16 C          -1.8543  -18.6298   20.8963 C.3     1  UNL1        0.0691
     17 C          -1.6602  -17.2994   20.2314 C.3     1  UNL1        0.0091
     18 C          -0.6831  -18.3531   21.7917 C.3     1  UNL1        0.0091
     19 C         -12.7982  -18.2428   23.7828 C.2     1  UNL1        0.3078
     20 O         -13.9132  -17.7656   22.9002 O.2     1  UNL1       -0.2516
     21 N         -13.0793  -18.6252   25.2057 N.am    1  UNL1       -0.1708
     22 H         -12.3475  -18.9384   25.7850 H       1  UNL1        0.2545
     23 C         -14.4754  -18.5304   25.7460 C.2     1  UNL1        0.3751
     24 N         -15.6472  -18.7874   24.8455 N.pl3   1  UNL1       -0.1313
     25 N         -14.6998  -18.1786   27.1868 N.pl3   1  UNL1       -0.2906
     26 H         -15.4999  -19.0182   23.8998 H       1  UNL1        0.3060
     27 H         -13.9307  -18.0100   27.7779 H       1  UNL1        0.2545
     28 H         -15.6161  -18.1164   27.5414 H       1  UNL1        0.2545
     29 C          -8.1406  -16.0958   22.9480 C.3     1  UNL1        0.4183
     30 F          -7.2079  -14.9274   23.0709 F       1  UNL1       -0.1659
     31 F          -7.8100  -16.5073   24.3520 F       1  UNL1       -0.1659
     32 F          -8.4712  -15.6842   21.5440 F       1  UNL1       -0.1659
@<TRIPOS>BOND
     1    15    16    1
     2    16    17    1
     3    16    18    1
     4    16     7    1
     5     7     8    2
     6     7     9   am
     7     9    10    1
     8    10    11    1
     9    11    12    1
    10    12     1    1
    11     1     2   ar
    12     2     3   ar
    13     3     4   ar
    14     4    19    1
    15    19    20    2
    16    19    21   am
    17    21    23    1
    18    23    24    2
    19    23    25    1
    20     4     5   ar
    21     5     6   ar
    22     6    29    1
    23    29    30    1
    24    29    31    1
    25    29    32    1
    26    12    13    1
    27    13    14    1
    28    14     9    1
    29     6     1   ar
    30    21    22    1
    31    24    26    1
    32    25    27    1
    33    25    28    1
@<TRIPOS>MOLECULE
*****
 32 33 0 0 0
SMALL
GASTEIGER

@<TRIPOS>ATOM
      1 C          -8.1359  -18.4619   22.4540 C.ar    1  UNL1       -0.0185
      2 C          -9.0189  -19.6608   22.2729 C.ar    1  UNL1       -0.0041
      3 C         -10.4640  -19.5946   22.6696 C.ar    1  UNL1        0.0057
      4 C         -11.0260  -18.3296   23.2474 C.ar    1  UNL1        0.0696
      5 C         -10.1429  -17.1308   23.4284 C.ar    1  UNL1        0.0095
      6 C          -8.6979  -17.1969   23.0317 C.ar    1  UNL1        0.0677
      7 C          -2.3556  -18.7265   20.8671 C.2     1  UNL1        0.2247
      8 O          -1.3149  -19.0931   21.8832 O.2     1  UNL1       -0.2749
      9 N          -3.8006  -18.6603   21.2638 N.am    1  UNL1       -0.2795
     10 C          -4.8413  -18.2937   20.2477 C.3     1  UNL1        0.0937
     11 C          -6.2864  -18.2276   20.6444 C.3     1  UNL1        0.0259
     12 C          -6.6908  -18.5281   22.0572 C.3     1  UNL1        0.0257
     13 C          -5.6501  -18.8946   23.0734 C.3     1  UNL1        0.0259
     14 C          -4.2050  -18.9608   22.6766 C.3     1  UNL1        0.0937
     15 C          -1.0893  -17.2989   19.9406 C.3     1  UNL1        0.0091
     16 C          -1.9512  -18.4260   19.4543 C.3     1  UNL1        0.0691
     17 C          -2.8130  -19.5532   18.9679 C.3     1  UNL1        0.0091
     18 C          -1.5468  -18.1256   18.0413 C.3     1  UNL1        0.0091
     19 C         -12.4711  -18.2635   23.6441 C.2     1  UNL1        0.3078
     20 O         -13.4984  -17.7904   22.6589 O.2     1  UNL1       -0.2516
     21 N         -12.8888  -18.6704   25.0260 N.am    1  UNL1       -0.1708
     22 H         -12.2146  -18.9810   25.6727 H       1  UNL1        0.2545
     23 C         -14.3339  -18.6043   25.4228 C.2     1  UNL1        0.3751
     24 N         -14.7140  -18.6017   26.8738 N.pl3   1  UNL1       -0.1313
     25 N         -15.3990  -18.5408   24.3684 N.pl3   1  UNL1       -0.2906
     26 H         -14.0149  -18.6433   27.5658 H       1  UNL1        0.3060
     27 H         -15.1495  -18.5425   23.4160 H       1  UNL1        0.2545
     28 H         -16.3474  -18.4974   24.6287 H       1  UNL1        0.2545
     29 C          -7.8148  -15.9979   23.2128 C.3     1  UNL1        0.4183
     30 F          -6.9317  -14.7990   23.3938 F       1  UNL1       -0.1659
     31 F          -7.4909  -16.4470   24.6068 F       1  UNL1       -0.1659
     32 F          -8.1387  -15.5489   21.8187 F       1  UNL1       -0.1659
@<TRIPOS>BOND
     1    15    16    1
     2    16    17    1
     3    16    18    1
     4    16     7    1
     5     7     8    2
     6     7     9   am
     7     9    10    1
     8    10    11    1
     9    11    12    1
    10    12     1    1
    11     1     2   ar
    12     2     3   ar
    13     3     4   ar
    14     4    19    1
    15    19    20    2
    16    19    21   am
    17    21    23    1
    18    23    24    2
    19    23    25    1
    20     4     5   ar
    21     5     6   ar
    22     6    29    1
    23    29    30    1
    24    29    31    1
    25    29    32    1
    26    12    13    1
    27    13    14    1
    28    14     9    1
    29     6     1   ar
    30    21    22    1
    31    24    26    1
    32    25    27    1
    33    25    28    1
@<TRIPOS>MOLECULE
*****
 32 33 0 0 0
SMALL
GASTEIGER

@<TRIPOS>ATOM
      1 C           5.9631   -2.3194   32.5722 C.ar    1  UNL1       -0.0185
      2 C           4.6077   -2.5168   33.1836 C.ar    1  UNL1       -0.0041
      3 C           4.1124   -1.5660   34.2327 C.ar    1  UNL1        0.0057
      4 C           4.9726   -0.4178   34.6705 C.ar    1  UNL1        0.0696
      5 C           6.3280   -0.2204   34.0591 C.ar    1  UNL1        0.0095
      6 C           6.8233   -1.1712   33.0100 C.ar    1  UNL1        0.0677
      7 C           7.9442   -6.1225   28.3755 C.2     1  UNL1        0.2247
      8 O           8.4123   -7.4929   28.7662 O.2     1  UNL1       -0.2749
      9 N           7.4489   -5.1717   29.4247 N.am    1  UNL1       -0.2795
     10 C           6.9808   -3.8012   29.0340 C.3     1  UNL1        0.0937
     11 C           6.4855   -2.8505   30.0832 C.3     1  UNL1        0.0259
     12 C           6.4584   -3.2701   31.5230 C.3     1  UNL1        0.0257
     13 C           6.9265   -4.6406   31.9137 C.3     1  UNL1        0.0259
     14 C           7.4218   -5.5914   30.8645 C.3     1  UNL1        0.0937
     15 C           6.5754   -6.2224   26.7580 C.3     1  UNL1        0.0091
     16 C           7.9713   -5.7028   26.9357 C.3     1  UNL1        0.0691
     17 C           9.3671   -5.1832   27.1135 C.3     1  UNL1        0.0091
     18 C           7.9984   -5.2831   25.4958 C.3     1  UNL1        0.0091
     19 C           4.4773    0.5329   35.7197 C.2     1  UNL1        0.3078
     20 O           4.1555    1.9517   35.3543 O.2     1  UNL1       -0.2516
     21 N           4.3039    0.0650   37.1342 N.am    1  UNL1       -0.1708
     22 H           4.5151   -0.8662   37.3740 H       1  UNL1        0.2545
     23 C           3.8086    1.0157   38.1833 C.2     1  UNL1        0.3751
     24 N           2.9315    0.5172   39.2933 N.pl3   1  UNL1       -0.1313
     25 N           4.1906    2.4651   38.1225 N.pl3   1  UNL1       -0.2906
     26 H           2.6808   -0.4340   39.3332 H       1  UNL1        0.3060
     27 H           4.7663    2.7923   37.3940 H       1  UNL1        0.2545
     28 H           3.8655    3.0891   38.8111 H       1  UNL1        0.2545
     29 C           8.1787   -0.9737   32.3986 C.3     1  UNL1        0.4183
     30 F           9.5341   -0.7762   31.7872 F       1  UNL1       -0.1659
     31 F           8.7647   -1.9392   33.3857 F       1  UNL1       -0.1659
     32 F           7.5928   -0.0082   31.4115 F       1  UNL1       -0.1659
@<TRIPOS>BOND
     1    15    16    1
     2    16    17    1
     3    16    18    1
     4    16     7    1
     5     7     8    2
     6     7     9   am
     7     9    10    1
     8    10    11    1
     9    11    12    1
    10    12     1    1
    11     1     2   ar
    12     2     3   ar
    13     3     4   ar
    14     4    19    1
    15    19    20    2
    16    19    21   am
    17    21    23    1
    18    23    24    2
    19    23    25    1
    20     4     5   ar
    21     5     6   ar
    22     6    29    1
    23    29    30    1
    24    29    31    1
    25    29    32    1
    26    12    13    1
    27    13    14    1
    28    14     9    1
    29     6     1   ar
    30    21    22    1
    31    24    26    1
    32    25    27    1
    33    25    28    1
@<TRIPOS>MOLECULE
*****
 32 33 0 0 0
SMALL
GASTEIGER

@<TRIPOS>ATOM
      1 C           7.4368   -4.6016   24.5954 C.ar    1  UNL1       -0.0185
      2 C           7.6283   -6.0755   24.7975 C.ar    1  UNL1       -0.0041
      3 C           7.8222   -6.6240   26.1802 C.ar    1  UNL1        0.0057
      4 C           7.8245   -5.6985   27.3606 C.ar    1  UNL1        0.0696
      5 C           7.6330   -4.2246   27.1584 C.ar    1  UNL1        0.0095
      6 C           7.4392   -3.6762   25.7758 C.ar    1  UNL1        0.0677
      7 C           6.6615   -2.4079   19.0649 C.2     1  UNL1        0.2247
      8 O           7.8362   -2.2650   18.1432 O.2     1  UNL1       -0.2749
      9 N           6.8553   -2.9563   20.4475 N.am    1  UNL1       -0.2795
     10 C           5.6806   -3.0991   21.3692 C.3     1  UNL1        0.0937
     11 C           5.8745   -3.6476   22.7518 C.3     1  UNL1        0.0259
     12 C           7.2430   -4.0532   23.2128 C.3     1  UNL1        0.0257
     13 C           8.4177   -3.9104   22.2910 C.3     1  UNL1        0.0259
     14 C           8.2239   -3.3619   20.9084 C.3     1  UNL1        0.0937
     15 C           5.5972   -0.5762   18.9557 C.3     1  UNL1        0.0091
     16 C           5.2929   -2.0022   18.6040 C.3     1  UNL1        0.0691
     17 C           4.9887   -3.4283   18.2523 C.3     1  UNL1        0.0091
     18 C           3.9243   -1.5966   18.1430 C.3     1  UNL1        0.0091
     19 C           8.0184   -6.2470   28.7432 C.2     1  UNL1        0.3078
     20 O           8.6954   -7.5714   28.9366 O.2     1  UNL1       -0.2516
     21 N           7.5351   -5.4710   29.9325 N.am    1  UNL1       -0.1708
     22 H           7.0907   -4.6017   29.8055 H       1  UNL1        0.2545
     23 C           7.7290   -6.0195   31.3151 C.2     1  UNL1        0.3751
     24 N           6.5773   -6.0569   32.2753 N.pl3   1  UNL1       -0.1313
     25 N           9.0746   -6.5305   31.7374 N.pl3   1  UNL1       -0.2906
     26 H           5.6941   -5.7215   31.9982 H       1  UNL1        0.3060
     27 H           9.8305   -6.5059   31.1071 H       1  UNL1        0.2545
     28 H           9.2018   -6.8904   32.6448 H       1  UNL1        0.2545
     29 C           7.2477   -2.2022   25.5737 C.3     1  UNL1        0.4183
     30 F           7.0563   -0.7283   25.3715 F       1  UNL1       -0.1659
     31 F           5.7742   -2.3620   25.8042 F       1  UNL1       -0.1659
     32 F           8.7212   -2.0424   25.3432 F       1  UNL1       -0.1659
@<TRIPOS>BOND
     1    15    16    1
     2    16    17    1
     3    16    18    1
     4    16     7    1
     5     7     8    2
     6     7     9   am
     7     9    10    1
     8    10    11    1
     9    11    12    1
    10    12     1    1
    11     1     2   ar
    12     2     3   ar
    13     3     4   ar
    14     4    19    1
    15    19    20    2
    16    19    21   am
    17    21    23    1
    18    23    24    2
    19    23    25    1
    20     4     5   ar
    21     5     6   ar
    22     6    29    1
    23    29    30    1
    24    29    31    1
    25    29    32    1
    26    12    13    1
    27    13    14    1
    28    14     9    1
    29     6     1   ar
    30    21    22    1
    31    24    26    1
    32    25    27    1
    33    25    28    1
@<TRIPOS>MOLECULE
*****
 32 33 0 0 0
SMALL
GASTEIGER

@<TRIPOS>ATOM
      1 C           6.6080   -3.6683   24.6866 C.ar    1  UNL1       -0.0185
      2 C           7.1745   -5.0480   24.8456 C.ar    1  UNL1       -0.0041
      3 C           7.5995   -5.5329   26.2000 C.ar    1  UNL1        0.0057
      4 C           7.4581   -4.6379   27.3954 C.ar    1  UNL1        0.0696
      5 C           6.8917   -3.2581   27.2364 C.ar    1  UNL1        0.0095
      6 C           6.4666   -2.7733   25.8820 C.ar    1  UNL1        0.0677
      7 C           4.9078   -1.7290   19.2692 C.2     1  UNL1        0.2247
      8 O           3.5279   -2.0298   18.7640 O.2     1  UNL1       -0.2749
      9 N           5.3329   -2.2139   20.6236 N.am    1  UNL1       -0.2795
     10 C           6.7128   -1.9131   21.1288 C.3     1  UNL1        0.0937
     11 C           7.1379   -2.3979   22.4831 C.3     1  UNL1        0.0259
     12 C           6.1830   -3.1835   23.3323 C.3     1  UNL1        0.0257
     13 C           4.8030   -3.4842   22.8270 C.3     1  UNL1        0.0259
     14 C           4.3780   -2.9994   21.4727 C.3     1  UNL1        0.0937
     15 C           6.4752   -2.2209   17.9271 C.3     1  UNL1        0.0091
     16 C           5.8627   -0.9435   18.4201 C.3     1  UNL1        0.0691
     17 C           5.2503    0.3339   18.9131 C.3     1  UNL1        0.0091
     18 C           6.8176   -0.1579   17.5709 C.3     1  UNL1        0.0091
     19 C           7.8832   -5.1227   28.7497 C.2     1  UNL1        0.3078
     20 O           9.1762   -5.8661   28.9085 O.2     1  UNL1       -0.2516
     21 N           7.0151   -4.8641   29.9454 N.am    1  UNL1       -0.1708
     22 H           6.1664   -4.3761   29.8412 H       1  UNL1        0.2545
     23 C           7.4402   -5.3489   31.2997 C.2     1  UNL1        0.3751
     24 N           6.4698   -6.0927   32.1686 N.pl3   1  UNL1       -0.1313
     25 N           8.8357   -5.0898   31.7852 N.pl3   1  UNL1       -0.2906
     26 H           5.5539   -6.2627   31.8501 H       1  UNL1        0.3060
     27 H           9.4726   -4.6016   31.2148 H       1  UNL1        0.2545
     28 H           9.1147   -5.4080   32.6741 H       1  UNL1        0.2545
     29 C           5.9002   -1.3934   25.7231 C.3     1  UNL1        0.4183
     30 F           5.3338   -0.0136   25.5642 F       1  UNL1       -0.1659
     31 F           4.5185   -1.9357   25.9395 F       1  UNL1       -0.1659
     32 F           7.2818   -0.8512   25.5066 F       1  UNL1       -0.1659
@<TRIPOS>BOND
     1    15    16    1
     2    16    17    1
     3    16    18    1
     4    16     7    1
     5     7     8    2
     6     7     9   am
     7     9    10    1
     8    10    11    1
     9    11    12    1
    10    12     1    1
    11     1     2   ar
    12     2     3   ar
    13     3     4   ar
    14     4    19    1
    15    19    20    2
    16    19    21   am
    17    21    23    1
    18    23    24    2
    19    23    25    1
    20     4     5   ar
    21     5     6   ar
    22     6    29    1
    23    29    30    1
    24    29    31    1
    25    29    32    1
    26    12    13    1
    27    13    14    1
    28    14     9    1
    29     6     1   ar
    30    21    22    1
    31    24    26    1
    32    25    27    1
    33    25    28    1
@<TRIPOS>MOLECULE
*****
 32 33 0 0 0
SMALL
GASTEIGER

@<TRIPOS>ATOM
      1 C          -1.3444    2.6091   26.7335 C.ar    1  UNL1       -0.0185
      2 C          -2.6882    3.1275   27.1520 C.ar    1  UNL1       -0.0041
      3 C          -3.6406    3.6597   26.1225 C.ar    1  UNL1        0.0057
      4 C          -3.2491    3.6735   24.6746 C.ar    1  UNL1        0.0696
      5 C          -1.9052    3.1551   24.2562 C.ar    1  UNL1        0.0095
      6 C          -0.9528    2.6228   25.2856 C.ar    1  UNL1        0.0677
      7 C           2.4651    0.4802   30.8513 C.2     1  UNL1        0.2247
      8 O           2.4949   -0.9879   31.1576 O.2     1  UNL1       -0.2749
      9 N           1.5127    1.0124   29.8219 N.am    1  UNL1       -0.2795
     10 C           1.4829    2.4805   29.5156 C.3     1  UNL1        0.0937
     11 C           0.5306    3.0127   28.4862 C.3     1  UNL1        0.0259
     12 C          -0.3920    2.0768   27.7630 C.3     1  UNL1        0.0257
     13 C          -0.3622    0.6088   28.0692 C.3     1  UNL1        0.0259
     14 C           0.5902    0.0766   29.0987 C.3     1  UNL1        0.0937
     15 C           4.4224    1.2214   30.5063 C.3     1  UNL1        0.0091
     16 C           3.3876    1.4160   31.5745 C.3     1  UNL1        0.0691
     17 C           2.3528    1.6107   32.6428 C.3     1  UNL1        0.0091
     18 C           4.3102    2.3519   32.2978 C.3     1  UNL1        0.0091
     19 C          -4.2014    4.2057   23.6452 C.2     1  UNL1        0.3078
     20 O          -3.8028    5.3676   22.7843 O.2     1  UNL1       -0.2516
     21 N          -5.5524    3.5761   23.4766 N.am    1  UNL1       -0.1708
     22 H          -5.8140    2.8135   24.0417 H       1  UNL1        0.2545
     23 C          -6.5047    4.1083   22.4472 C.2     1  UNL1        0.3751
     24 N          -7.9379    4.3607   22.8107 N.pl3   1  UNL1       -0.1313
     25 N          -6.0238    4.3882   21.0542 N.pl3   1  UNL1       -0.2906
     26 H          -8.2535    4.1770   23.7250 H       1  UNL1        0.3060
     27 H          -5.0831    4.2225   20.8156 H       1  UNL1        0.2545
     28 H          -6.6489    4.7375   20.3785 H       1  UNL1        0.2545
     29 C           0.3911    2.1044   24.8671 C.3     1  UNL1        0.4183
     30 F           1.7350    1.5860   24.4486 F       1  UNL1       -0.1659
     31 F          -0.1798    0.7227   24.7451 F       1  UNL1       -0.1659
     32 F           0.9621    3.4860   24.9891 F       1  UNL1       -0.1659
@<TRIPOS>BOND
     1    15    16    1
     2    16    17    1
     3    16    18    1
     4    16     7    1
     5     7     8    2
     6     7     9   am
     7     9    10    1
     8    10    11    1
     9    11    12    1
    10    12     1    1
    11     1     2   ar
    12     2     3   ar
    13     3     4   ar
    14     4    19    1
    15    19    20    2
    16    19    21   am
    17    21    23    1
    18    23    24    2
    19    23    25    1
    20     4     5   ar
    21     5     6   ar
    22     6    29    1
    23    29    30    1
    24    29    31    1
    25    29    32    1
    26    12    13    1
    27    13    14    1
    28    14     9    1
    29     6     1   ar
    30    21    22    1
    31    24    26    1
    32    25    27    1
    33    25    28    1
@<TRIPOS>MOLECULE
*****
 32 33 0 0 0
SMALL
GASTEIGER

@<TRIPOS>ATOM
      1 C           1.1144    1.4311   27.8719 C.ar    1  UNL1       -0.0185
      2 C           2.5888    1.5944   27.6494 C.ar    1  UNL1       -0.0041
      3 C           3.5636    0.8106   28.4773 C.ar    1  UNL1        0.0057
      4 C           3.0641   -0.1365   29.5277 C.ar    1  UNL1        0.0696
      5 C           1.5897   -0.2998   29.7503 C.ar    1  UNL1        0.0095
      6 C           0.6149    0.4839   28.9224 C.ar    1  UNL1        0.0677
      7 C          -2.7849    4.5661   24.5603 C.2     1  UNL1        0.2247
      8 O          -3.2808    5.8963   25.0447 O.2     1  UNL1       -0.2749
      9 N          -1.8101    3.7824   25.3882 N.am    1  UNL1       -0.2795
     10 C          -1.3142    2.4522   24.9039 C.3     1  UNL1        0.0937
     11 C          -0.3393    1.6684   25.7318 C.3     1  UNL1        0.0259
     12 C           0.1396    2.2148   27.0440 C.3     1  UNL1        0.0257
     13 C          -0.3563    3.5450   27.5284 C.3     1  UNL1        0.0259
     14 C          -1.3311    4.3288   26.7005 C.3     1  UNL1        0.0937
     15 C          -4.4112    3.3509   23.9454 C.3     1  UNL1        0.0091
     16 C          -3.2638    4.0197   23.2481 C.3     1  UNL1        0.0691
     17 C          -2.1165    4.6885   22.5509 C.3     1  UNL1        0.0091
     18 C          -3.7427    3.4733   21.9358 C.3     1  UNL1        0.0091
     19 C           4.0389   -0.9203   30.3556 C.2     1  UNL1        0.3078
     20 O           5.3532   -1.3414   29.7682 O.2     1  UNL1       -0.2516
     21 N           3.6994   -1.2829   31.7710 N.am    1  UNL1       -0.1708
     22 H           2.8368   -1.0065   32.1565 H       1  UNL1        0.2545
     23 C           4.6742   -2.0666   32.5989 C.2     1  UNL1        0.3751
     24 N           4.2068   -3.2597   33.3786 N.pl3   1  UNL1       -0.1313
     25 N           6.1166   -1.6573   32.6470 N.pl3   1  UNL1       -0.2906
     26 H           3.2602   -3.5283   33.3471 H       1  UNL1        0.3060
     27 H           6.4233   -0.8742   32.1352 H       1  UNL1        0.2545
     28 H           6.7564   -2.1717   33.1903 H       1  UNL1        0.2545
     29 C          -0.8595    0.3206   29.1449 C.3     1  UNL1        0.4183
     30 F          -2.3339    0.1572   29.3675 F       1  UNL1       -0.1659
     31 F          -0.9169   -0.6809   28.0297 F       1  UNL1       -0.1659
     32 F          -0.8021    1.3220   30.2601 F       1  UNL1       -0.1659
@<TRIPOS>BOND
     1    15    16    1
     2    16    17    1
     3    16    18    1
     4    16     7    1
     5     7     8    2
     6     7     9   am
     7     9    10    1
     8    10    11    1
     9    11    12    1
    10    12     1    1
    11     1     2   ar
    12     2     3   ar
    13     3     4   ar
    14     4    19    1
    15    19    20    2
    16    19    21   am
    17    21    23    1
    18    23    24    2
    19    23    25    1
    20     4     5   ar
    21     5     6   ar
    22     6    29    1
    23    29    30    1
    24    29    31    1
    25    29    32    1
    26    12    13    1
    27    13    14    1
    28    14     9    1
    29     6     1   ar
    30    21    22    1
    31    24    26    1
    32    25    27    1
    33    25    28    1
@<TRIPOS>MOLECULE
*****
 32 33 0 0 0
SMALL
GASTEIGER

@<TRIPOS>ATOM
      1 C           5.9528   -2.6846   25.0157 C.ar    1  UNL1       -0.0185
      2 C           6.7441   -3.8563   25.5167 C.ar    1  UNL1       -0.0041
      3 C           6.9762   -4.0305   26.9884 C.ar    1  UNL1        0.0057
      4 C           6.4170   -3.0330   27.9591 C.ar    1  UNL1        0.0696
      5 C           5.6256   -1.8614   27.4581 C.ar    1  UNL1        0.0095
      6 C           5.3936   -1.6872   25.9864 C.ar    1  UNL1        0.0677
      7 C           5.0245   -1.9878   19.1291 C.2     1  UNL1        0.2247
      8 O           3.9141   -2.7346   18.4513 O.2     1  UNL1       -0.2749
      9 N           5.2565   -2.1620   20.6007 N.am    1  UNL1       -0.2795
     10 C           6.3669   -1.4153   21.2785 C.3     1  UNL1        0.0937
     11 C           6.5990   -1.5895   22.7501 C.3     1  UNL1        0.0259
     12 C           5.7207   -2.5104   23.5441 C.3     1  UNL1        0.0257
     13 C           4.6103   -3.2572   22.8663 C.3     1  UNL1        0.0259
     14 C           4.3782   -3.0830   21.3947 C.3     1  UNL1        0.0937
     15 C           4.9423    0.0592   18.5789 C.3     1  UNL1        0.0091
     16 C           5.9028   -1.0669   18.3351 C.3     1  UNL1        0.0691
     17 C           6.8632   -2.1930   18.0914 C.3     1  UNL1        0.0091
     18 C           6.7811   -0.1459   17.5411 C.3     1  UNL1        0.0091
     19 C           6.6490   -3.2072   29.4307 C.2     1  UNL1        0.3078
     20 O           6.5669   -2.0234   30.3482 O.2     1  UNL1       -0.2516
     21 N           6.9632   -4.5652   29.9849 N.am    1  UNL1       -0.1708
     22 H           7.0171   -5.3422   29.3827 H       1  UNL1        0.2545
     23 C           7.1953   -4.7394   31.4565 C.2     1  UNL1        0.3751
     24 N           8.0735   -3.7746   32.1967 N.pl3   1  UNL1       -0.1313
     25 N           6.5491   -5.8784   32.1881 N.pl3   1  UNL1       -0.2906
     26 H           8.4976   -3.0270   31.7166 H       1  UNL1        0.3060
     27 H           5.9727   -6.5117   31.7023 H       1  UNL1        0.2545
     28 H           6.7014   -5.9928   33.1540 H       1  UNL1        0.2545
     29 C           4.6022   -0.5154   25.4855 C.3     1  UNL1        0.4183
     30 F           3.8108    0.6562   24.9846 F       1  UNL1       -0.1659
     31 F           5.8526    0.3121   25.4457 F       1  UNL1       -0.1659
     32 F           3.3518   -1.3430   25.5252 F       1  UNL1       -0.1659
@<TRIPOS>BOND
     1    15    16    1
     2    16    17    1
     3    16    18    1
     4    16     7    1
     5     7     8    2
     6     7     9   am
     7     9    10    1
     8    10    11    1
     9    11    12    1
    10    12     1    1
    11     1     2   ar
    12     2     3   ar
    13     3     4   ar
    14     4    19    1
    15    19    20    2
    16    19    21   am
    17    21    23    1
    18    23    24    2
    19    23    25    1
    20     4     5   ar
    21     5     6   ar
    22     6    29    1
    23    29    30    1
    24    29    31    1
    25    29    32    1
    26    12    13    1
    27    13    14    1
    28    14     9    1
    29     6     1   ar
    30    21    22    1
    31    24    26    1
    32    25    27    1
    33    25    28    1
@<TRIPOS>MOLECULE
*****
 32 33 0 0 0
SMALL
GASTEIGER

@<TRIPOS>ATOM
      1 C           0.2426    1.6735   20.1731 C.ar    1  UNL1       -0.0185
      2 C           0.3568    0.2102   20.4823 C.ar    1  UNL1       -0.0041
      3 C           1.4102   -0.6187   19.8091 C.ar    1  UNL1        0.0057
      4 C           2.3494    0.0157   18.8266 C.ar    1  UNL1        0.0696
      5 C           2.2353    1.4790   18.5174 C.ar    1  UNL1        0.0095
      6 C           1.1819    2.3079   19.1907 C.ar    1  UNL1        0.0677
      7 C          -3.9709    4.9891   22.8662 C.2     1  UNL1        0.2247
      8 O          -3.7496    5.4947   24.2610 O.2     1  UNL1       -0.2749
      9 N          -2.9175    4.1602   22.1929 N.am    1  UNL1       -0.2795
     10 C          -3.1388    3.6546   20.7982 C.3     1  UNL1        0.0937
     11 C          -2.0854    2.8257   20.1249 C.3     1  UNL1        0.0259
     12 C          -0.8107    2.5024   20.8464 C.3     1  UNL1        0.0257
     13 C          -0.5895    3.0080   22.2412 C.3     1  UNL1        0.0259
     14 C          -1.6428    3.8369   22.9144 C.3     1  UNL1        0.0937
     15 C          -5.8732    4.0662   22.6949 C.3     1  UNL1        0.0091
     16 C          -5.2456    5.3125   22.1447 C.3     1  UNL1        0.0691
     17 C          -4.6180    6.5588   21.5945 C.3     1  UNL1        0.0091
     18 C          -6.5203    5.6359   21.4232 C.3     1  UNL1        0.0091
     19 C           3.4028   -0.8132   18.1533 C.2     1  UNL1        0.3078
     20 O           3.7767   -0.5370   16.7272 O.2     1  UNL1       -0.2516
     21 N           4.0823   -1.9184   18.9062 N.am    1  UNL1       -0.1708
     22 H           3.8370   -2.0997   19.8422 H       1  UNL1        0.2545
     23 C           5.1357   -2.7473   18.2329 C.2     1  UNL1        0.3751
     24 N           6.2888   -2.0796   17.5441 N.pl3   1  UNL1       -0.1313
     25 N           5.0360   -4.2439   18.2485 N.pl3   1  UNL1       -0.2906
     26 H           6.3543   -1.0974   17.5339 H       1  UNL1        0.3060
     27 H           4.2791   -4.6822   18.7007 H       1  UNL1        0.2545
     28 H           5.7273   -4.7880   17.8067 H       1  UNL1        0.2545
     29 C           1.0678    3.7713   18.8814 C.3     1  UNL1        0.4183
     30 F           0.9537    5.2346   18.5722 F       1  UNL1       -0.1659
     31 F           1.9697    4.0860   20.0379 F       1  UNL1       -0.1659
     32 F           0.1659    3.4565   17.7250 F       1  UNL1       -0.1659
@<TRIPOS>BOND
     1    15    16    1
     2    16    17    1
     3    16    18    1
     4    16     7    1
     5     7     8    2
     6     7     9   am
     7     9    10    1
     8    10    11    1
     9    11    12    1
    10    12     1    1
    11     1     2   ar
    12     2     3   ar
    13     3     4   ar
    14     4    19    1
    15    19    20    2
    16    19    21   am
    17    21    23    1
    18    23    24    2
    19    23    25    1
    20     4     5   ar
    21     5     6   ar
    22     6    29    1
    23    29    30    1
    24    29    31    1
    25    29    32    1
    26    12    13    1
    27    13    14    1
    28    14     9    1
    29     6     1   ar
    30    21    22    1
    31    24    26    1
    32    25    27    1
    33    25    28    1
