@<TRIPOS>MOLECULE
*****
 21 23 0 0 0
SMALL
GASTEIGER

@<TRIPOS>ATOM
      1 C          -8.6459  -17.2665   24.0087 C.ar    1  UNL1       -0.0153
      2 C          -7.6017  -17.1551   22.9376 C.ar    1  UNL1        0.0050
      3 S          -6.4667  -16.3382   23.4801 S.2     1  UNL1       -0.0915
      4 C          -6.8094  -15.9446   24.8864 C.ar    1  UNL1        0.0288
      5 C          -6.0691  -15.1380   25.9117 C.ar    1  UNL1        0.0065
      6 C          -6.6757  -14.9050   27.2636 C.ar    1  UNL1        0.0005
      7 C          -8.0226  -15.4788   27.5903 C.ar    1  UNL1        0.0000
      8 C          -8.7629  -16.2854   26.5650 C.ar    1  UNL1        0.0002
      9 C          -8.1563  -16.5183   25.2131 C.ar    1  UNL1        0.0025
     10 C         -10.2716  -19.1115   24.8473 C.3     1  UNL1        0.0100
     11 C          -9.9508  -17.9976   23.8952 C.3     1  UNL1        0.0524
     12 C         -10.9348  -17.6149   22.8299 C.ar    1  UNL1        0.0316
     13 C         -11.6844  -18.5621   21.9406 C.ar    1  UNL1        0.1020
     14 N         -12.5550  -17.7503   21.0279 N.ar    1  UNL1       -0.2351
     15 C         -12.3434  -16.3014   21.3529 C.ar    1  UNL1        0.1342
     16 S         -11.3420  -16.2176   22.4667 S.2     1  UNL1       -0.0685
     17 C          -7.6789  -17.7553   21.5651 C.3     1  UNL1        0.0499
     18 C          -7.0010  -19.0624   21.2789 C.3     1  UNL1        0.0774
     19 N          -5.5090  -19.1177   21.1343 N.3     1  UNL1       -0.2700
     20 C          -4.6473  -19.3602   22.3379 C.3     1  UNL1        0.0897
     21 C          -4.8788  -18.9305   19.7861 C.3     1  UNL1        0.0897
@<TRIPOS>BOND
     1    11    10    1
     2    11    12    1
     3    12    13   ar
     4    13    14   ar
     5    14    15   ar
     6    15    16   ar
     7    11     1    1
     8     1     2   ar
     9     2    17    1
    10    17    18    1
    11    18    19    1
    12    19    20    1
    13    19    21    1
    14     2     3   ar
    15     3     4   ar
    16     4     5   ar
    17     5     6   ar
    18     6     7   ar
    19     7     8   ar
    20     8     9   ar
    21    16    12   ar
    22     9     1   ar
    23     9     4   ar
@<TRIPOS>MOLECULE
*****
 21 23 0 0 0
SMALL
GASTEIGER

@<TRIPOS>ATOM
      1 C          -8.3652  -18.4477   22.4453 C.ar    1  UNL1       -0.0153
      2 C          -7.8315  -17.2953   23.2436 C.ar    1  UNL1        0.0050
      3 S          -6.3400  -17.2730   23.0850 S.2     1  UNL1       -0.0915
      4 C          -5.9520  -18.4116   22.1889 C.ar    1  UNL1        0.0288
      5 C          -4.6207  -18.8810   21.6818 C.ar    1  UNL1        0.0065
      6 C          -4.5410  -20.0765   20.7794 C.ar    1  UNL1        0.0005
      7 C          -5.7926  -20.8025   20.3840 C.ar    1  UNL1        0.0000
      8 C          -7.1239  -20.3331   20.8911 C.ar    1  UNL1        0.0002
      9 C          -7.2036  -19.1376   21.7935 C.ar    1  UNL1        0.0025
     10 C         -10.3108  -20.0737   23.0119 C.3     1  UNL1        0.0100
     11 C          -9.8073  -18.8412   22.3208 C.3     1  UNL1        0.0524
     12 C         -10.7459  -18.0023   21.5052 C.ar    1  UNL1        0.0316
     13 C         -10.8423  -17.9888   20.0084 C.ar    1  UNL1        0.1020
     14 N         -11.9089  -17.0077   19.6214 N.ar    1  UNL1       -0.2351
     15 C         -12.4717  -16.4148   20.8790 C.ar    1  UNL1        0.1342
     16 S         -11.7529  -17.0295   22.0434 S.2     1  UNL1       -0.0685
     17 C          -8.6461  -16.3341   24.0574 C.3     1  UNL1        0.0499
     18 C          -7.9661  -15.2504   24.8404 C.3     1  UNL1        0.0774
     19 N          -7.3288  -15.5664   26.1610 N.3     1  UNL1       -0.2700
     20 C          -8.1633  -16.0980   27.2884 C.3     1  UNL1        0.0897
     21 C          -5.8570  -15.3508   26.3542 C.3     1  UNL1        0.0897
@<TRIPOS>BOND
     1    11    10    1
     2    11    12    1
     3    12    13   ar
     4    13    14   ar
     5    14    15   ar
     6    15    16   ar
     7    11     1    1
     8     1     2   ar
     9     2    17    1
    10    17    18    1
    11    18    19    1
    12    19    20    1
    13    19    21    1
    14     2     3   ar
    15     3     4   ar
    16     4     5   ar
    17     5     6   ar
    18     6     7   ar
    19     7     8   ar
    20     8     9   ar
    21    16    12   ar
    22     9     1   ar
    23     9     4   ar
@<TRIPOS>MOLECULE
*****
 21 23 0 0 0
SMALL
GASTEIGER

@<TRIPOS>ATOM
      1 C          -7.9593  -18.9194   21.8069 C.ar    1  UNL1       -0.0153
      2 C          -8.5707  -19.3337   20.5013 C.ar    1  UNL1        0.0050
      3 S          -7.4569  -19.6544   19.5491 S.2     1  UNL1       -0.0915
      4 C          -6.1572  -19.4382   20.2662 C.ar    1  UNL1        0.0288
      5 C          -4.7312  -19.5963   19.8288 C.ar    1  UNL1        0.0065
      6 C          -3.6157  -19.3002   20.7868 C.ar    1  UNL1        0.0005
      7 C          -3.9262  -18.8460   22.1823 C.ar    1  UNL1        0.0000
      8 C          -5.3523  -18.6878   22.6196 C.ar    1  UNL1        0.0002
      9 C          -6.4678  -18.9840   21.6616 C.ar    1  UNL1        0.0025
     10 C          -9.6861  -19.4586   23.6718 C.3     1  UNL1        0.0100
     11 C          -8.7081  -18.5120   23.0411 C.3     1  UNL1        0.0524
     12 C          -8.4790  -17.1581   23.6448 C.ar    1  UNL1        0.0316
     13 C          -7.7839  -16.0045   22.9846 C.ar    1  UNL1        0.1020
     14 N          -7.7801  -14.8536   23.9464 N.ar    1  UNL1       -0.2351
     15 C          -8.4729  -15.2957   25.2011 C.ar    1  UNL1        0.1342
     16 S          -8.9049  -16.7201   25.0147 S.2     1  UNL1       -0.0685
     17 C         -10.0381  -19.4134   20.2007 C.3     1  UNL1        0.0499
     18 C         -10.7852  -18.1829   19.7792 C.3     1  UNL1        0.0774
     19 N         -11.4260  -17.3039   20.8121 N.3     1  UNL1       -0.2700
     20 C         -12.6015  -17.8045   21.5980 C.3     1  UNL1        0.0897
     21 C         -10.8913  -15.9244   21.0590 C.3     1  UNL1        0.0897
@<TRIPOS>BOND
     1    11    10    1
     2    11    12    1
     3    12    13   ar
     4    13    14   ar
     5    14    15   ar
     6    15    16   ar
     7    11     1    1
     8     1     2   ar
     9     2    17    1
    10    17    18    1
    11    18    19    1
    12    19    20    1
    13    19    21    1
    14     2     3   ar
    15     3     4   ar
    16     4     5   ar
    17     5     6   ar
    18     6     7   ar
    19     7     8   ar
    20     8     9   ar
    21    16    12   ar
    22     9     1   ar
    23     9     4   ar
@<TRIPOS>MOLECULE
*****
 21 23 0 0 0
SMALL
GASTEIGER

@<TRIPOS>ATOM
      1 C          -8.5255  -17.0814   22.7803 C.ar    1  UNL1       -0.0153
      2 C          -7.8881  -18.3187   22.2211 C.ar    1  UNL1        0.0050
      3 S          -8.9639  -19.1458   21.5817 S.2     1  UNL1       -0.0915
      4 C         -10.2661  -18.4196   21.7458 C.ar    1  UNL1        0.0288
      5 C         -11.6635  -18.7553   21.3164 C.ar    1  UNL1        0.0065
      6 C         -12.7900  -17.8151   21.6277 C.ar    1  UNL1        0.0005
      7 C         -12.5191  -16.5392   22.3684 C.ar    1  UNL1        0.0000
      8 C         -11.1217  -16.2035   22.7979 C.ar    1  UNL1        0.0002
      9 C          -9.9952  -17.1437   22.4866 C.ar    1  UNL1        0.0025
     10 C          -7.2098  -14.8415   22.7350 C.3     1  UNL1        0.0100
     11 C          -7.8176  -15.9758   23.5059 C.3     1  UNL1        0.0524
     12 C          -7.7175  -16.0043   25.0022 C.ar    1  UNL1        0.0316
     13 C          -8.7418  -16.5643   25.9440 C.ar    1  UNL1        0.1020
     14 N          -8.2328  -16.3839   27.3433 N.ar    1  UNL1       -0.2351
     15 C          -6.8937  -15.7124   27.2665 C.ar    1  UNL1        0.1342
     16 S          -6.5752  -15.4778   25.8195 S.2     1  UNL1       -0.0685
     17 C          -6.4309  -18.6677   22.2893 C.3     1  UNL1        0.0499
     18 C          -5.7050  -19.1024   21.0507 C.3     1  UNL1        0.0774
     19 N          -4.2520  -18.7724   20.8781 N.3     1  UNL1       -0.2700
     20 C          -3.4391  -18.3259   22.0571 C.3     1  UNL1        0.0897
     21 C          -3.6119  -18.8888   19.5266 C.3     1  UNL1        0.0897
@<TRIPOS>BOND
     1    11    10    1
     2    11    12    1
     3    12    13   ar
     4    13    14   ar
     5    14    15   ar
     6    15    16   ar
     7    11     1    1
     8     1     2   ar
     9     2    17    1
    10    17    18    1
    11    18    19    1
    12    19    20    1
    13    19    21    1
    14     2     3   ar
    15     3     4   ar
    16     4     5   ar
    17     5     6   ar
    18     6     7   ar
    19     7     8   ar
    20     8     9   ar
    21    16    12   ar
    22     9     1   ar
    23     9     4   ar
@<TRIPOS>MOLECULE
*****
 21 23 0 0 0
SMALL
GASTEIGER

@<TRIPOS>ATOM
      1 C          -7.4157  -18.3462   21.8805 C.ar    1  UNL1       -0.0153
      2 C          -7.3919  -17.0720   22.6715 C.ar    1  UNL1        0.0050
      3 S          -8.6695  -16.3343   22.4005 S.2     1  UNL1       -0.0915
      4 C          -9.4830  -17.1526   21.4420 C.ar    1  UNL1        0.0288
      5 C         -10.8291  -16.9261   20.8204 C.ar    1  UNL1        0.0065
      6 C         -11.4004  -17.9431   19.8773 C.ar    1  UNL1        0.0005
      7 C         -10.6255  -19.1865   19.5559 C.ar    1  UNL1        0.0000
      8 C          -9.2794  -19.4130   20.1776 C.ar    1  UNL1        0.0002
      9 C          -8.7081  -18.3961   21.1206 C.ar    1  UNL1        0.0025
     10 C          -6.5852  -20.7407   22.4526 C.3     1  UNL1        0.0100
     11 C          -6.3367  -19.3879   21.8539 C.3     1  UNL1        0.0524
     12 C          -5.0092  -19.0768   21.2288 C.ar    1  UNL1        0.0316
     13 C          -4.7314  -18.9641   19.7591 C.ar    1  UNL1        0.1020
     14 N          -3.2768  -18.6415   19.5857 N.ar    1  UNL1       -0.2351
     15 C          -2.6556  -18.5548   20.9481 C.ar    1  UNL1        0.1342
     16 S          -3.7262  -18.8239   21.9637 S.2     1  UNL1       -0.0685
     17 C          -6.2848  -16.6156   23.5748 C.3     1  UNL1        0.0499
     18 C          -6.4545  -15.3757   24.4018 C.3     1  UNL1        0.0774
     19 N          -7.0725  -15.4627   25.7658 N.3     1  UNL1       -0.2700
     20 C          -6.1978  -15.5204   26.9831 C.3     1  UNL1        0.0897
     21 C          -8.5649  -15.4921   25.9126 C.3     1  UNL1        0.0897
@<TRIPOS>BOND
     1    11    10    1
     2    11    12    1
     3    12    13   ar
     4    13    14   ar
     5    14    15   ar
     6    15    16   ar
     7    11     1    1
     8     1     2   ar
     9     2    17    1
    10    17    18    1
    11    18    19    1
    12    19    20    1
    13    19    21    1
    14     2     3   ar
    15     3     4   ar
    16     4     5   ar
    17     5     6   ar
    18     6     7   ar
    19     7     8   ar
    20     8     9   ar
    21    16    12   ar
    22     9     1   ar
    23     9     4   ar
@<TRIPOS>MOLECULE
*****
 21 23 0 0 0
SMALL
GASTEIGER

@<TRIPOS>ATOM
      1 C          -7.9210  -17.5179   22.9107 C.ar    1  UNL1       -0.0153
      2 C          -7.0872  -18.6114   22.3116 C.ar    1  UNL1        0.0050
      3 S          -7.8929  -19.8763   22.3386 S.2     1  UNL1       -0.0915
      4 C          -9.2247  -19.5646   22.9543 C.ar    1  UNL1        0.0288
      5 C         -10.4239  -20.4197   23.2386 C.ar    1  UNL1        0.0065
      6 C         -11.6404  -19.8171   23.8765 C.ar    1  UNL1        0.0005
      7 C         -11.6577  -18.3595   24.2301 C.ar    1  UNL1        0.0000
      8 C         -10.4586  -17.5044   23.9458 C.ar    1  UNL1        0.0002
      9 C          -9.2421  -18.1070   23.3079 C.ar    1  UNL1        0.0025
     10 C          -7.8292  -15.0794   22.0186 C.3     1  UNL1        0.0100
     11 C          -7.5066  -16.0865   23.0825 C.3     1  UNL1        0.0524
     12 C          -6.7696  -15.6622   24.3180 C.ar    1  UNL1        0.0316
     13 C          -5.3381  -15.2189   24.3823 C.ar    1  UNL1        0.1020
     14 N          -5.0185  -14.8894   25.8103 N.ar    1  UNL1       -0.2351
     15 C          -6.2524  -15.1290   26.6287 C.ar    1  UNL1        0.1342
     16 S          -7.3348  -15.6067   25.7064 S.2     1  UNL1       -0.0685
     17 C          -5.6925  -18.4656   21.7792 C.3     1  UNL1        0.0499
     18 C          -4.5264  -18.4584   22.7226 C.3     1  UNL1        0.0774
     19 N          -3.1309  -18.3240   22.1892 N.3     1  UNL1       -0.2700
     20 C          -2.4441  -16.9906   22.2130 C.3     1  UNL1        0.0897
     21 C          -2.4222  -19.5228   21.6320 C.3     1  UNL1        0.0897
@<TRIPOS>BOND
     1    11    10    1
     2    11    12    1
     3    12    13   ar
     4    13    14   ar
     5    14    15   ar
     6    15    16   ar
     7    11     1    1
     8     1     2   ar
     9     2    17    1
    10    17    18    1
    11    18    19    1
    12    19    20    1
    13    19    21    1
    14     2     3   ar
    15     3     4   ar
    16     4     5   ar
    17     5     6   ar
    18     6     7   ar
    19     7     8   ar
    20     8     9   ar
    21    16    12   ar
    22     9     1   ar
    23     9     4   ar
@<TRIPOS>MOLECULE
*****
 21 23 0 0 0
SMALL
GASTEIGER

@<TRIPOS>ATOM
      1 C          -7.7613  -18.0485   23.0223 C.ar    1  UNL1       -0.0153
      2 C          -8.2925  -16.8099   23.6807 C.ar    1  UNL1        0.0050
      3 S          -7.1293  -15.9155   23.9924 S.2     1  UNL1       -0.0915
      4 C          -5.8793  -16.6015   23.5266 C.ar    1  UNL1        0.0288
      5 C          -4.4359  -16.1960   23.5710 C.ar    1  UNL1        0.0065
      6 C          -3.3830  -17.1088   23.0157 C.ar    1  UNL1        0.0005
      7 C          -3.7737  -18.4271   22.4162 C.ar    1  UNL1        0.0000
      8 C          -5.2171  -18.8326   22.3718 C.ar    1  UNL1        0.0002
      9 C          -6.2699  -17.9198   22.9270 C.ar    1  UNL1        0.0025
     10 C          -9.0906  -20.2236   23.5250 C.3     1  UNL1        0.0100
     11 C          -8.5782  -19.2118   22.5431 C.3     1  UNL1        0.0524
     12 C          -8.8827  -19.3635   21.0823 C.ar    1  UNL1        0.0316
     13 C          -7.8790  -19.3624   19.9676 C.ar    1  UNL1        0.1020
     14 N          -8.6204  -19.5412   18.6760 N.ar    1  UNL1       -0.2351
     15 C         -10.0823  -19.6527   18.9923 C.ar    1  UNL1        0.1342
     16 S         -10.2445  -19.5429   20.4795 S.2     1  UNL1       -0.0685
     17 C          -9.7338  -16.5170   23.9756 C.3     1  UNL1        0.0499
     18 C         -10.6928  -16.2627   22.8507 C.3     1  UNL1        0.0774
     19 N         -11.8753  -17.1646   22.6549 N.3     1  UNL1       -0.2700
     20 C         -12.1922  -18.2179   23.6748 C.3     1  UNL1        0.0897
     21 C         -12.7408  -17.0133   21.4392 C.3     1  UNL1        0.0897
@<TRIPOS>BOND
     1    11    10    1
     2    11    12    1
     3    12    13   ar
     4    13    14   ar
     5    14    15   ar
     6    15    16   ar
     7    11     1    1
     8     1     2   ar
     9     2    17    1
    10    17    18    1
    11    18    19    1
    12    19    20    1
    13    19    21    1
    14     2     3   ar
    15     3     4   ar
    16     4     5   ar
    17     5     6   ar
    18     6     7   ar
    19     7     8   ar
    20     8     9   ar
    21    16    12   ar
    22     9     1   ar
    23     9     4   ar
@<TRIPOS>MOLECULE
*****
 21 23 0 0 0
SMALL
GASTEIGER

@<TRIPOS>ATOM
      1 C          -9.5014  -17.9901   22.9527 C.ar    1  UNL1       -0.0153
      2 C          -8.6553  -18.7921   22.0089 C.ar    1  UNL1        0.0050
      3 S          -9.2244  -18.6363   20.6298 S.2     1  UNL1       -0.0915
      4 C         -10.4222  -17.7380   20.7214 C.ar    1  UNL1        0.0288
      5 C         -11.3791  -17.2321   19.6829 C.ar    1  UNL1        0.0065
      6 C         -12.5072  -16.3268   20.0802 C.ar    1  UNL1        0.0005
      7 C         -12.6784  -15.9275   21.5159 C.ar    1  UNL1        0.0000
      8 C         -11.7215  -16.4334   22.5543 C.ar    1  UNL1        0.0002
      9 C         -10.5934  -17.3386   22.1570 C.ar    1  UNL1        0.0025
     10 C          -9.9858  -18.8033   25.3723 C.3     1  UNL1        0.0100
     11 C          -9.2922  -17.8620   24.4326 C.3     1  UNL1        0.0524
     12 C          -8.3897  -16.7927   24.9727 C.ar    1  UNL1        0.0316
     13 C          -8.3103  -16.3449   26.4021 C.ar    1  UNL1        0.1020
     14 N          -7.2795  -15.2589   26.4911 N.ar    1  UNL1       -0.2351
     15 C          -6.7218  -15.0354   25.1168 C.ar    1  UNL1        0.1342
     16 S          -7.4079  -15.9834   24.1783 S.2     1  UNL1       -0.0685
     17 C          -7.4515  -19.6068   22.3791 C.3     1  UNL1        0.0499
     18 C          -6.0760  -19.0343   22.2051 C.3     1  UNL1        0.0774
     19 N          -5.0443  -19.7871   21.4184 N.3     1  UNL1       -0.2700
     20 C          -5.4704  -20.7366   20.3381 C.3     1  UNL1        0.0897
     21 C          -3.5865  -19.5905   21.7121 C.3     1  UNL1        0.0897
@<TRIPOS>BOND
     1    11    10    1
     2    11    12    1
     3    12    13   ar
     4    13    14   ar
     5    14    15   ar
     6    15    16   ar
     7    11     1    1
     8     1     2   ar
     9     2    17    1
    10    17    18    1
    11    18    19    1
    12    19    20    1
    13    19    21    1
    14     2     3   ar
    15     3     4   ar
    16     4     5   ar
    17     5     6   ar
    18     6     7   ar
    19     7     8   ar
    20     8     9   ar
    21    16    12   ar
    22     9     1   ar
    23     9     4   ar
@<TRIPOS>MOLECULE
*****
 21 23 0 0 0
SMALL
GASTEIGER

@<TRIPOS>ATOM
      1 C          -6.8560  -18.6809   21.7010 C.ar    1  UNL1       -0.0153
      2 C          -6.6032  -18.9329   20.2441 C.ar    1  UNL1        0.0050
      3 S          -7.8569  -19.5010   19.6477 S.2     1  UNL1       -0.0915
      4 C          -8.8843  -19.6002   20.7361 C.ar    1  UNL1        0.0288
      5 C         -10.3033  -20.0866   20.7355 C.ar    1  UNL1        0.0065
      6 C         -11.1036  -20.0661   22.0039 C.ar    1  UNL1        0.0005
      7 C         -10.4850  -19.5592   23.2730 C.ar    1  UNL1        0.0000
      8 C          -9.0661  -19.0728   23.2735 C.ar    1  UNL1        0.0002
      9 C          -8.2657  -19.0933   22.0051 C.ar    1  UNL1        0.0025
     10 C          -4.6005  -18.8546   22.9789 C.3     1  UNL1        0.0100
     11 C          -5.8717  -18.1157   22.6818 C.3     1  UNL1        0.0524
     12 C          -6.1586  -16.8118   23.3654 C.ar    1  UNL1        0.0316
     13 C          -5.2095  -16.0471   24.2396 C.ar    1  UNL1        0.1020
     14 N          -5.9093  -14.8063   24.7094 N.ar    1  UNL1       -0.2351
     15 C          -7.2909  -14.8041   24.1254 C.ar    1  UNL1        0.1342
     16 S          -7.4450  -16.0436   23.2948 S.2     1  UNL1       -0.0685
     17 C          -5.3219  -18.6639   19.5121 C.3     1  UNL1        0.0499
     18 C          -4.1372  -19.5601   19.7197 C.3     1  UNL1        0.0774
     19 N          -2.7642  -18.9702   19.8497 N.3     1  UNL1       -0.2700
     20 C          -2.3191  -17.8914   18.9072 C.3     1  UNL1        0.0897
     21 C          -1.8363  -19.4590   20.9220 C.3     1  UNL1        0.0897
@<TRIPOS>BOND
     1    11    10    1
     2    11    12    1
     3    12    13   ar
     4    13    14   ar
     5    14    15   ar
     6    15    16   ar
     7    11     1    1
     8     1     2   ar
     9     2    17    1
    10    17    18    1
    11    18    19    1
    12    19    20    1
    13    19    21    1
    14     2     3   ar
    15     3     4   ar
    16     4     5   ar
    17     5     6   ar
    18     6     7   ar
    19     7     8   ar
    20     8     9   ar
    21    16    12   ar
    22     9     1   ar
    23     9     4   ar
