@<TRIPOS>MOLECULE
*****
 23 25 0 0 0
SMALL
GASTEIGER

@<TRIPOS>ATOM
      1 N          -8.5838  -19.6501   22.3120 N.am    1  UNL1       -0.2215
      2 C          -9.5146  -19.8207   23.4758 C.2     1  UNL1        0.2550
      3 O          -9.1298  -20.7113   24.6198 O.2     1  UNL1       -0.2695
      4 C         -10.8305  -19.1007   23.4956 C.ar    1  UNL1        0.0541
      5 C         -11.7613  -19.2713   24.6593 C.ar    1  UNL1        0.0045
      6 C         -13.0771  -18.5514   24.6790 C.ar    1  UNL1        0.0001
      7 C         -13.4619  -17.6608   23.5350 C.ar    1  UNL1        0.0000
      8 C         -12.5311  -17.4902   22.3713 C.ar    1  UNL1        0.0015
      9 C         -12.9159  -16.5996   21.2273 C.ar    1  UNL1        0.0141
     10 C         -11.9851  -16.4289   20.0636 C.ar    1  UNL1        0.0417
     11 N         -12.3699  -15.5383   18.9196 N.pl3   1  UNL1       -0.3570
     12 C         -10.6692  -17.1489   20.0438 C.ar    1  UNL1        0.0186
     13 C         -10.2844  -18.0395   21.1878 C.ar    1  UNL1        0.0553
     14 C         -11.2153  -18.2101   22.3516 C.ar    1  UNL1        0.0088
     15 C          -8.9686  -18.7595   21.1681 C.2     1  UNL1        0.2550
     16 O          -8.0377  -18.5889   20.0043 O.2     1  UNL1       -0.2695
     17 H         -13.2335  -15.0658   18.9326 H       1  UNL1        0.1424
     18 H         -11.7589  -15.4264   18.1558 H       1  UNL1        0.1424
     19 C          -7.2679  -20.3701   22.2923 C.3     1  UNL1        0.1188
     20 C          -5.9865  -19.5905   22.2865 C.3     1  UNL1        0.0944
     21 C          -3.5821  -19.2407   21.3662 C.3     1  UNL1        0.0897
     22 N          -4.9292  -19.8931   21.2664 N.3     1  UNL1       -0.2688
     23 C          -5.2189  -20.8480   20.1466 C.3     1  UNL1        0.0897
@<TRIPOS>BOND
     1    21    22    1
     2    22    23    1
     3    22    20    1
     4    20    19    1
     5    19     1    1
     6     1     2   am
     7     2     3    2
     8     2     4    1
     9     4     5   ar
    10     5     6   ar
    11     6     7   ar
    12     7     8   ar
    13     8     9   ar
    14     9    10   ar
    15    10    11    1
    16    10    12   ar
    17    12    13   ar
    18    13    14   ar
    19    13    15    1
    20    15    16    2
    21    15     1   am
    22    14     4   ar
    23    14     8   ar
    24    11    17    1
    25    11    18    1
@<TRIPOS>MOLECULE
*****
 23 25 0 0 0
SMALL
GASTEIGER

@<TRIPOS>ATOM
      1 N          -8.6041  -19.5982   22.3222 N.am    1  UNL1       -0.2215
      2 C          -8.9635  -18.7350   21.1494 C.2     1  UNL1        0.2550
      3 O          -8.0124  -18.6013   19.9972 O.2     1  UNL1       -0.2695
      4 C         -10.2740  -18.0055   21.1286 C.ar    1  UNL1        0.0541
      5 C         -10.6334  -17.1423   19.9558 C.ar    1  UNL1        0.0045
      6 C         -11.9439  -16.4128   19.9351 C.ar    1  UNL1        0.0001
      7 C         -12.8950  -16.5465   21.0873 C.ar    1  UNL1        0.0000
      8 C         -12.5356  -17.4097   22.2602 C.ar    1  UNL1        0.0015
      9 C         -13.4867  -17.5434   23.4124 C.ar    1  UNL1        0.0141
     10 C         -13.1273  -18.4066   24.5852 C.ar    1  UNL1        0.0417
     11 N         -14.0784  -18.5403   25.7374 N.pl3   1  UNL1       -0.3570
     12 C         -11.8168  -19.1362   24.6060 C.ar    1  UNL1        0.0186
     13 C         -10.8657  -19.0025   23.4538 C.ar    1  UNL1        0.0553
     14 C         -11.2251  -18.1392   22.2808 C.ar    1  UNL1        0.0088
     15 C          -9.5552  -19.7320   23.4744 C.2     1  UNL1        0.2550
     16 O          -9.1958  -20.5952   24.6474 O.2     1  UNL1       -0.2695
     17 H         -14.9385  -18.0615   25.7239 H       1  UNL1        0.1424
     18 H         -13.8425  -19.1069   26.5072 H       1  UNL1        0.1424
     19 C          -7.2936  -20.3278   22.3430 C.3     1  UNL1        0.1188
     20 C          -6.0067  -19.5600   22.2772 C.3     1  UNL1        0.0944
     21 C          -3.5368  -19.4726   21.4760 C.3     1  UNL1        0.0897
     22 N          -4.9441  -19.9600   21.2970 N.3     1  UNL1       -0.2688
     23 C          -5.2886  -20.8475   20.1379 C.3     1  UNL1        0.0897
@<TRIPOS>BOND
     1    21    22    1
     2    22    23    1
     3    22    20    1
     4    20    19    1
     5    19     1    1
     6     1     2   am
     7     2     3    2
     8     2     4    1
     9     4     5   ar
    10     5     6   ar
    11     6     7   ar
    12     7     8   ar
    13     8     9   ar
    14     9    10   ar
    15    10    11    1
    16    10    12   ar
    17    12    13   ar
    18    13    14   ar
    19    13    15    1
    20    15    16    2
    21    15     1   am
    22    14     4   ar
    23    14     8   ar
    24    11    17    1
    25    11    18    1
@<TRIPOS>MOLECULE
*****
 23 25 0 0 0
SMALL
GASTEIGER

@<TRIPOS>ATOM
      1 N          -6.4629  -19.1628   20.9289 N.am    1  UNL1       -0.2215
      2 C          -7.8125  -19.4546   20.3429 C.2     1  UNL1        0.2550
      3 O          -7.9373  -20.3887   19.1758 O.2     1  UNL1       -0.2695
      4 C          -9.0373  -18.8124   20.9239 C.ar    1  UNL1        0.0541
      5 C         -10.3868  -19.1043   20.3379 C.ar    1  UNL1        0.0045
      6 C         -11.6115  -18.4621   20.9189 C.ar    1  UNL1        0.0001
      7 C         -11.4867  -17.5280   22.0859 C.ar    1  UNL1        0.0000
      8 C         -10.1371  -17.2362   22.6719 C.ar    1  UNL1        0.0015
      9 C         -10.0122  -16.3021   23.8390 C.ar    1  UNL1        0.0141
     10 C          -8.6627  -16.0103   24.4250 C.ar    1  UNL1        0.0417
     11 N          -8.5378  -15.0762   25.5920 N.pl3   1  UNL1       -0.3570
     12 C          -7.4379  -16.6525   23.8440 C.ar    1  UNL1        0.0186
     13 C          -7.5627  -17.5866   22.6769 C.ar    1  UNL1        0.0553
     14 C          -8.9124  -17.8784   22.0909 C.ar    1  UNL1        0.0088
     15 C          -6.3380  -18.2288   22.0959 C.2     1  UNL1        0.2550
     16 O          -4.9884  -17.9369   22.6819 O.2     1  UNL1       -0.2695
     17 H          -9.3417  -14.6548   25.9734 H       1  UNL1        0.1424
     18 H          -7.6520  -14.8847   25.9766 H       1  UNL1        0.1424
     19 C          -5.2381  -19.8050   20.3478 C.3     1  UNL1        0.1188
     20 C          -4.2761  -18.9884   19.5368 C.3     1  UNL1        0.0944
     21 C          -2.3468  -19.6720   21.1370 C.3     1  UNL1        0.0897
     22 N          -2.8290  -18.9282   19.9269 N.3     1  UNL1       -0.2688
     23 C          -1.8641  -18.1241   19.1069 C.3     1  UNL1        0.0897
@<TRIPOS>BOND
     1    21    22    1
     2    22    23    1
     3    22    20    1
     4    20    19    1
     5    19     1    1
     6     1     2   am
     7     2     3    2
     8     2     4    1
     9     4     5   ar
    10     5     6   ar
    11     6     7   ar
    12     7     8   ar
    13     8     9   ar
    14     9    10   ar
    15    10    11    1
    16    10    12   ar
    17    12    13   ar
    18    13    14   ar
    19    13    15    1
    20    15    16    2
    21    15     1   am
    22    14     4   ar
    23    14     8   ar
    24    11    17    1
    25    11    18    1
@<TRIPOS>MOLECULE
*****
 23 25 0 0 0
SMALL
GASTEIGER

@<TRIPOS>ATOM
      1 N          -4.4936  -19.1763   21.8105 N.am    1  UNL1       -0.2215
      2 C          -5.4062  -19.7929   20.7922 C.2     1  UNL1        0.2550
      3 O          -4.8821  -20.8341   19.8482 O.2     1  UNL1       -0.2695
      4 C          -6.8430  -19.3684   20.7180 C.ar    1  UNL1        0.0541
      5 C          -7.7556  -19.9850   19.6997 C.ar    1  UNL1        0.0045
      6 C          -9.1923  -19.5604   19.6255 C.ar    1  UNL1        0.0001
      7 C          -9.7164  -18.5192   20.5696 C.ar    1  UNL1        0.0000
      8 C          -8.8038  -17.9026   21.5878 C.ar    1  UNL1        0.0015
      9 C          -9.3279  -16.8614   22.5319 C.ar    1  UNL1        0.0141
     10 C          -8.4153  -16.2448   23.5501 C.ar    1  UNL1        0.0417
     11 N          -8.9394  -15.2036   24.4942 N.pl3   1  UNL1       -0.3570
     12 C          -6.9785  -16.6694   23.6244 C.ar    1  UNL1        0.0186
     13 C          -6.4544  -17.7105   22.6803 C.ar    1  UNL1        0.0553
     14 C          -7.3671  -18.3272   21.6620 C.ar    1  UNL1        0.0088
     15 C          -5.0177  -18.1351   22.7545 C.2     1  UNL1        0.2550
     16 O          -4.1050  -17.5185   23.7728 O.2     1  UNL1       -0.2695
     17 H          -9.8824  -14.9249   24.4455 H       1  UNL1        0.1424
     18 H          -8.3404  -14.7989   25.1625 H       1  UNL1        0.1424
     19 C          -3.0568  -19.6009   21.8847 C.3     1  UNL1        0.1188
     20 C          -2.0628  -19.0590   20.9007 C.3     1  UNL1        0.0944
     21 C          -2.6922  -17.4538   18.9571 C.3     1  UNL1        0.0897
     22 N          -2.2204  -17.6668   20.3650 N.3     1  UNL1       -0.2688
     23 C          -1.9063  -16.4875   21.2372 C.3     1  UNL1        0.0897
@<TRIPOS>BOND
     1    21    22    1
     2    22    23    1
     3    22    20    1
     4    20    19    1
     5    19     1    1
     6     1     2   am
     7     2     3    2
     8     2     4    1
     9     4     5   ar
    10     5     6   ar
    11     6     7   ar
    12     7     8   ar
    13     8     9   ar
    14     9    10   ar
    15    10    11    1
    16    10    12   ar
    17    12    13   ar
    18    13    14   ar
    19    13    15    1
    20    15    16    2
    21    15     1   am
    22    14     4   ar
    23    14     8   ar
    24    11    17    1
    25    11    18    1
@<TRIPOS>MOLECULE
*****
 23 25 0 0 0
SMALL
GASTEIGER

@<TRIPOS>ATOM
      1 N          -6.4540  -18.8778   21.2233 N.am    1  UNL1       -0.2215
      2 C          -6.1162  -17.9580   22.3590 C.2     1  UNL1        0.2550
      3 O          -4.6934  -17.8177   22.8128 O.2     1  UNL1       -0.2695
      4 C          -7.2013  -17.1784   23.0409 C.ar    1  UNL1        0.0541
      5 C          -6.8635  -16.2585   24.1766 C.ar    1  UNL1        0.0045
      6 C          -7.9485  -15.4790   24.8584 C.ar    1  UNL1        0.0001
      7 C          -9.3713  -15.6192   24.4046 C.ar    1  UNL1        0.0000
      8 C          -9.7091  -16.5391   23.2689 C.ar    1  UNL1        0.0015
      9 C         -11.1319  -16.6793   22.8151 C.ar    1  UNL1        0.0141
     10 C         -11.4697  -17.5992   21.6795 C.ar    1  UNL1        0.0417
     11 N         -12.8925  -17.7394   21.2257 N.pl3   1  UNL1       -0.3570
     12 C         -10.3847  -18.3788   20.9976 C.ar    1  UNL1        0.0186
     13 C          -8.9618  -18.2385   21.4514 C.ar    1  UNL1        0.0553
     14 C          -8.6241  -17.3186   22.5871 C.ar    1  UNL1        0.0088
     15 C          -7.8768  -19.0181   20.7695 C.2     1  UNL1        0.2550
     16 O          -8.2146  -19.9380   19.6338 O.2     1  UNL1       -0.2695
     17 H         -13.6047  -17.2278   21.6732 H       1  UNL1        0.1424
     18 H         -13.1142  -18.3432   20.4803 H       1  UNL1        0.1424
     19 C          -5.3690  -19.6574   20.5414 C.3     1  UNL1        0.1188
     20 C          -4.4232  -18.9653   19.6053 C.3     1  UNL1        0.0944
     21 C          -2.4113  -19.7464   21.0518 C.3     1  UNL1        0.0897
     22 N          -2.9518  -18.9570   19.8964 N.3     1  UNL1       -0.2688
     23 C          -2.0207  -18.1594   19.0321 C.3     1  UNL1        0.0897
@<TRIPOS>BOND
     1    21    22    1
     2    22    23    1
     3    22    20    1
     4    20    19    1
     5    19     1    1
     6     1     2   am
     7     2     3    2
     8     2     4    1
     9     4     5   ar
    10     5     6   ar
    11     6     7   ar
    12     7     8   ar
    13     8     9   ar
    14     9    10   ar
    15    10    11    1
    16    10    12   ar
    17    12    13   ar
    18    13    14   ar
    19    13    15    1
    20    15    16    2
    21    15     1   am
    22    14     4   ar
    23    14     8   ar
    24    11    17    1
    25    11    18    1
@<TRIPOS>MOLECULE
*****
 23 25 0 0 0
SMALL
GASTEIGER

@<TRIPOS>ATOM
      1 N          -8.7150  -18.5675   21.4663 N.am    1  UNL1       -0.2215
      2 C          -8.6161  -17.4503   22.4622 C.2     1  UNL1        0.2550
      3 O          -9.8501  -16.7070   22.8804 O.2     1  UNL1       -0.2695
      4 C          -7.2833  -17.0764   23.0401 C.ar    1  UNL1        0.0541
      5 C          -7.1845  -15.9591   24.0361 C.ar    1  UNL1        0.0045
      6 C          -5.8518  -15.5852   24.6139 C.ar    1  UNL1        0.0001
      7 C          -4.6178  -16.3286   24.1958 C.ar    1  UNL1        0.0000
      8 C          -4.7166  -17.4458   23.1998 C.ar    1  UNL1        0.0015
      9 C          -3.4827  -18.1891   22.7817 C.ar    1  UNL1        0.0141
     10 C          -3.5815  -19.3064   21.7857 C.ar    1  UNL1        0.0417
     11 N          -2.3476  -20.0497   21.3676 N.pl3   1  UNL1       -0.3570
     12 C          -4.9143  -19.6803   21.2078 C.ar    1  UNL1        0.0186
     13 C          -6.1483  -18.9370   21.6260 C.ar    1  UNL1        0.0553
     14 C          -6.0494  -17.8197   22.6220 C.ar    1  UNL1        0.0088
     15 C          -7.4810  -19.3109   21.0481 C.2     1  UNL1        0.2550
     16 O          -7.5799  -20.4282   20.0521 O.2     1  UNL1       -0.2695
     17 H          -1.4728  -19.8043   21.7468 H       1  UNL1        0.1424
     18 H          -2.4124  -20.7830   20.7139 H       1  UNL1        0.1424
     19 C         -10.0478  -18.9415   20.8884 C.3     1  UNL1        0.1188
     20 C         -10.6620  -18.0969   19.8117 C.3     1  UNL1        0.0944
     21 C         -12.7348  -17.4375   21.2326 C.3     1  UNL1        0.0897
     22 N         -11.7435  -17.1154   20.1538 N.3     1  UNL1       -0.2688
     23 C         -11.8337  -15.8118   19.4173 C.3     1  UNL1        0.0897
@<TRIPOS>BOND
     1    21    22    1
     2    22    23    1
     3    22    20    1
     4    20    19    1
     5    19     1    1
     6     1     2   am
     7     2     3    2
     8     2     4    1
     9     4     5   ar
    10     5     6   ar
    11     6     7   ar
    12     7     8   ar
    13     8     9   ar
    14     9    10   ar
    15    10    11    1
    16    10    12   ar
    17    12    13   ar
    18    13    14   ar
    19    13    15    1
    20    15    16    2
    21    15     1   am
    22    14     4   ar
    23    14     8   ar
    24    11    17    1
    25    11    18    1
@<TRIPOS>MOLECULE
*****
 23 25 0 0 0
SMALL
GASTEIGER

@<TRIPOS>ATOM
      1 N          -8.7785  -18.1163   21.5178 N.am    1  UNL1       -0.2215
      2 C          -8.6468  -17.0205   22.5337 C.2     1  UNL1        0.2550
      3 O          -9.8449  -16.2017   22.9132 O.2     1  UNL1       -0.2695
      4 C          -7.3170  -16.7436   23.1701 C.ar    1  UNL1        0.0541
      5 C          -7.1853  -15.6479   24.1860 C.ar    1  UNL1        0.0045
      6 C          -5.8556  -15.3710   24.8223 C.ar    1  UNL1        0.0001
      7 C          -4.6574  -16.1898   24.4428 C.ar    1  UNL1        0.0000
      8 C          -4.7891  -17.2855   23.4270 C.ar    1  UNL1        0.0015
      9 C          -3.5910  -18.1044   23.0475 C.ar    1  UNL1        0.0141
     10 C          -3.7226  -19.2001   22.0316 C.ar    1  UNL1        0.0417
     11 N          -2.5245  -20.0189   21.6521 N.pl3   1  UNL1       -0.3570
     12 C          -5.0525  -19.4770   21.3952 C.ar    1  UNL1        0.0186
     13 C          -6.2506  -18.6582   21.7747 C.ar    1  UNL1        0.0553
     14 C          -6.1189  -17.5624   22.7906 C.ar    1  UNL1        0.0088
     15 C          -7.5803  -18.9351   21.1383 C.2     1  UNL1        0.2550
     16 O          -7.7121  -20.0309   20.1224 O.2     1  UNL1       -0.2695
     17 H          -1.6517  -19.8372   22.0698 H       1  UNL1        0.1424
     18 H          -2.6109  -20.7381   20.9853 H       1  UNL1        0.1424
     19 C         -10.1083  -18.3932   20.8814 C.3     1  UNL1        0.1188
     20 C         -11.0716  -19.3375   21.5374 C.3     1  UNL1        0.0944
     21 C         -12.5887  -18.2371   23.3367 C.3     1  UNL1        0.0897
     22 N         -11.4495  -19.1438   22.9760 N.3     1  UNL1       -0.2688
     23 C         -10.6882  -19.8569   24.0540 C.3     1  UNL1        0.0897
@<TRIPOS>BOND
     1    21    22    1
     2    22    23    1
     3    22    20    1
     4    20    19    1
     5    19     1    1
     6     1     2   am
     7     2     3    2
     8     2     4    1
     9     4     5   ar
    10     5     6   ar
    11     6     7   ar
    12     7     8   ar
    13     8     9   ar
    14     9    10   ar
    15    10    11    1
    16    10    12   ar
    17    12    13   ar
    18    13    14   ar
    19    13    15    1
    20    15    16    2
    21    15     1   am
    22    14     4   ar
    23    14     8   ar
    24    11    17    1
    25    11    18    1
@<TRIPOS>MOLECULE
*****
 23 25 0 0 0
SMALL
GASTEIGER

@<TRIPOS>ATOM
      1 N          -8.7211  -18.5912   21.4905 N.am    1  UNL1       -0.2215
      2 C          -7.4179  -19.1709   21.0263 C.2     1  UNL1        0.2550
      3 O          -7.4009  -20.1979   19.9331 O.2     1  UNL1       -0.2695
      4 C          -6.1316  -18.7237   21.6553 C.ar    1  UNL1        0.0541
      5 C          -4.8284  -19.3034   21.1911 C.ar    1  UNL1        0.0045
      6 C          -3.5423  -18.8562   21.8201 C.ar    1  UNL1        0.0001
      7 C          -3.5593  -17.8292   22.9133 C.ar    1  UNL1        0.0000
      8 C          -4.8625  -17.2495   23.3774 C.ar    1  UNL1        0.0015
      9 C          -4.8795  -16.2225   24.4706 C.ar    1  UNL1        0.0141
     10 C          -6.1828  -15.6427   24.9348 C.ar    1  UNL1        0.0417
     11 N          -6.1998  -14.6157   26.0279 N.pl3   1  UNL1       -0.3570
     12 C          -7.4690  -16.0900   24.3058 C.ar    1  UNL1        0.0186
     13 C          -7.4520  -17.1170   23.2126 C.ar    1  UNL1        0.0553
     14 C          -6.1487  -17.6967   22.7485 C.ar    1  UNL1        0.0088
     15 C          -8.7382  -17.5642   22.5836 C.2     1  UNL1        0.2550
     16 O         -10.0415  -16.9845   23.0478 O.2     1  UNL1       -0.2695
     17 H          -5.3556  -14.3222   26.4408 H       1  UNL1        0.1424
     18 H          -7.0552  -14.2352   26.3326 H       1  UNL1        0.1424
     19 C         -10.0074  -19.0384   20.8615 C.3     1  UNL1        0.1188
     20 C         -10.6615  -18.1929   19.8093 C.3     1  UNL1        0.0944
     21 C         -12.7474  -17.5877   21.2351 C.3     1  UNL1        0.0897
     22 N         -11.7355  -17.2180   20.1913 N.3     1  UNL1       -0.2688
     23 C         -11.7976  -15.8732   19.5297 C.3     1  UNL1        0.0897
@<TRIPOS>BOND
     1    21    22    1
     2    22    23    1
     3    22    20    1
     4    20    19    1
     5    19     1    1
     6     1     2   am
     7     2     3    2
     8     2     4    1
     9     4     5   ar
    10     5     6   ar
    11     6     7   ar
    12     7     8   ar
    13     8     9   ar
    14     9    10   ar
    15    10    11    1
    16    10    12   ar
    17    12    13   ar
    18    13    14   ar
    19    13    15    1
    20    15    16    2
    21    15     1   am
    22    14     4   ar
    23    14     8   ar
    24    11    17    1
    25    11    18    1
@<TRIPOS>MOLECULE
*****
 23 25 0 0 0
SMALL
GASTEIGER

@<TRIPOS>ATOM
      1 N          -4.0850  -18.9926   22.0407 N.am    1  UNL1       -0.2215
      2 C          -4.0107  -17.8307   22.9863 C.2     1  UNL1        0.2550
      3 O          -2.6859  -17.3992   23.5418 O.2     1  UNL1       -0.2695
      4 C          -5.2614  -17.1001   23.3765 C.ar    1  UNL1        0.0541
      5 C          -5.1872  -15.9381   24.3222 C.ar    1  UNL1        0.0045
      6 C          -6.4378  -15.2076   24.7123 C.ar    1  UNL1        0.0001
      7 C          -7.7627  -15.6391   24.1568 C.ar    1  UNL1        0.0000
      8 C          -7.8369  -16.8011   23.2112 C.ar    1  UNL1        0.0015
      9 C          -9.1618  -17.2326   22.6557 C.ar    1  UNL1        0.0141
     10 C          -9.2360  -18.3945   21.7101 C.ar    1  UNL1        0.0417
     11 N         -10.5609  -18.8260   21.1546 N.pl3   1  UNL1       -0.3570
     12 C          -7.9853  -19.1251   21.3199 C.ar    1  UNL1        0.0186
     13 C          -6.6605  -18.6936   21.8754 C.ar    1  UNL1        0.0553
     14 C          -6.5863  -17.5316   22.8210 C.ar    1  UNL1        0.0088
     15 C          -5.4098  -19.4241   21.4852 C.2     1  UNL1        0.2550
     16 O          -5.4840  -20.5861   20.5395 O.2     1  UNL1       -0.2695
     17 H         -11.3817  -18.3465   21.4107 H       1  UNL1        0.1424
     18 H         -10.6096  -19.5887   20.5339 H       1  UNL1        0.1424
     19 C          -2.8343  -19.7232   21.6505 C.3     1  UNL1        0.1188
     20 C          -2.1485  -19.3980   20.3567 C.3     1  UNL1        0.0944
     21 C          -2.9629  -17.4835   18.8006 C.3     1  UNL1        0.0897
     22 N          -2.0590  -17.9745   19.8925 N.3     1  UNL1       -0.2688
     23 C          -1.0657  -17.0420   20.5199 C.3     1  UNL1        0.0897
@<TRIPOS>BOND
     1    21    22    1
     2    22    23    1
     3    22    20    1
     4    20    19    1
     5    19     1    1
     6     1     2   am
     7     2     3    2
     8     2     4    1
     9     4     5   ar
    10     5     6   ar
    11     6     7   ar
    12     7     8   ar
    13     8     9   ar
    14     9    10   ar
    15    10    11    1
    16    10    12   ar
    17    12    13   ar
    18    13    14   ar
    19    13    15    1
    20    15    16    2
    21    15     1   am
    22    14     4   ar
    23    14     8   ar
    24    11    17    1
    25    11    18    1
