@<TRIPOS>MOLECULE
*****
 43 49 0 0 0
SMALL
GASTEIGER

@<TRIPOS>ATOM
      1 N           3.1386    0.3043   31.5174 N.am    1  UNL1       -0.2222
      2 C           2.4668    0.4135   30.1806 C.2     1  UNL1        0.3219
      3 O           2.7615   -0.4282   28.9745 O.2     1  UNL1       -0.2512
      4 N           1.4488    1.5121   30.2618 N.am    1  UNL1       -0.1907
      5 C           1.4913    2.0820   31.6486 C.2     1  UNL1        0.2529
      6 O           0.6391    3.2016   32.1683 O.2     1  UNL1       -0.2724
      7 C           2.5357    1.3355   32.4247 C.3     1  UNL1        0.1391
      8 C           3.6051    0.5052   33.0704 C.3     1  UNL1        0.0449
      9 C           3.9806    0.7474   34.5022 C.3     1  UNL1        0.0746
     10 N           3.2866    1.8200   35.2885 N.3     1  UNL1       -0.2676
     11 C           2.2172    2.6503   34.6428 C.3     1  UNL1        0.0746
     12 C           1.8418    2.4081   33.2109 C.3     1  UNL1        0.0449
     13 C           6.7383   -1.3133   31.9354 C.ar    1  UNL1        0.2293
     14 C           5.6541   -0.3433   31.5701 C.ar    1  UNL1        0.0924
     15 C           4.2229   -0.6657   31.8827 C.ar    1  UNL1        0.1453
     16 N           3.8759   -1.9580   32.5606 N.ar    1  UNL1       -0.2084
     17 C           4.9601   -2.9280   32.9259 C.ar    1  UNL1        0.2027
     18 N           6.3914   -2.6057   32.6133 N.ar    1  UNL1       -0.1892
     19 C           9.2711   -1.6053   32.4348 C.3     1  UNL1        0.2542
     20 O           8.1695   -0.9911   31.6228 O.3     1  UNL1       -0.4560
     21 C           0.5466    1.9619   29.1511 C.ar    1  UNL1        0.0622
     22 C          -0.4521    1.0093   28.5637 C.ar    1  UNL1        0.0154
     23 C          -1.3543    1.4591   27.4530 C.ar    1  UNL1        0.0010
     24 C          -1.2578    2.8615   26.9296 C.ar    1  UNL1       -0.0036
     25 C          -0.2590    3.8142   27.5170 C.ar    1  UNL1        0.0010
     26 C           0.6431    3.3643   28.6278 C.ar    1  UNL1        0.0154
     27 C          -2.1600    3.3114   25.8189 C.2     1  UNL1       -0.0176
     28 C          -1.6411    3.3825   24.4133 C.2     1  UNL1       -0.0023
     29 C          -2.5433    3.8323   23.3026 C.2     1  UNL1        0.0203
     30 C          -3.9644    4.2110   23.5975 C.2     1  UNL1        0.1007
     31 N          -5.0797    4.6879   22.7151 N.2     1  UNL1       -0.1482
     32 N          -6.2881    4.9115   23.5754 N.2     1  UNL1       -0.1467
     33 C          -5.9195    4.5729   24.9894 C.2     1  UNL1        0.1197
     34 C          -4.4834    4.1399   25.0031 C.2     1  UNL1        0.0225
     35 C          -3.5812    3.6901   26.1138 C.3     1  UNL1        0.0558
     36 C           3.6622    2.0622   36.7204 C.3     1  UNL1        0.1183
     37 C           2.6549    1.8359   37.8085 C.ar    1  UNL1        0.0712
     38 N           2.5348    0.4855   38.4505 N.ar    1  UNL1       -0.2471
     39 C           1.5275    0.2592   39.5386 C.ar    1  UNL1        0.0985
     40 C           0.6402    1.3833   39.9848 C.ar    1  UNL1        0.0203
     41 C           0.7602    2.7337   39.3429 C.ar    1  UNL1       -0.0015
     42 C           1.7675    2.9600   38.2547 C.ar    1  UNL1       -0.0069
     43 C           1.8875    4.3104   37.6128 C.3     1  UNL1        0.0323
@<TRIPOS>BOND
     1    19    20    1
     2    20    13    1
     3    13    14   ar
     4    14    15   ar
     5    15     1    1
     6     1     2   am
     7     2     3    2
     8     2     4   am
     9     4    21    1
    10    21    22   ar
    11    22    23   ar
    12    23    24   ar
    13    24    27    1
    14    27    28    2
    15    28    29    1
    16    29    30    2
    17    30    31    1
    18    31    32    2
    19    32    33    1
    20    33    34    2
    21    34    35    1
    22    24    25   ar
    23    25    26   ar
    24     4     5   am
    25     5     6    2
    26     5     7    1
    27     7     8    1
    28     8     9    1
    29     9    10    1
    30    10    36    1
    31    36    37    1
    32    37    38   ar
    33    38    39   ar
    34    39    40   ar
    35    40    41   ar
    36    41    42   ar
    37    42    43    1
    38    10    11    1
    39    11    12    1
    40    15    16   ar
    41    16    17   ar
    42    17    18   ar
    43    18    13   ar
    44     7     1    1
    45    42    37   ar
    46    26    21   ar
    47    12     7    1
    48    35    27    1
    49    34    30    1
@<TRIPOS>MOLECULE
*****
 43 49 0 0 0
SMALL
GASTEIGER

@<TRIPOS>ATOM
      1 N           2.9049    0.8351   31.5095 N.am    1  UNL1       -0.2222
      2 C           2.3568    0.7929   30.1138 C.2     1  UNL1        0.3219
      3 O           2.7529   -0.1765   29.0399 O.2     1  UNL1       -0.2512
      4 N           1.3430    1.8905   29.9805 N.am    1  UNL1       -0.1907
      5 C           1.2645    2.6109   31.2938 C.2     1  UNL1        0.2529
      6 O           0.3767    3.7786   31.6073 O.2     1  UNL1       -0.2724
      7 C           2.2298    1.9587   32.2388 C.3     1  UNL1        0.1391
      8 C           3.2312    1.2087   33.0663 C.3     1  UNL1        0.0449
      9 C           3.4780    1.6097   34.4904 C.3     1  UNL1        0.0746
     10 N           2.7235    2.7606   35.0871 N.3     1  UNL1       -0.2676
     11 C           1.7222    3.5106   34.2597 C.3     1  UNL1        0.0746
     12 C           1.4753    3.1096   32.8355 C.3     1  UNL1        0.0449
     13 C           6.4354   -0.6238   32.5850 C.ar    1  UNL1        0.2293
     14 C           5.3950    0.2961   32.0182 C.ar    1  UNL1        0.0924
     15 C           3.9453   -0.0848   32.0763 C.ar    1  UNL1        0.1453
     16 N           3.5361   -1.3856   32.7012 N.ar    1  UNL1       -0.2084
     17 C           4.5764   -2.3055   33.2680 C.ar    1  UNL1        0.2027
     18 N           6.0262   -1.9246   33.2099 N.ar    1  UNL1       -0.1892
     19 C           8.6715   -0.0898   33.7950 C.3     1  UNL1        0.2542
     20 O           7.8850   -0.2430   32.5269 O.3     1  UNL1       -0.4560
     21 C           0.5474    2.2112   28.7501 C.ar    1  UNL1        0.0622
     22 C          -0.1684    1.1179   28.0137 C.ar    1  UNL1        0.0154
     23 C          -0.9640    1.4386   26.7832 C.ar    1  UNL1        0.0010
     24 C          -1.0439    2.8527   26.2891 C.ar    1  UNL1       -0.0036
     25 C          -0.3280    3.9460   27.0255 C.ar    1  UNL1        0.0010
     26 C           0.4676    3.6252   28.2560 C.ar    1  UNL1        0.0154
     27 C          -1.8395    3.1734   25.0586 C.2     1  UNL1       -0.0176
     28 C          -1.1532    3.2841   23.7294 C.2     1  UNL1       -0.0023
     29 C          -1.9488    3.6048   22.4989 C.2     1  UNL1        0.0203
     30 C          -3.4308    3.8149   22.5977 C.2     1  UNL1        0.1007
     31 N          -4.4692    4.1406   21.5654 N.2     1  UNL1       -0.1482
     32 N          -5.7974    4.2312   22.2567 N.2     1  UNL1       -0.1467
     33 C          -5.5798    3.9615   23.7161 C.2     1  UNL1        0.1197
     34 C          -4.1171    3.7042   23.9269 C.2     1  UNL1        0.0225
     35 C          -3.3215    3.3835   25.1573 C.3     1  UNL1        0.0558
     36 C           2.9705    3.1615   36.5113 C.3     1  UNL1        0.1183
     37 C           2.2030    2.5037   37.6195 C.ar    1  UNL1        0.0712
     38 N           0.9287    3.1188   38.1174 N.ar    1  UNL1       -0.2471
     39 C           0.1612    2.4608   39.2256 C.ar    1  UNL1        0.0985
     40 C           0.6680    1.1878   39.8359 C.ar    1  UNL1        0.0203
     41 C           1.9423    0.5727   39.3381 C.ar    1  UNL1       -0.0015
     42 C           2.7097    1.2305   38.2299 C.ar    1  UNL1       -0.0069
     43 C           3.9840    0.6154   37.7320 C.3     1  UNL1        0.0323
@<TRIPOS>BOND
     1    19    20    1
     2    20    13    1
     3    13    14   ar
     4    14    15   ar
     5    15     1    1
     6     1     2   am
     7     2     3    2
     8     2     4   am
     9     4    21    1
    10    21    22   ar
    11    22    23   ar
    12    23    24   ar
    13    24    27    1
    14    27    28    2
    15    28    29    1
    16    29    30    2
    17    30    31    1
    18    31    32    2
    19    32    33    1
    20    33    34    2
    21    34    35    1
    22    24    25   ar
    23    25    26   ar
    24     4     5   am
    25     5     6    2
    26     5     7    1
    27     7     8    1
    28     8     9    1
    29     9    10    1
    30    10    36    1
    31    36    37    1
    32    37    38   ar
    33    38    39   ar
    34    39    40   ar
    35    40    41   ar
    36    41    42   ar
    37    42    43    1
    38    10    11    1
    39    11    12    1
    40    15    16   ar
    41    16    17   ar
    42    17    18   ar
    43    18    13   ar
    44     7     1    1
    45    42    37   ar
    46    26    21   ar
    47    12     7    1
    48    35    27    1
    49    34    30    1
@<TRIPOS>MOLECULE
*****
 43 49 0 0 0
SMALL
GASTEIGER

@<TRIPOS>ATOM
      1 N           3.6330   -1.2214   21.6451 N.am    1  UNL1       -0.2222
      2 C           2.4188   -0.3447   21.7306 C.2     1  UNL1        0.3219
      3 O           1.5250    0.0375   20.5882 O.2     1  UNL1       -0.2512
      4 N           2.2553    0.0827   23.1592 N.am    1  UNL1       -0.1907
      5 C           3.3685   -0.5299   23.9565 C.2     1  UNL1        0.2529
      6 O           3.5911   -0.3654   25.4307 O.2     1  UNL1       -0.2724
      7 C           4.2199   -1.3359   23.0208 C.3     1  UNL1        0.1391
      8 C           4.9732   -2.0974   21.9708 C.3     1  UNL1        0.0449
      9 C           6.1967   -2.8803   22.3450 C.3     1  UNL1        0.0746
     10 N           6.6669   -2.9016   23.7692 N.3     1  UNL1       -0.2676
     11 C           5.9136   -2.1401   24.8193 C.3     1  UNL1        0.0746
     12 C           4.6901   -1.3572   24.4450 C.3     1  UNL1        0.0449
     13 C           5.6147   -1.7542   18.2483 C.ar    1  UNL1        0.2293
     14 C           5.0812   -1.1058   19.4912 C.ar    1  UNL1        0.0924
     15 C           4.1665   -1.8697   20.4022 C.ar    1  UNL1        0.1453
     16 N           3.7854   -3.2820   20.0701 N.ar    1  UNL1       -0.2084
     17 C           4.3189   -3.9304   18.8272 C.ar    1  UNL1        0.2027
     18 N           5.2336   -3.1664   17.9162 N.ar    1  UNL1       -0.1892
     19 C           6.2443    0.4484   17.0227 C.3     1  UNL1        0.2542
     20 O           6.5294   -0.9903   17.3373 O.3     1  UNL1       -0.4560
     21 C           1.1695    0.9672   23.6961 C.ar    1  UNL1        0.0622
     22 C           0.5608    2.0228   22.8213 C.ar    1  UNL1        0.0154
     23 C          -0.5251    2.9074   23.3583 C.ar    1  UNL1        0.0010
     24 C          -1.0024    2.7363   24.7700 C.ar    1  UNL1       -0.0036
     25 C          -0.3938    1.6807   25.6449 C.ar    1  UNL1        0.0010
     26 C           0.6922    0.7962   25.1078 C.ar    1  UNL1        0.0154
     27 C          -2.0884    3.6209   25.3069 C.2     1  UNL1       -0.0176
     28 C          -1.8048    4.5442   26.4546 C.2     1  UNL1       -0.0023
     29 C          -2.8907    5.4288   26.9915 C.2     1  UNL1        0.0203
     30 C          -4.2602    5.3900   26.3807 C.2     1  UNL1        0.1007
     31 N          -5.5208    6.1398   26.6949 N.2     1  UNL1       -0.1482
     32 N          -6.5835    5.6798   25.7414 N.2     1  UNL1       -0.1467
     33 C          -5.9797    4.6459   24.8380 C.2     1  UNL1        0.1197
     34 C          -4.5438    4.4667   25.2331 C.2     1  UNL1        0.0225
     35 C          -3.4579    3.5822   24.6962 C.3     1  UNL1        0.0558
     36 C           7.8905   -3.6846   24.1434 C.3     1  UNL1        0.1183
     37 C           7.7512   -5.0514   24.7455 C.ar    1  UNL1        0.0712
     38 N           7.0795   -5.2200   26.0760 N.ar    1  UNL1       -0.2471
     39 C           6.9403   -6.5869   26.6780 C.ar    1  UNL1        0.0985
     40 C           7.4728   -7.7850   25.9495 C.ar    1  UNL1        0.0203
     41 C           8.1445   -7.6164   24.6190 C.ar    1  UNL1       -0.0015
     42 C           8.2838   -6.2496   24.0170 C.ar    1  UNL1       -0.0069
     43 C           8.9555   -6.0810   22.6864 C.3     1  UNL1        0.0323
@<TRIPOS>BOND
     1    19    20    1
     2    20    13    1
     3    13    14   ar
     4    14    15   ar
     5    15     1    1
     6     1     2   am
     7     2     3    2
     8     2     4   am
     9     4    21    1
    10    21    22   ar
    11    22    23   ar
    12    23    24   ar
    13    24    27    1
    14    27    28    2
    15    28    29    1
    16    29    30    2
    17    30    31    1
    18    31    32    2
    19    32    33    1
    20    33    34    2
    21    34    35    1
    22    24    25   ar
    23    25    26   ar
    24     4     5   am
    25     5     6    2
    26     5     7    1
    27     7     8    1
    28     8     9    1
    29     9    10    1
    30    10    36    1
    31    36    37    1
    32    37    38   ar
    33    38    39   ar
    34    39    40   ar
    35    40    41   ar
    36    41    42   ar
    37    42    43    1
    38    10    11    1
    39    11    12    1
    40    15    16   ar
    41    16    17   ar
    42    17    18   ar
    43    18    13   ar
    44     7     1    1
    45    42    37   ar
    46    26    21   ar
    47    12     7    1
    48    35    27    1
    49    34    30    1
@<TRIPOS>MOLECULE
*****
 43 49 0 0 0
SMALL
GASTEIGER

@<TRIPOS>ATOM
      1 N           4.3244   -0.1769   31.4944 N.am    1  UNL1       -0.2222
      2 C           3.6042    0.0509   30.1984 C.2     1  UNL1        0.3219
      3 O           3.9821   -0.5262   28.8664 O.2     1  UNL1       -0.2512
      4 N           2.4398    0.9572   30.4682 N.am    1  UNL1       -0.1907
      5 C           2.4402    1.2895   31.9309 C.2     1  UNL1        0.2529
      6 O           1.4499    2.1684   32.6358 O.2     1  UNL1       -0.2724
      7 C           3.6050    0.5886   32.5652 C.3     1  UNL1        0.1391
      8 C           4.8028   -0.1688   33.0566 C.3     1  UNL1        0.0449
      9 C           5.1817   -0.1138   34.5070 C.3     1  UNL1        0.0746
     10 N           4.3627    0.6985   35.4658 N.3     1  UNL1       -0.2676
     11 C           3.1648    1.4559   34.9743 C.3     1  UNL1        0.0746
     12 C           2.7860    1.4009   33.5240 C.3     1  UNL1        0.0449
     13 C           6.6375   -3.3423   32.1104 C.ar    1  UNL1        0.2293
     14 C           5.4130   -2.4974   31.9188 C.ar    1  UNL1        0.0924
     15 C           5.5489   -1.0218   31.6859 C.ar    1  UNL1        0.1453
     16 N           6.9092   -0.3912   31.6446 N.ar    1  UNL1       -0.2084
     17 C           8.1337   -1.2360   31.8361 C.ar    1  UNL1        0.2027
     18 N           7.9978   -2.7117   32.0690 N.ar    1  UNL1       -0.1892
     19 C           7.0532   -5.7890   31.3420 C.3     1  UNL1        0.2542
     20 O           6.5017   -4.8178   32.3433 O.3     1  UNL1       -0.4560
     21 C           1.4489    1.4454   29.4536 C.ar    1  UNL1        0.0622
     22 C           0.3835    0.5222   28.9411 C.ar    1  UNL1        0.0154
     23 C          -0.6075    1.0105   27.9264 C.ar    1  UNL1        0.0010
     24 C          -0.5330    2.4219   27.4241 C.ar    1  UNL1       -0.0036
     25 C           0.5325    3.3452   27.9365 C.ar    1  UNL1        0.0010
     26 C           1.5233    2.8569   28.9513 C.ar    1  UNL1        0.0154
     27 C          -1.5239    2.9102   26.4093 C.2     1  UNL1       -0.0176
     28 C          -1.1984    2.8360   24.9470 C.2     1  UNL1       -0.0023
     29 C          -2.1893    3.3242   23.9323 C.2     1  UNL1        0.0203
     30 C          -3.5058    3.8867   24.3800 C.2     1  UNL1        0.1007
     31 N          -4.6721    4.4407   23.6166 N.2     1  UNL1       -0.1482
     32 N          -5.7187    4.8574   24.6073 N.2     1  UNL1       -0.1467
     33 C          -5.1991    4.5609   25.9828 C.2     1  UNL1        0.1197
     34 C          -3.8314    3.9610   25.8423 C.2     1  UNL1        0.0225
     35 C          -2.8405    3.4727   26.8570 C.3     1  UNL1        0.0558
     36 C           4.7415    0.7534   36.9162 C.3     1  UNL1        0.1183
     37 C           4.4796    1.9968   37.7132 C.ar    1  UNL1        0.0712
     38 N           5.4538    3.1365   37.6671 N.ar    1  UNL1       -0.2471
     39 C           5.1917    4.3799   38.4641 C.ar    1  UNL1        0.0985
     40 C           3.9555    4.4837   39.3073 C.ar    1  UNL1        0.0203
     41 C           2.9813    3.3440   39.3535 C.ar    1  UNL1       -0.0015
     42 C           3.2433    2.1006   38.5564 C.ar    1  UNL1       -0.0069
     43 C           2.2691    0.9610   38.6026 C.3     1  UNL1        0.0323
@<TRIPOS>BOND
     1    19    20    1
     2    20    13    1
     3    13    14   ar
     4    14    15   ar
     5    15     1    1
     6     1     2   am
     7     2     3    2
     8     2     4   am
     9     4    21    1
    10    21    22   ar
    11    22    23   ar
    12    23    24   ar
    13    24    27    1
    14    27    28    2
    15    28    29    1
    16    29    30    2
    17    30    31    1
    18    31    32    2
    19    32    33    1
    20    33    34    2
    21    34    35    1
    22    24    25   ar
    23    25    26   ar
    24     4     5   am
    25     5     6    2
    26     5     7    1
    27     7     8    1
    28     8     9    1
    29     9    10    1
    30    10    36    1
    31    36    37    1
    32    37    38   ar
    33    38    39   ar
    34    39    40   ar
    35    40    41   ar
    36    41    42   ar
    37    42    43    1
    38    10    11    1
    39    11    12    1
    40    15    16   ar
    41    16    17   ar
    42    17    18   ar
    43    18    13   ar
    44     7     1    1
    45    42    37   ar
    46    26    21   ar
    47    12     7    1
    48    35    27    1
    49    34    30    1
@<TRIPOS>MOLECULE
*****
 43 49 0 0 0
SMALL
GASTEIGER

@<TRIPOS>ATOM
      1 N           3.4533   -0.5892   22.3287 N.am    1  UNL1       -0.2222
      2 C           2.2156    0.2545   22.4083 C.2     1  UNL1        0.3219
      3 O           1.3731    0.6955   21.2482 O.2     1  UNL1       -0.2512
      4 N           1.9684    0.5799   23.8516 N.am    1  UNL1       -0.1907
      5 C           3.0532   -0.0628   24.6640 C.2     1  UNL1        0.2529
      6 O           3.1955    0.0051   26.1557 O.2     1  UNL1       -0.2724
      7 C           3.9710   -0.7854   23.7229 C.3     1  UNL1        0.1391
      8 C           4.7956   -1.4578   22.6656 C.3     1  UNL1        0.0449
      9 C           6.0166   -2.2392   23.0509 C.3     1  UNL1        0.0746
     10 N           6.4130   -2.3482   24.4935 N.3     1  UNL1       -0.2676
     11 C           5.5884   -1.6757   25.5507 C.3     1  UNL1        0.0746
     12 C           4.3674   -0.8943   25.1654 C.3     1  UNL1        0.0449
     13 C           4.2128   -3.0083   19.2757 C.ar    1  UNL1        0.2293
     14 C           3.6004   -2.4575   20.5293 C.ar    1  UNL1        0.0924
     15 C           4.0657   -1.1401   21.0752 C.ar    1  UNL1        0.1453
     16 N           5.1435   -0.3736   20.3674 N.ar    1  UNL1       -0.2084
     17 C           5.7560   -0.9244   19.1139 C.ar    1  UNL1        0.2027
     18 N           5.2906   -2.2418   18.5680 N.ar    1  UNL1       -0.1892
     19 C           4.6734   -5.5058   18.7281 C.3     1  UNL1        0.2542
     20 O           3.7475   -4.3257   18.7298 O.3     1  UNL1       -0.4560
     21 C           0.8353    1.4032   24.3882 C.ar    1  UNL1        0.0622
     22 C           0.3162    1.1527   25.7731 C.ar    1  UNL1        0.0154
     23 C          -0.8169    1.9761   26.3097 C.ar    1  UNL1        0.0010
     24 C          -1.4311    3.0501   25.4615 C.ar    1  UNL1       -0.0036
     25 C          -0.9120    3.3006   24.0765 C.ar    1  UNL1        0.0010
     26 C           0.2211    2.4772   23.5400 C.ar    1  UNL1        0.0154
     27 C          -2.5642    3.8735   25.9981 C.2     1  UNL1       -0.0176
     28 C          -3.9671    3.6091   25.5378 C.2     1  UNL1       -0.0023
     29 C          -5.1003    4.4326   26.0744 C.2     1  UNL1        0.0203
     30 C          -4.8304    5.5203   27.0714 C.2     1  UNL1        0.1007
     31 N          -5.7381    6.4880   27.7712 N.2     1  UNL1       -0.1482
     32 N          -4.8960    7.3506   28.6641 N.2     1  UNL1       -0.1467
     33 C          -3.4681    6.9159   28.5161 C.2     1  UNL1        0.1197
     34 C          -3.4275    5.7847   27.5317 C.2     1  UNL1        0.0225
     35 C          -2.2944    4.9613   26.9951 C.3     1  UNL1        0.0558
     36 C           7.6341   -3.1296   24.8788 C.3     1  UNL1        0.1183
     37 C           7.5125   -4.5796   25.2432 C.ar    1  UNL1        0.0712
     38 N           6.8322   -4.9777   26.5194 N.ar    1  UNL1       -0.2471
     39 C           6.7106   -6.4277   26.8838 C.ar    1  UNL1        0.0985
     40 C           7.2694   -7.4795   25.9720 C.ar    1  UNL1        0.0203
     41 C           7.9497   -7.0814   24.6958 C.ar    1  UNL1       -0.0015
     42 C           8.0713   -5.6315   24.3314 C.ar    1  UNL1       -0.0069
     43 C           8.7516   -5.2334   23.0552 C.3     1  UNL1        0.0323
@<TRIPOS>BOND
     1    19    20    1
     2    20    13    1
     3    13    14   ar
     4    14    15   ar
     5    15     1    1
     6     1     2   am
     7     2     3    2
     8     2     4   am
     9     4    21    1
    10    21    22   ar
    11    22    23   ar
    12    23    24   ar
    13    24    27    1
    14    27    28    2
    15    28    29    1
    16    29    30    2
    17    30    31    1
    18    31    32    2
    19    32    33    1
    20    33    34    2
    21    34    35    1
    22    24    25   ar
    23    25    26   ar
    24     4     5   am
    25     5     6    2
    26     5     7    1
    27     7     8    1
    28     8     9    1
    29     9    10    1
    30    10    36    1
    31    36    37    1
    32    37    38   ar
    33    38    39   ar
    34    39    40   ar
    35    40    41   ar
    36    41    42   ar
    37    42    43    1
    38    10    11    1
    39    11    12    1
    40    15    16   ar
    41    16    17   ar
    42    17    18   ar
    43    18    13   ar
    44     7     1    1
    45    42    37   ar
    46    26    21   ar
    47    12     7    1
    48    35    27    1
    49    34    30    1
@<TRIPOS>MOLECULE
*****
 43 49 0 0 0
SMALL
GASTEIGER

@<TRIPOS>ATOM
      1 N           1.5628    1.7866   24.2631 N.am    1  UNL1       -0.2222
      2 C           1.6765    1.9478   25.7501 C.2     1  UNL1        0.3219
      3 O           1.0929    3.0652   26.5630 O.2     1  UNL1       -0.2512
      4 N           2.4763    0.7953   26.2815 N.am    1  UNL1       -0.1907
      5 C           2.8568   -0.0781   25.1229 C.2     1  UNL1        0.2529
      6 O           3.6607   -1.3422   25.1984 O.2     1  UNL1       -0.2724
      7 C           2.2923    0.5345   23.8754 C.3     1  UNL1        0.1391
      8 C           1.6699    1.2606   22.7199 C.3     1  UNL1        0.0449
      9 C           1.8102    0.7166   21.3291 C.3     1  UNL1        0.0746
     10 N           2.5730   -0.5534   21.0938 N.3     1  UNL1       -0.2676
     11 C           3.1954   -1.2794   22.2494 C.3     1  UNL1        0.0746
     12 C           3.0550   -0.7355   23.6402 C.3     1  UNL1        0.0449
     13 C          -1.3104    3.3954   22.0482 C.ar    1  UNL1        0.2293
     14 C          -0.5932    2.4675   22.9834 C.ar    1  UNL1        0.0924
     15 C           0.8456    2.7145   23.3279 C.ar    1  UNL1        0.1453
     16 N           1.5672    3.8895   22.7374 N.ar    1  UNL1       -0.2084
     17 C           0.8501    4.8174   21.8023 C.ar    1  UNL1        0.2027
     18 N          -0.5888    4.5704   21.4577 N.ar    1  UNL1       -0.1892
     19 C          -3.2616    3.4883   20.3354 C.3     1  UNL1        0.2542
     20 O          -2.7492    3.1485   21.7036 O.3     1  UNL1       -0.4560
     21 C           2.8328    0.5579   27.7190 C.ar    1  UNL1        0.0622
     22 C           4.0750    1.1707   28.2946 C.ar    1  UNL1        0.0154
     23 C           4.4315    0.9334   29.7322 C.ar    1  UNL1        0.0010
     24 C           3.5459    0.0832   30.5941 C.ar    1  UNL1       -0.0036
     25 C           2.3036   -0.5296   30.0184 C.ar    1  UNL1        0.0010
     26 C           1.9471   -0.2922   28.5809 C.ar    1  UNL1        0.0154
     27 C           3.9024   -0.1541   32.0317 C.2     1  UNL1       -0.0176
     28 C           4.2963   -1.5270   32.4899 C.2     1  UNL1       -0.0023
     29 C           4.6528   -1.7644   33.9275 C.2     1  UNL1        0.0203
     30 C           4.6154   -0.6287   34.9067 C.2     1  UNL1        0.1007
     31 N           4.9125   -0.5599   36.3754 N.2     1  UNL1       -0.1482
     32 N           4.7021    0.8557   36.8249 N.2     1  UNL1       -0.1467
     33 C           4.2752    1.6616   35.6341 C.2     1  UNL1        0.1197
     34 C           4.2216    0.7442   34.4485 C.2     1  UNL1        0.0225
     35 C           3.8651    0.9815   33.0110 C.3     1  UNL1        0.0558
     36 C           2.7133   -1.0973   19.7029 C.3     1  UNL1        0.1183
     37 C           4.0701   -1.4477   19.1680 C.ar    1  UNL1        0.0712
     38 N           5.0712   -0.3646   18.8948 N.ar    1  UNL1       -0.2471
     39 C           6.4281   -0.7151   18.3598 C.ar    1  UNL1        0.0985
     40 C           6.7838   -2.1486   18.0980 C.ar    1  UNL1        0.0203
     41 C           5.7826   -3.2317   18.3712 C.ar    1  UNL1       -0.0015
     42 C           4.4258   -2.8813   18.9062 C.ar    1  UNL1       -0.0069
     43 C           3.4247   -3.9643   19.1794 C.3     1  UNL1        0.0323
@<TRIPOS>BOND
     1    19    20    1
     2    20    13    1
     3    13    14   ar
     4    14    15   ar
     5    15     1    1
     6     1     2   am
     7     2     3    2
     8     2     4   am
     9     4    21    1
    10    21    22   ar
    11    22    23   ar
    12    23    24   ar
    13    24    27    1
    14    27    28    2
    15    28    29    1
    16    29    30    2
    17    30    31    1
    18    31    32    2
    19    32    33    1
    20    33    34    2
    21    34    35    1
    22    24    25   ar
    23    25    26   ar
    24     4     5   am
    25     5     6    2
    26     5     7    1
    27     7     8    1
    28     8     9    1
    29     9    10    1
    30    10    36    1
    31    36    37    1
    32    37    38   ar
    33    38    39   ar
    34    39    40   ar
    35    40    41   ar
    36    41    42   ar
    37    42    43    1
    38    10    11    1
    39    11    12    1
    40    15    16   ar
    41    16    17   ar
    42    17    18   ar
    43    18    13   ar
    44     7     1    1
    45    42    37   ar
    46    26    21   ar
    47    12     7    1
    48    35    27    1
    49    34    30    1
@<TRIPOS>MOLECULE
*****
 43 49 0 0 0
SMALL
GASTEIGER

@<TRIPOS>ATOM
      1 N           5.6004   -0.4333   32.7042 N.am    1  UNL1       -0.2222
      2 C           6.0526    0.0055   34.0655 C.2     1  UNL1        0.3219
      3 O           7.3428   -0.3730   34.7305 O.2     1  UNL1       -0.2512
      4 N           4.9881    0.8893   34.6450 N.am    1  UNL1       -0.1907
      5 C           3.8780    0.9967   33.6420 C.2     1  UNL1        0.2529
      6 O           2.6118    1.7833   33.8090 O.2     1  UNL1       -0.2724
      7 C           4.2564    0.1792   32.4424 C.3     1  UNL1        0.1391
      8 C           4.7676   -0.6732   31.3191 C.3     1  UNL1        0.0449
      9 C           3.9462   -0.8474   30.0762 C.3     1  UNL1        0.0746
     10 N           2.6137   -0.1692   29.9566 N.3     1  UNL1       -0.2676
     11 C           2.1025    0.6833   31.0799 C.3     1  UNL1        0.0746
     12 C           2.9238    0.8575   32.3228 C.3     1  UNL1        0.0449
     13 C           6.9323   -3.7090   30.9026 C.ar    1  UNL1        0.2293
     14 C           6.1737   -2.8146   31.8378 C.ar    1  UNL1        0.0924
     15 C           6.3589   -1.3277   31.7690 C.ar    1  UNL1        0.1453
     16 N           7.3027   -0.7351   30.7649 N.ar    1  UNL1       -0.2084
     17 C           8.0612   -1.6294   29.8296 C.ar    1  UNL1        0.2027
     18 N           7.8760   -3.1164   29.8985 N.ar    1  UNL1       -0.1892
     19 C           7.4974   -6.0894   30.0286 C.3     1  UNL1        0.2542
     20 O           6.7472   -5.1959   30.9714 O.3     1  UNL1       -0.4560
     21 C           5.0269    1.5497   35.9912 C.ar    1  UNL1        0.0622
     22 C           5.8075    2.8161   36.1831 C.ar    1  UNL1        0.0154
     23 C           5.8463    3.4765   37.5293 C.ar    1  UNL1        0.0010
     24 C           5.1045    2.8706   38.6837 C.ar    1  UNL1       -0.0036
     25 C           4.3238    1.6041   38.4918 C.ar    1  UNL1        0.0010
     26 C           4.2851    0.9437   37.1455 C.ar    1  UNL1        0.0154
     27 C           5.1433    3.5310   40.0299 C.2     1  UNL1       -0.0176
     28 C           6.3379    3.3517   40.9191 C.2     1  UNL1       -0.0023
     29 C           6.3767    4.0121   42.2654 C.2     1  UNL1        0.0203
     30 C           5.2208    4.8519   42.7223 C.2     1  UNL1        0.1007
     31 N           4.9767    5.6201   43.9873 N.2     1  UNL1       -0.1482
     32 N           3.6311    6.2743   43.8799 N.2     1  UNL1       -0.1467
     33 C           3.0437    5.9103   42.5486 C.2     1  UNL1        0.1197
     34 C           4.0262    5.0311   41.8331 C.2     1  UNL1        0.0225
     35 C           3.9874    4.3708   40.4870 C.3     1  UNL1        0.0558
     36 C           1.7923   -0.3434   28.7135 C.3     1  UNL1        0.1183
     37 C           1.0476    0.8240   28.1369 C.ar    1  UNL1        0.0712
     38 N           1.8027    1.9968   27.5852 N.ar    1  UNL1       -0.2471
     39 C           1.0579    3.1643   27.0086 C.ar    1  UNL1        0.0985
     40 C          -0.4418    3.1588   26.9835 C.ar    1  UNL1        0.0203
     41 C          -1.1969    1.9860   27.5351 C.ar    1  UNL1       -0.0015
     42 C          -0.4522    0.8186   28.1118 C.ar    1  UNL1       -0.0069
     43 C          -1.2073   -0.3543   28.6634 C.3     1  UNL1        0.0323
@<TRIPOS>BOND
     1    19    20    1
     2    20    13    1
     3    13    14   ar
     4    14    15   ar
     5    15     1    1
     6     1     2   am
     7     2     3    2
     8     2     4   am
     9     4    21    1
    10    21    22   ar
    11    22    23   ar
    12    23    24   ar
    13    24    27    1
    14    27    28    2
    15    28    29    1
    16    29    30    2
    17    30    31    1
    18    31    32    2
    19    32    33    1
    20    33    34    2
    21    34    35    1
    22    24    25   ar
    23    25    26   ar
    24     4     5   am
    25     5     6    2
    26     5     7    1
    27     7     8    1
    28     8     9    1
    29     9    10    1
    30    10    36    1
    31    36    37    1
    32    37    38   ar
    33    38    39   ar
    34    39    40   ar
    35    40    41   ar
    36    41    42   ar
    37    42    43    1
    38    10    11    1
    39    11    12    1
    40    15    16   ar
    41    16    17   ar
    42    17    18   ar
    43    18    13   ar
    44     7     1    1
    45    42    37   ar
    46    26    21   ar
    47    12     7    1
    48    35    27    1
    49    34    30    1
@<TRIPOS>MOLECULE
*****
 43 49 0 0 0
SMALL
GASTEIGER

@<TRIPOS>ATOM
      1 N           3.4612   -0.1068   30.5824 N.am    1  UNL1       -0.2222
      2 C           2.2109    0.6780   30.3162 C.2     1  UNL1        0.3219
      3 O           1.3266    1.3060   31.3524 O.2     1  UNL1       -0.2512
      4 N           2.0001    0.7247   28.8317 N.am    1  UNL1       -0.1907
      5 C           3.1201   -0.0313   28.1805 C.2     1  UNL1        0.2529
      6 O           3.3047   -0.2373   26.7063 O.2     1  UNL1       -0.2724
      7 C           4.0231   -0.5452   29.2625 C.3     1  UNL1        0.1391
      8 C           4.8287   -0.9906   30.4468 C.3     1  UNL1        0.0449
      9 C           6.0748   -1.8007   30.2443 C.3     1  UNL1        0.0746
     10 N           6.5153   -2.1653   28.8576 N.3     1  UNL1       -0.2676
     11 C           5.7097   -1.7199   27.6733 C.3     1  UNL1        0.0746
     12 C           4.4636   -0.9099   27.8757 C.3     1  UNL1        0.0449
     13 C           5.5318    0.3051   33.9428 C.ar    1  UNL1        0.2293
     14 C           4.9462    0.5998   32.5936 C.ar    1  UNL1        0.0924
     15 C           4.0468   -0.4015   31.9315 C.ar    1  UNL1        0.1453
     16 N           3.7329   -1.6974   32.6186 N.ar    1  UNL1       -0.2084
     17 C           4.3184   -1.9921   33.9677 C.ar    1  UNL1        0.2027
     18 N           5.2179   -0.9908   34.6299 N.ar    1  UNL1       -0.1892
     19 C           5.9283    2.1151   35.7639 C.3     1  UNL1        0.2542
     20 O           6.4312    1.3063   34.6050 O.3     1  UNL1       -0.4560
     21 C           0.8681    1.4074   28.1230 C.ar    1  UNL1        0.0622
     22 C           1.1513    2.5043   27.1400 C.ar    1  UNL1        0.0154
     23 C           0.0193    3.1871   26.4312 C.ar    1  UNL1        0.0010
     24 C          -1.3961    2.7729   26.7055 C.ar    1  UNL1       -0.0036
     25 C          -1.6794    1.6759   27.6886 C.ar    1  UNL1        0.0010
     26 C          -0.5473    0.9932   28.3973 C.ar    1  UNL1        0.0154
     27 C          -2.5281    3.4556   25.9968 C.2     1  UNL1       -0.0176
     28 C          -2.5712    3.4757   24.4976 C.2     1  UNL1       -0.0023
     29 C          -3.7032    4.1584   23.7888 C.2     1  UNL1        0.0203
     30 C          -4.7922    4.8211   24.5794 C.2     1  UNL1        0.1007
     31 N          -6.0251    5.5661   24.1609 N.2     1  UNL1       -0.1482
     32 N          -6.7440    6.0065   25.4017 N.2     1  UNL1       -0.1467
     33 C          -5.9555    5.5337   26.5868 C.2     1  UNL1        0.1197
     34 C          -4.7492    4.8011   26.0786 C.2     1  UNL1        0.0225
     35 C          -3.6172    4.1183   26.7874 C.3     1  UNL1        0.0558
     36 C           7.7615   -2.9754   28.6552 C.3     1  UNL1        0.1183
     37 C           7.7609   -4.1242   27.6907 C.ar    1  UNL1        0.0712
     38 N           8.1625   -3.9044   26.2623 N.ar    1  UNL1       -0.2471
     39 C           8.1619   -5.0533   25.2978 C.ar    1  UNL1        0.0985
     40 C           7.7596   -6.4218   25.7617 C.ar    1  UNL1        0.0203
     41 C           7.3580   -6.6416   27.1901 C.ar    1  UNL1       -0.0015
     42 C           7.3586   -5.4928   28.1546 C.ar    1  UNL1       -0.0069
     43 C           6.9569   -5.7125   29.5831 C.3     1  UNL1        0.0323
@<TRIPOS>BOND
     1    19    20    1
     2    20    13    1
     3    13    14   ar
     4    14    15   ar
     5    15     1    1
     6     1     2   am
     7     2     3    2
     8     2     4   am
     9     4    21    1
    10    21    22   ar
    11    22    23   ar
    12    23    24   ar
    13    24    27    1
    14    27    28    2
    15    28    29    1
    16    29    30    2
    17    30    31    1
    18    31    32    2
    19    32    33    1
    20    33    34    2
    21    34    35    1
    22    24    25   ar
    23    25    26   ar
    24     4     5   am
    25     5     6    2
    26     5     7    1
    27     7     8    1
    28     8     9    1
    29     9    10    1
    30    10    36    1
    31    36    37    1
    32    37    38   ar
    33    38    39   ar
    34    39    40   ar
    35    40    41   ar
    36    41    42   ar
    37    42    43    1
    38    10    11    1
    39    11    12    1
    40    15    16   ar
    41    16    17   ar
    42    17    18   ar
    43    18    13   ar
    44     7     1    1
    45    42    37   ar
    46    26    21   ar
    47    12     7    1
    48    35    27    1
    49    34    30    1
@<TRIPOS>MOLECULE
*****
 43 49 0 0 0
SMALL
GASTEIGER

@<TRIPOS>ATOM
      1 N           6.0726   -2.2894   26.1090 N.am    1  UNL1       -0.2222
      2 C           6.1520   -2.0015   27.5790 C.2     1  UNL1        0.3219
      3 O           7.2119   -2.4959   28.5183 O.2     1  UNL1       -0.2512
      4 N           4.9854   -1.1325   27.9448 N.am    1  UNL1       -0.1907
      5 C           4.1850   -0.8833   26.7009 C.2     1  UNL1        0.2529
      6 O           2.9326   -0.0631   26.6079 O.2     1  UNL1       -0.2724
      7 C           4.8569   -1.5983   25.5663 C.3     1  UNL1        0.1391
      8 C           5.6360   -2.3610   24.5361 C.3     1  UNL1        0.0449
      9 C           5.1735   -2.3814   23.1094 C.3     1  UNL1        0.0746
     10 N           3.9319   -1.6389   22.7128 N.3     1  UNL1       -0.2676
     11 C           3.1529   -0.8762   23.7429 C.3     1  UNL1        0.0746
     12 C           3.6154   -0.8558   25.1697 C.3     1  UNL1        0.0449
     13 C           7.8518   -5.4465   24.4912 C.ar    1  UNL1        0.2293
     14 C           6.8852   -4.6137   25.2800 C.ar    1  UNL1        0.0924
     15 C           7.0392   -3.1222   25.3202 C.ar    1  UNL1        0.1453
     16 N           8.1598   -2.4634   24.5717 N.ar    1  UNL1       -0.2084
     17 C           9.1264   -3.2961   23.7829 C.ar    1  UNL1        0.2027
     18 N           8.9724   -4.7877   23.7427 N.ar    1  UNL1       -0.1892
     19 C           7.6626   -7.7230   25.7286 C.3     1  UNL1        0.2542
     20 O           7.6978   -6.9380   24.4509 O.3     1  UNL1       -0.4560
     21 C           4.6738   -0.6052   29.3140 C.ar    1  UNL1        0.0622
     22 C           5.6985    0.1972   30.0598 C.ar    1  UNL1        0.0154
     23 C           5.3869    0.7245   31.4291 C.ar    1  UNL1        0.0010
     24 C           4.0507    0.4493   32.0526 C.ar    1  UNL1       -0.0036
     25 C           3.0260   -0.3532   31.3069 C.ar    1  UNL1        0.0010
     26 C           3.3376   -0.8805   29.9376 C.ar    1  UNL1        0.0154
     27 C           3.7392    0.9765   33.4219 C.2     1  UNL1       -0.0176
     28 C           2.7225    2.0662   33.5926 C.2     1  UNL1       -0.0023
     29 C           2.4110    2.5934   34.9620 C.2     1  UNL1        0.0203
     30 C           3.1161    2.0309   36.1605 C.2     1  UNL1        0.1007
     31 N           3.0180    2.3484   37.6232 N.2     1  UNL1       -0.1482
     32 N           3.9740    1.4549   38.3566 N.2     1  UNL1       -0.1467
     33 C           4.6629    0.5853   37.3471 C.2     1  UNL1        0.1197
     34 C           4.1327    0.9413   35.9898 C.2     1  UNL1        0.0225
     35 C           4.4443    0.4141   34.6206 C.3     1  UNL1        0.0558
     36 C           3.4694   -1.6593   21.2860 C.3     1  UNL1        0.1183
     37 C           4.4736   -1.7047   20.1726 C.ar    1  UNL1        0.0712
     38 N           5.4444   -0.5757   19.9918 N.ar    1  UNL1       -0.2471
     39 C           6.4486   -0.6211   18.8784 C.ar    1  UNL1        0.0985
     40 C           6.4819   -1.7956   17.9459 C.ar    1  UNL1        0.0203
     41 C           5.5110   -2.9246   18.1268 C.ar    1  UNL1       -0.0015
     42 C           4.5069   -2.8792   19.2401 C.ar    1  UNL1       -0.0069
     43 C           3.5360   -4.0082   19.4210 C.3     1  UNL1        0.0323
@<TRIPOS>BOND
     1    19    20    1
     2    20    13    1
     3    13    14   ar
     4    14    15   ar
     5    15     1    1
     6     1     2   am
     7     2     3    2
     8     2     4   am
     9     4    21    1
    10    21    22   ar
    11    22    23   ar
    12    23    24   ar
    13    24    27    1
    14    27    28    2
    15    28    29    1
    16    29    30    2
    17    30    31    1
    18    31    32    2
    19    32    33    1
    20    33    34    2
    21    34    35    1
    22    24    25   ar
    23    25    26   ar
    24     4     5   am
    25     5     6    2
    26     5     7    1
    27     7     8    1
    28     8     9    1
    29     9    10    1
    30    10    36    1
    31    36    37    1
    32    37    38   ar
    33    38    39   ar
    34    39    40   ar
    35    40    41   ar
    36    41    42   ar
    37    42    43    1
    38    10    11    1
    39    11    12    1
    40    15    16   ar
    41    16    17   ar
    42    17    18   ar
    43    18    13   ar
    44     7     1    1
    45    42    37   ar
    46    26    21   ar
    47    12     7    1
    48    35    27    1
    49    34    30    1
