@<TRIPOS>MOLECULE
*****
 34 36 0 0 0
SMALL
GASTEIGER

@<TRIPOS>ATOM
      1 C           1.2132    0.8568   20.4791 C.ar    1  UNL1        0.0696
      2 C           1.6050    1.0305   21.9165 C.ar    1  UNL1        0.0057
      3 C           2.7518    0.2457   22.4813 C.ar    1  UNL1       -0.0041
      4 C           3.5067   -0.7128   21.6087 C.ar    1  UNL1       -0.0185
      5 C           3.1148   -0.8865   20.1713 C.ar    1  UNL1        0.0677
      6 C           1.9680   -0.1017   19.6065 C.ar    1  UNL1        0.0095
      7 C           4.6535   -1.4975   22.1736 C.3     1  UNL1        0.0257
      8 C           4.3954   -2.7799   22.9076 C.3     1  UNL1        0.0259
      9 C           5.5422   -3.5646   23.4725 C.3     1  UNL1        0.0940
     10 N           6.9471   -3.0670   23.3033 N.am    1  UNL1       -0.2761
     11 C           8.0939   -3.8518   23.8681 C.2     1  UNL1        0.2490
     12 O           9.4987   -3.3542   23.6989 O.2     1  UNL1       -0.2699
     13 C           7.2052   -1.7847   22.5692 C.3     1  UNL1        0.0940
     14 C           6.0584   -0.9999   22.0044 C.3     1  UNL1        0.0259
     15 C           7.8358   -5.1342   24.6022 C.ar    1  UNL1        0.0536
     16 C           7.1035   -5.1148   25.9112 C.ar    1  UNL1        0.0045
     17 C           6.8455   -6.3971   26.6453 C.ar    1  UNL1        0.0001
     18 C           7.3196   -7.6989   26.0704 C.ar    1  UNL1        0.0000
     19 C           8.0517   -7.7184   24.7614 C.ar    1  UNL1        0.0001
     20 C           8.3099   -6.4360   24.0273 C.ar    1  UNL1        0.0045
     21 N          -0.9714    2.2184   20.8309 N.am    1  UNL1       -0.1708
     22 C           0.0664    1.6415   19.9142 C.2     1  UNL1        0.3078
     23 O          -0.0427    1.8494   18.4328 O.2     1  UNL1       -0.2516
     24 H          -0.8998    2.0819   21.8032 H       1  UNL1        0.2545
     25 N          -3.5176    2.7244   20.7284 N.pl3   1  UNL1       -0.1313
     26 C          -2.1182    3.0031   20.2660 C.2     1  UNL1        0.3751
     27 N          -1.8654    4.0666   19.2388 N.pl3   1  UNL1       -0.2906
     28 H          -4.2703    3.2395   20.3577 H       1  UNL1        0.3060
     29 H          -2.6181    4.5817   18.8680 H       1  UNL1        0.2545
     30 H          -0.9469    4.2495   18.9353 H       1  UNL1        0.2545
     31 C           3.8697   -1.8450   19.2987 C.3     1  UNL1        0.4183
     32 F           4.6246   -2.8034   18.4261 F       1  UNL1       -0.1659
     33 F           2.9395   -2.9488   19.7063 F       1  UNL1       -0.1659
     34 F           4.7999   -0.7412   18.8910 F       1  UNL1       -0.1659
@<TRIPOS>BOND
     1    25    26    2
     2    26    27    1
     3    26    21    1
     4    21    22   am
     5    22    23    2
     6    22     1    1
     7     1     2   ar
     8     2     3   ar
     9     3     4   ar
    10     4     7    1
    11     7     8    1
    12     8     9    1
    13     9    10    1
    14    10    11   am
    15    11    12    2
    16    11    15    1
    17    15    16   ar
    18    16    17   ar
    19    17    18   ar
    20    18    19   ar
    21    19    20   ar
    22    10    13    1
    23    13    14    1
    24     4     5   ar
    25     5    31    1
    26    31    32    1
    27    31    33    1
    28    31    34    1
    29     5     6   ar
    30     6     1   ar
    31    14     7    1
    32    20    15   ar
    33    25    28    1
    34    27    29    1
    35    27    30    1
    36    21    24    1
@<TRIPOS>MOLECULE
*****
 34 36 0 0 0
SMALL
GASTEIGER

@<TRIPOS>ATOM
      1 C           4.8220   -0.3830   34.7598 C.ar    1  UNL1        0.0696
      2 C           3.9619   -1.4924   34.2313 C.ar    1  UNL1        0.0057
      3 C           4.4953   -2.4185   33.1787 C.ar    1  UNL1       -0.0041
      4 C           5.8887   -2.2353   32.6547 C.ar    1  UNL1       -0.0185
      5 C           6.7488   -1.1259   33.1833 C.ar    1  UNL1        0.0677
      6 C           6.2155   -0.1998   34.2358 C.ar    1  UNL1        0.0095
      7 C           6.4221   -3.1614   31.6022 C.3     1  UNL1        0.0257
      8 C           6.5314   -2.6970   30.1801 C.3     1  UNL1        0.0259
      9 C           7.0648   -3.6231   29.1276 C.3     1  UNL1        0.0940
     10 N           7.4888   -5.0136   29.4971 N.am    1  UNL1       -0.2761
     11 C           8.0221   -5.9397   28.4446 C.2     1  UNL1        0.2490
     12 O           8.4461   -7.3303   28.8141 O.2     1  UNL1       -0.2699
     13 C           7.3794   -5.4780   30.9192 C.3     1  UNL1        0.0940
     14 C           6.8461   -4.5519   31.9717 C.3     1  UNL1        0.0259
     15 C           8.1315   -5.4753   27.0225 C.ar    1  UNL1        0.0536
     16 C           9.4246   -4.9083   26.5160 C.ar    1  UNL1        0.0045
     17 C           9.5340   -4.4439   25.0939 C.ar    1  UNL1        0.0001
     18 C           8.3503   -4.5465   24.1783 C.ar    1  UNL1        0.0000
     19 C           7.0572   -5.1134   24.6848 C.ar    1  UNL1        0.0001
     20 C           6.9478   -5.5779   26.1069 C.ar    1  UNL1        0.0045
     21 N           4.3824    0.1654   37.2610 N.am    1  UNL1       -0.1708
     22 C           4.2887    0.5431   35.8124 C.2     1  UNL1        0.3078
     23 O           3.6616    1.8469   35.4163 O.2     1  UNL1       -0.2516
     24 H           4.7939   -0.6903   37.5210 H       1  UNL1        0.2545
     25 N           2.9113    0.5732   39.3633 N.pl3   1  UNL1       -0.1313
     26 C           3.8490    1.0916   38.3135 C.2     1  UNL1        0.3751
     27 N           4.2534    2.5361   38.3162 N.pl3   1  UNL1       -0.2906
     28 H           2.5613    1.1811   40.0541 H       1  UNL1        0.3060
     29 H           3.9033    3.1439   39.0070 H       1  UNL1        0.2545
     30 H           4.8688    2.8763   37.6272 H       1  UNL1        0.2545
     31 C           8.1424   -0.9426   32.6593 C.3     1  UNL1        0.4183
     32 F           9.5359   -0.7592   32.1353 F       1  UNL1       -0.1659
     33 F           8.6357   -2.0007   33.6010 F       1  UNL1       -0.1659
     34 F           7.6491    0.1156   31.7176 F       1  UNL1       -0.1659
@<TRIPOS>BOND
     1    25    26    2
     2    26    27    1
     3    26    21    1
     4    21    22   am
     5    22    23    2
     6    22     1    1
     7     1     2   ar
     8     2     3   ar
     9     3     4   ar
    10     4     7    1
    11     7     8    1
    12     8     9    1
    13     9    10    1
    14    10    11   am
    15    11    12    2
    16    11    15    1
    17    15    16   ar
    18    16    17   ar
    19    17    18   ar
    20    18    19   ar
    21    19    20   ar
    22    10    13    1
    23    13    14    1
    24     4     5   ar
    25     5    31    1
    26    31    32    1
    27    31    33    1
    28    31    34    1
    29     5     6   ar
    30     6     1   ar
    31    14     7    1
    32    20    15   ar
    33    25    28    1
    34    27    29    1
    35    27    30    1
    36    21    24    1
@<TRIPOS>MOLECULE
*****
 34 36 0 0 0
SMALL
GASTEIGER

@<TRIPOS>ATOM
      1 C           3.1130   -0.1060   29.5205 C.ar    1  UNL1        0.0696
      2 C           3.6316    0.8861   28.5222 C.ar    1  UNL1        0.0057
      3 C           2.6720    1.7075   27.7131 C.ar    1  UNL1       -0.0041
      4 C           1.1939    1.5368   27.9023 C.ar    1  UNL1       -0.0185
      5 C           0.6753    0.5446   28.9006 C.ar    1  UNL1        0.0677
      6 C           1.6348   -0.2768   29.7097 C.ar    1  UNL1        0.0095
      7 C           0.2343    2.3582   27.0932 C.3     1  UNL1        0.0257
      8 C          -0.2684    1.8439   25.7769 C.3     1  UNL1        0.0259
      9 C          -1.2279    2.6653   24.9678 C.3     1  UNL1        0.0940
     10 N          -1.6848    4.0009   25.4751 N.am    1  UNL1       -0.2761
     11 C          -2.6443    4.8223   24.6660 C.2     1  UNL1        0.2490
     12 O          -3.1011    6.1580   25.1733 O.2     1  UNL1       -0.2699
     13 C          -1.1820    4.5152   26.7914 C.3     1  UNL1        0.0940
     14 C          -0.2225    3.6938   27.6005 C.3     1  UNL1        0.0259
     15 C          -3.1470    4.3081   23.3497 C.ar    1  UNL1        0.0536
     16 C          -4.4053    3.4933   23.2938 C.ar    1  UNL1        0.0045
     17 C          -4.9080    2.9791   21.9775 C.ar    1  UNL1        0.0001
     18 C          -4.1525    3.2796   20.7170 C.ar    1  UNL1        0.0000
     19 C          -2.8943    4.0943   20.7728 C.ar    1  UNL1        0.0001
     20 C          -2.3915    4.6085   22.0891 C.ar    1  UNL1        0.0045
     21 N           3.7515   -1.2683   31.7545 N.am    1  UNL1       -0.1708
     22 C           4.0725   -0.9274   30.3295 C.2     1  UNL1        0.3078
     23 O           5.3530   -1.4079   29.7136 O.2     1  UNL1       -0.2516
     24 H           2.9111   -0.9530   32.1588 H       1  UNL1        0.2545
     25 N           4.2046   -3.2272   33.4000 N.pl3   1  UNL1       -0.1313
     26 C           4.7111   -2.0897   32.5636 C.2     1  UNL1        0.3751
     27 N           6.1772   -1.7736   32.5362 N.pl3   1  UNL1       -0.2906
     28 H           4.8344   -3.7663   33.9310 H       1  UNL1        0.3060
     29 H           6.8070   -2.3127   33.0673 H       1  UNL1        0.2545
     30 H           6.5096   -1.0270   31.9873 H       1  UNL1        0.2545
     31 C          -0.8030    0.3738   29.0899 C.3     1  UNL1        0.4183
     32 F          -2.2811    0.2031   29.2792 F       1  UNL1       -0.1659
     33 F          -0.8394   -0.5869   27.9386 F       1  UNL1       -0.1659
     34 F          -0.7665    1.3346   30.2412 F       1  UNL1       -0.1659
@<TRIPOS>BOND
     1    25    26    2
     2    26    27    1
     3    26    21    1
     4    21    22   am
     5    22    23    2
     6    22     1    1
     7     1     2   ar
     8     2     3   ar
     9     3     4   ar
    10     4     7    1
    11     7     8    1
    12     8     9    1
    13     9    10    1
    14    10    11   am
    15    11    12    2
    16    11    15    1
    17    15    16   ar
    18    16    17   ar
    19    17    18   ar
    20    18    19   ar
    21    19    20   ar
    22    10    13    1
    23    13    14    1
    24     4     5   ar
    25     5    31    1
    26    31    32    1
    27    31    33    1
    28    31    34    1
    29     5     6   ar
    30     6     1   ar
    31    14     7    1
    32    20    15   ar
    33    25    28    1
    34    27    29    1
    35    27    30    1
    36    21    24    1
@<TRIPOS>MOLECULE
*****
 34 36 0 0 0
SMALL
GASTEIGER

@<TRIPOS>ATOM
      1 C           4.3778   -2.2126   22.7931 C.ar    1  UNL1        0.0696
      2 C           3.7053   -1.3503   23.8198 C.ar    1  UNL1        0.0057
      3 C           2.7977   -0.2375   23.3864 C.ar    1  UNL1       -0.0041
      4 C           2.5626    0.0130   21.9264 C.ar    1  UNL1       -0.0185
      5 C           3.2351   -0.8492   20.8997 C.ar    1  UNL1        0.0677
      6 C           4.1427   -1.9621   21.3331 C.ar    1  UNL1        0.0095
      7 C           1.6549    1.1259   21.4930 C.3     1  UNL1        0.0257
      8 C           0.2587    0.8207   21.0375 C.3     1  UNL1        0.0259
      9 C          -0.6489    1.9335   20.6042 C.3     1  UNL1        0.0940
     10 N          -0.1604    3.3515   20.6262 N.am    1  UNL1       -0.2761
     11 C          -1.0680    4.4643   20.1928 C.2     1  UNL1        0.2490
     12 O          -0.5795    5.8823   20.2148 O.2     1  UNL1       -0.2699
     13 C           1.2358    3.6567   21.0816 C.3     1  UNL1        0.0940
     14 C           2.1435    2.5439   21.5150 C.3     1  UNL1        0.0259
     15 C          -2.4642    4.1591   19.7374 C.ar    1  UNL1        0.0536
     16 C          -3.5366    3.8728   20.7465 C.ar    1  UNL1        0.0045
     17 C          -4.9328    3.5676   20.2910 C.ar    1  UNL1        0.0001
     18 C          -5.2567    3.5487   18.8266 C.ar    1  UNL1        0.0000
     19 C          -4.1845    3.8350   17.8175 C.ar    1  UNL1        0.0001
     20 C          -2.7882    4.1402   18.2729 C.ar    1  UNL1        0.0045
     21 N           5.7243   -3.4211   24.6577 N.am    1  UNL1       -0.1708
     22 C           5.2855   -3.3254   23.2265 C.2     1  UNL1        0.3078
     23 O           5.7543   -4.3425   22.2288 O.2     1  UNL1       -0.2516
     24 H           5.4166   -2.7535   25.3126 H       1  UNL1        0.2545
     25 N           6.4585   -5.1597   26.4432 N.pl3   1  UNL1       -0.1313
     26 C           6.6319   -4.5339   25.0911 C.2     1  UNL1        0.3751
     27 N           7.7131   -5.0209   24.1723 N.pl3   1  UNL1       -0.2906
     28 H           7.0542   -5.8901   26.7276 H       1  UNL1        0.3060
     29 H           8.3088   -5.7512   24.4567 H       1  UNL1        0.2545
     30 H           7.8269   -4.6101   23.2848 H       1  UNL1        0.2545
     31 C           2.9999   -0.5987   19.4395 C.3     1  UNL1        0.4183
     32 F           2.7649   -0.3482   17.9794 F       1  UNL1       -0.1659
     33 F           1.8619   -1.5758   19.4550 F       1  UNL1       -0.1659
     34 F           4.1380    0.3783   19.4239 F       1  UNL1       -0.1659
@<TRIPOS>BOND
     1    25    26    2
     2    26    27    1
     3    26    21    1
     4    21    22   am
     5    22    23    2
     6    22     1    1
     7     1     2   ar
     8     2     3   ar
     9     3     4   ar
    10     4     7    1
    11     7     8    1
    12     8     9    1
    13     9    10    1
    14    10    11   am
    15    11    12    2
    16    11    15    1
    17    15    16   ar
    18    16    17   ar
    19    17    18   ar
    20    18    19   ar
    21    19    20   ar
    22    10    13    1
    23    13    14    1
    24     4     5   ar
    25     5    31    1
    26    31    32    1
    27    31    33    1
    28    31    34    1
    29     5     6   ar
    30     6     1   ar
    31    14     7    1
    32    20    15   ar
    33    25    28    1
    34    27    29    1
    35    27    30    1
    36    21    24    1
@<TRIPOS>MOLECULE
*****
 34 36 0 0 0
SMALL
GASTEIGER

@<TRIPOS>ATOM
      1 C           1.2007    0.9615   20.3812 C.ar    1  UNL1        0.0696
      2 C           1.3129   -0.4131   19.7913 C.ar    1  UNL1        0.0057
      3 C           2.4230   -1.3255   20.2214 C.ar    1  UNL1       -0.0041
      4 C           3.4210   -0.8634   21.2415 C.ar    1  UNL1       -0.0185
      5 C           3.3088    0.5111   21.8313 C.ar    1  UNL1        0.0677
      6 C           2.1987    1.4236   21.4012 C.ar    1  UNL1        0.0095
      7 C           4.5312   -1.7759   21.6716 C.3     1  UNL1        0.0257
      8 C           4.3374   -2.6923   22.8431 C.3     1  UNL1        0.0259
      9 C           5.4475   -3.6048   23.2733 C.3     1  UNL1        0.0940
     10 N           6.7514   -3.6008   22.5319 N.am    1  UNL1       -0.2761
     11 C           7.8616   -4.5132   22.9620 C.2     1  UNL1        0.2490
     12 O           9.1655   -4.5093   22.2206 O.2     1  UNL1       -0.2699
     13 C           6.9452   -2.6844   21.3603 C.3     1  UNL1        0.0940
     14 C           5.8351   -1.7719   20.9302 C.3     1  UNL1        0.0259
     15 C           7.6678   -5.4297   24.1335 C.ar    1  UNL1        0.0536
     16 C           7.0185   -4.9192   25.3857 C.ar    1  UNL1        0.0045
     17 C           6.8247   -5.8357   26.5573 C.ar    1  UNL1        0.0001
     18 C           7.2802   -7.2626   26.4767 C.ar    1  UNL1        0.0000
     19 C           7.9295   -7.7730   25.2246 C.ar    1  UNL1        0.0001
     20 C           8.1233   -6.8566   24.0529 C.ar    1  UNL1        0.0045
     21 N          -1.0122    2.2164   20.9083 N.am    1  UNL1       -0.1708
     22 C           0.0906    1.8739   19.9511 C.2     1  UNL1        0.3078
     23 O           0.0833    2.4439   18.5636 O.2     1  UNL1       -0.2516
     24 H          -1.0074    1.8423   21.8190 H       1  UNL1        0.2545
     25 N          -1.8049    4.4262   19.7956 N.pl3   1  UNL1       -0.1313
     26 C          -2.1224    3.1288   20.4782 C.2     1  UNL1        0.3751
     27 N          -3.5500    2.7439   20.7307 N.pl3   1  UNL1       -0.2906
     28 H          -2.5336    5.0251   19.5133 H       1  UNL1        0.3060
     29 H          -4.2787    3.3427   20.4484 H       1  UNL1        0.2545
     30 H          -3.7584    1.8923   21.1788 H       1  UNL1        0.2545
     31 C           4.3068    0.9733   22.8514 C.3     1  UNL1        0.4183
     32 F           5.3048    1.4354   23.8714 F       1  UNL1       -0.1659
     33 F           3.4299    0.4462   23.9483 F       1  UNL1       -0.1659
     34 F           5.1838    1.5004   21.7546 F       1  UNL1       -0.1659
@<TRIPOS>BOND
     1    25    26    2
     2    26    27    1
     3    26    21    1
     4    21    22   am
     5    22    23    2
     6    22     1    1
     7     1     2   ar
     8     2     3   ar
     9     3     4   ar
    10     4     7    1
    11     7     8    1
    12     8     9    1
    13     9    10    1
    14    10    11   am
    15    11    12    2
    16    11    15    1
    17    15    16   ar
    18    16    17   ar
    19    17    18   ar
    20    18    19   ar
    21    19    20   ar
    22    10    13    1
    23    13    14    1
    24     4     5   ar
    25     5    31    1
    26    31    32    1
    27    31    33    1
    28    31    34    1
    29     5     6   ar
    30     6     1   ar
    31    14     7    1
    32    20    15   ar
    33    25    28    1
    34    27    29    1
    35    27    30    1
    36    21    24    1
@<TRIPOS>MOLECULE
*****
 34 36 0 0 0
SMALL
GASTEIGER

@<TRIPOS>ATOM
      1 C           7.4197   -5.0021   27.3601 C.ar    1  UNL1        0.0696
      2 C           7.2836   -5.9426   26.1995 C.ar    1  UNL1        0.0057
      3 C           6.8269   -5.4279   24.8667 C.ar    1  UNL1       -0.0041
      4 C           6.5062   -3.9728   24.6943 C.ar    1  UNL1       -0.0185
      5 C           6.6423   -3.0323   25.8549 C.ar    1  UNL1        0.0677
      6 C           7.0990   -3.5470   27.1878 C.ar    1  UNL1        0.0095
      7 C           6.0495   -3.4582   23.3615 C.3     1  UNL1        0.0257
      8 C           4.8302   -2.5893   23.2707 C.3     1  UNL1        0.0259
      9 C           4.3734   -2.0747   21.9379 C.3     1  UNL1        0.0940
     10 N           5.1360   -2.4289   20.6957 N.am    1  UNL1       -0.2761
     11 C           4.6793   -1.9142   19.3629 C.2     1  UNL1        0.2490
     12 O           5.4419   -2.2685   18.1207 O.2     1  UNL1       -0.2699
     13 C           6.3554   -3.2978   20.7865 C.3     1  UNL1        0.0940
     14 C           6.8121   -3.8124   22.1193 C.3     1  UNL1        0.0259
     15 C           3.4600   -1.0454   19.2721 C.ar    1  UNL1        0.0536
     16 C           3.4581    0.1525   18.3691 C.ar    1  UNL1        0.0045
     17 C           2.2388    1.0213   18.2784 C.ar    1  UNL1        0.0001
     18 C           1.0213    0.6925   19.0906 C.ar    1  UNL1        0.0000
     19 C           1.0232   -0.5053   19.9935 C.ar    1  UNL1        0.0001
     20 C           2.2426   -1.3742   20.0843 C.ar    1  UNL1        0.0045
     21 N           7.1726   -5.0845   29.9450 N.am    1  UNL1       -0.1708
     22 C           7.8764   -5.5168   28.6929 C.2     1  UNL1        0.3078
     23 O           9.0369   -6.4636   28.7737 O.2     1  UNL1       -0.2516
     24 H           6.4109   -4.4631   29.8920 H       1  UNL1        0.2545
     25 N           6.6280   -6.1323   32.2592 N.pl3   1  UNL1       -0.1313
     26 C           7.6293   -5.5992   31.2779 C.2     1  UNL1        0.3751
     27 N           9.0875   -5.5807   31.6295 N.pl3   1  UNL1       -0.2906
     28 H           6.9277   -6.4701   33.1340 H       1  UNL1        0.3060
     29 H           9.3873   -5.9184   32.5043 H       1  UNL1        0.2545
     30 H           9.7447   -5.2307   30.9854 H       1  UNL1        0.2545
     31 C           6.3217   -1.5771   25.6826 C.3     1  UNL1        0.4183
     32 F           6.0011   -0.1220   25.5103 F       1  UNL1       -0.1659
     33 F           4.9998   -1.7882   26.3593 F       1  UNL1       -0.1659
     34 F           7.6436   -1.3660   25.0059 F       1  UNL1       -0.1659
@<TRIPOS>BOND
     1    25    26    2
     2    26    27    1
     3    26    21    1
     4    21    22   am
     5    22    23    2
     6    22     1    1
     7     1     2   ar
     8     2     3   ar
     9     3     4   ar
    10     4     7    1
    11     7     8    1
    12     8     9    1
    13     9    10    1
    14    10    11   am
    15    11    12    2
    16    11    15    1
    17    15    16   ar
    18    16    17   ar
    19    17    18   ar
    20    18    19   ar
    21    19    20   ar
    22    10    13    1
    23    13    14    1
    24     4     5   ar
    25     5    31    1
    26    31    32    1
    27    31    33    1
    28    31    34    1
    29     5     6   ar
    30     6     1   ar
    31    14     7    1
    32    20    15   ar
    33    25    28    1
    34    27    29    1
    35    27    30    1
    36    21    24    1
@<TRIPOS>MOLECULE
*****
 34 36 0 0 0
SMALL
GASTEIGER

@<TRIPOS>ATOM
      1 C           2.3757   -0.0158   18.8507 C.ar    1  UNL1        0.0696
      2 C           1.3946   -0.6655   19.7809 C.ar    1  UNL1        0.0057
      3 C           0.3439    0.1619   20.4601 C.ar    1  UNL1       -0.0041
      4 C           0.2743    1.6391   20.2091 C.ar    1  UNL1       -0.0185
      5 C           1.2553    2.2888   19.2789 C.ar    1  UNL1        0.0677
      6 C           2.3061    1.4614   18.5997 C.ar    1  UNL1        0.0095
      7 C          -0.7765    2.4666   20.8883 C.3     1  UNL1        0.0257
      8 C          -0.6687    2.7585   22.3556 C.3     1  UNL1        0.0259
      9 C          -1.7195    3.5859   23.0348 C.3     1  UNL1        0.0940
     10 N          -2.8779    4.1214   22.2467 N.am    1  UNL1       -0.2761
     11 C          -3.9286    4.9489   22.9259 C.2     1  UNL1        0.2490
     12 O          -5.0871    5.4844   22.1378 O.2     1  UNL1       -0.2699
     13 C          -2.9856    3.8295   20.7794 C.3     1  UNL1        0.0940
     14 C          -1.9349    3.0021   20.1002 C.3     1  UNL1        0.0259
     15 C          -3.8209    5.2408   24.3932 C.ar    1  UNL1        0.0536
     16 C          -3.0672    6.4493   24.8642 C.ar    1  UNL1        0.0045
     17 C          -2.9595    6.7412   26.3315 C.ar    1  UNL1        0.0001
     18 C          -3.6054    5.8248   27.3280 C.ar    1  UNL1        0.0000
     19 C          -4.3591    4.6164   26.8571 C.ar    1  UNL1        0.0001
     20 C          -4.4668    4.3244   25.3897 C.ar    1  UNL1        0.0045
     21 N           4.0892   -1.9678   18.9105 N.am    1  UNL1       -0.1708
     22 C           3.4264   -0.8432   18.1715 C.2     1  UNL1        0.3078
     23 O           3.8144   -0.5462   16.7534 O.2     1  UNL1       -0.2516
     24 H           3.8346   -2.1628   19.8413 H       1  UNL1        0.2545
     25 N           6.2956   -2.1264   17.5479 N.pl3   1  UNL1       -0.1313
     26 C           5.1399   -2.7952   18.2313 C.2     1  UNL1        0.3751
     27 N           5.0349   -4.2916   18.2355 N.pl3   1  UNL1       -0.2906
     28 H           6.9852   -2.6695   17.1021 H       1  UNL1        0.3060
     29 H           5.7246   -4.8347   17.7897 H       1  UNL1        0.2545
     30 H           4.2764   -4.7306   18.6840 H       1  UNL1        0.2545
     31 C           1.1858    3.7661   19.0279 C.3     1  UNL1        0.4183
     32 F           1.1162    5.2433   18.7770 F       1  UNL1       -0.1659
     33 F           0.3715    3.5179   17.7929 F       1  UNL1       -0.1659
     34 F           2.0000    4.0143   20.2630 F       1  UNL1       -0.1659
@<TRIPOS>BOND
     1    25    26    2
     2    26    27    1
     3    26    21    1
     4    21    22   am
     5    22    23    2
     6    22     1    1
     7     1     2   ar
     8     2     3   ar
     9     3     4   ar
    10     4     7    1
    11     7     8    1
    12     8     9    1
    13     9    10    1
    14    10    11   am
    15    11    12    2
    16    11    15    1
    17    15    16   ar
    18    16    17   ar
    19    17    18   ar
    20    18    19   ar
    21    19    20   ar
    22    10    13    1
    23    13    14    1
    24     4     5   ar
    25     5    31    1
    26    31    32    1
    27    31    33    1
    28    31    34    1
    29     5     6   ar
    30     6     1   ar
    31    14     7    1
    32    20    15   ar
    33    25    28    1
    34    27    29    1
    35    27    30    1
    36    21    24    1
@<TRIPOS>MOLECULE
*****
 34 36 0 0 0
SMALL
GASTEIGER

@<TRIPOS>ATOM
      1 C           6.8512   -3.4491   27.8268 C.ar    1  UNL1        0.0696
      2 C           7.3301   -4.3535   26.7302 C.ar    1  UNL1        0.0057
      3 C           6.9550   -4.0692   25.3060 C.ar    1  UNL1       -0.0041
      4 C           6.1010   -2.8803   24.9784 C.ar    1  UNL1       -0.0185
      5 C           5.6222   -1.9758   26.0750 C.ar    1  UNL1        0.0677
      6 C           5.9973   -2.2602   27.4992 C.ar    1  UNL1        0.0095
      7 C           5.7259   -2.5960   23.5541 C.3     1  UNL1        0.0257
      8 C           6.2935   -1.3968   22.8542 C.3     1  UNL1        0.0259
      9 C           5.9183   -1.1125   21.4300 C.3     1  UNL1        0.0940
     10 N           4.9757   -2.0272   20.7057 N.am    1  UNL1       -0.2761
     11 C           4.6006   -1.7429   19.2815 C.2     1  UNL1        0.2490
     12 O           3.6580   -2.6576   18.5572 O.2     1  UNL1       -0.2699
     13 C           4.4082   -3.2263   21.4056 C.3     1  UNL1        0.0940
     14 C           4.7833   -3.5107   22.8299 C.3     1  UNL1        0.0259
     15 C           5.1681   -0.5437   18.5815 C.ar    1  UNL1        0.0536
     16 C           4.4757    0.7829   18.6855 C.ar    1  UNL1        0.0045
     17 C           5.0433    1.9820   17.9855 C.ar    1  UNL1        0.0001
     18 C           6.3032    1.8546   17.1816 C.ar    1  UNL1        0.0000
     19 C           6.9956    0.5281   17.0776 C.ar    1  UNL1        0.0001
     20 C           6.4281   -0.6712   17.7775 C.ar    1  UNL1        0.0045
     21 N           7.0453   -5.1122   29.8134 N.am    1  UNL1       -0.1708
     22 C           7.2264   -3.7334   29.2511 C.2     1  UNL1        0.3078
     23 O           7.7826   -2.6391   30.1130 O.2     1  UNL1       -0.2516
     24 H           6.6802   -5.8304   29.2477 H       1  UNL1        0.2545
     25 N           6.4506   -6.0960   32.1433 N.pl3   1  UNL1       -0.1313
     26 C           7.4204   -5.3965   31.2376 C.2     1  UNL1        0.3751
     27 N           8.7653   -4.9814   31.7562 N.pl3   1  UNL1       -0.2906
     28 H           6.6968   -6.2826   33.0780 H       1  UNL1        0.3060
     29 H           9.0115   -5.1680   32.6909 H       1  UNL1        0.2545
     30 H           9.4018   -4.5223   31.1617 H       1  UNL1        0.2545
     31 C           4.7682   -0.7869   25.7474 C.3     1  UNL1        0.4183
     32 F           3.9143    0.4019   25.4198 F       1  UNL1       -0.1659
     33 F           5.9825    0.0932   25.7761 F       1  UNL1       -0.1659
     34 F           3.5540   -1.6670   25.7187 F       1  UNL1       -0.1659
@<TRIPOS>BOND
     1    25    26    2
     2    26    27    1
     3    26    21    1
     4    21    22   am
     5    22    23    2
     6    22     1    1
     7     1     2   ar
     8     2     3   ar
     9     3     4   ar
    10     4     7    1
    11     7     8    1
    12     8     9    1
    13     9    10    1
    14    10    11   am
    15    11    12    2
    16    11    15    1
    17    15    16   ar
    18    16    17   ar
    19    17    18   ar
    20    18    19   ar
    21    19    20   ar
    22    10    13    1
    23    13    14    1
    24     4     5   ar
    25     5    31    1
    26    31    32    1
    27    31    33    1
    28    31    34    1
    29     5     6   ar
    30     6     1   ar
    31    14     7    1
    32    20    15   ar
    33    25    28    1
    34    27    29    1
    35    27    30    1
    36    21    24    1
@<TRIPOS>MOLECULE
*****
 34 36 0 0 0
SMALL
GASTEIGER

@<TRIPOS>ATOM
      1 C           2.5426   -0.1504   18.9527 C.ar    1  UNL1        0.0696
      2 C           1.7499   -0.6990   20.1019 C.ar    1  UNL1        0.0057
      3 C           0.7656    0.1762   20.8197 C.ar    1  UNL1       -0.0041
      4 C           0.5741    1.6000   20.3883 C.ar    1  UNL1       -0.0185
      5 C           1.3668    2.1486   19.2392 C.ar    1  UNL1        0.0677
      6 C           2.3510    1.2733   18.5214 C.ar    1  UNL1        0.0095
      7 C          -0.4101    2.4752   21.1062 C.3     1  UNL1        0.0257
      8 C          -1.7446    2.7678   20.4869 C.3     1  UNL1        0.0259
      9 C          -2.7289    3.6430   21.2047 C.3     1  UNL1        0.0940
     10 N          -2.3786    4.2257   22.5418 N.am    1  UNL1       -0.2761
     11 C          -3.3629    5.1009   23.2596 C.2     1  UNL1        0.2490
     12 O          -3.0126    5.6836   24.5966 O.2     1  UNL1       -0.2699
     13 C          -1.0441    3.9331   23.1610 C.3     1  UNL1        0.0940
     14 C          -0.0599    3.0579   22.4432 C.3     1  UNL1        0.0259
     15 C          -4.6973    5.3935   22.6403 C.ar    1  UNL1        0.0536
     16 C          -4.8651    6.5889   21.7499 C.ar    1  UNL1        0.0045
     17 C          -6.1996    6.8815   21.1306 C.ar    1  UNL1        0.0001
     18 C          -7.3664    5.9786   21.4018 C.ar    1  UNL1        0.0000
     19 C          -7.1987    4.7832   22.2922 C.ar    1  UNL1        0.0001
     20 C          -5.8641    4.4906   22.9115 C.ar    1  UNL1        0.0045
     21 N           4.2013   -2.1501   18.9634 N.am    1  UNL1       -0.1708
     22 C           3.5268   -1.0257   18.2349 C.2     1  UNL1        0.3078
     23 O           3.8366   -0.7765   16.7886 O.2     1  UNL1       -0.2516
     24 H           3.9979   -2.3137   19.9127 H       1  UNL1        0.2545
     25 N           6.3588   -2.4126   17.5400 N.pl3   1  UNL1       -0.1313
     26 C           5.1855   -3.0253   18.2456 C.2     1  UNL1        0.3751
     27 N           4.9964   -4.5133   18.2335 N.pl3   1  UNL1       -0.2906
     28 H           7.0047   -2.9870   17.0689 H       1  UNL1        0.3060
     29 H           5.6424   -5.0878   17.7623 H       1  UNL1        0.2545
     30 H           4.2264   -4.9155   18.6966 H       1  UNL1        0.2545
     31 C           1.1753    3.5724   18.8077 C.3     1  UNL1        0.4183
     32 F           0.9838    4.9962   18.3763 F       1  UNL1       -0.1659
     33 F           2.1871    4.0160   19.8223 F       1  UNL1       -0.1659
     34 F           0.1635    3.1289   17.7932 F       1  UNL1       -0.1659
@<TRIPOS>BOND
     1    25    26    2
     2    26    27    1
     3    26    21    1
     4    21    22   am
     5    22    23    2
     6    22     1    1
     7     1     2   ar
     8     2     3   ar
     9     3     4   ar
    10     4     7    1
    11     7     8    1
    12     8     9    1
    13     9    10    1
    14    10    11   am
    15    11    12    2
    16    11    15    1
    17    15    16   ar
    18    16    17   ar
    19    17    18   ar
    20    18    19   ar
    21    19    20   ar
    22    10    13    1
    23    13    14    1
    24     4     5   ar
    25     5    31    1
    26    31    32    1
    27    31    33    1
    28    31    34    1
    29     5     6   ar
    30     6     1   ar
    31    14     7    1
    32    20    15   ar
    33    25    28    1
    34    27    29    1
    35    27    30    1
    36    21    24    1
