@<TRIPOS>MOLECULE
*****
 28 31 0 0 0
SMALL
GASTEIGER

@<TRIPOS>ATOM
      1 C          -6.7382  -19.9699   20.8208 C.2     1  UNL1       -0.0021
      2 C          -6.2223  -21.0705   19.9419 C.2     1  UNL1        0.0942
      3 N          -4.7291  -21.1111   20.0783 N.2     1  UNL1       -0.2482
      4 C          -4.3221  -20.0356   21.0414 C.2     1  UNL1        0.0633
      5 C          -2.9813  -19.6073   21.5597 C.3     1  UNL1        0.0753
      6 C          -2.8822  -18.4738   22.5370 C.2     1  UNL1        0.0203
      7 C          -4.1239  -17.7684   22.9959 C.2     1  UNL1        0.1317
      8 C          -5.4647  -18.1966   22.4776 C.2     1  UNL1        0.0407
      9 C          -5.5638  -19.3302   21.5003 C.2     1  UNL1        0.0148
     10 C         -11.0518  -18.7932   21.3298 C.3     1  UNL1        0.0540
     11 C         -10.4531  -18.8730   19.9568 C.3     1  UNL1        0.0160
     12 C          -9.0152  -19.2652   19.7871 C.3     1  UNL1        0.0058
     13 C          -8.1761  -19.5777   20.9904 C.3     1  UNL1        0.0240
     14 C          -8.7748  -19.4979   22.3635 C.3     1  UNL1        0.0058
     15 C         -10.2126  -19.1057   22.5332 C.3     1  UNL1        0.0160
     16 C         -12.9344  -17.7048   22.7514 C.3     1  UNL1        0.0858
     17 N         -12.4896  -18.4010   21.4994 N.3     1  UNL1       -0.2974
     18 H         -12.7201  -17.7833   20.7212 H       1  UNL1        0.1232
     19 N          -4.0247  -16.6348   23.9733 N.pl3   1  UNL1       -0.1992
     20 H          -3.2873  -16.6099   24.6251 H       1  UNL1        0.2985
     21 C          -5.0491  -15.5392   23.9576 C.2     1  UNL1        0.3224
     22 N          -4.9940  -14.4760   22.9009 N.2     1  UNL1       -0.0985
     23 H          -4.2854  -14.4972   22.2177 H       1  UNL1        0.3633
     24 C          -6.1287  -15.5068   24.9985 C.ar    1  UNL1        0.1114
     25 C          -5.9207  -15.4776   26.4837 C.ar    1  UNL1        0.0144
     26 C          -7.2692  -15.4507   27.1402 C.ar    1  UNL1        0.0077
     27 C          -8.3106  -15.4632   26.0606 C.ar    1  UNL1        0.0357
     28 S          -7.6057  -15.4979   24.7370 S.2     1  UNL1       -0.0792
@<TRIPOS>BOND
     1    16    17    1
     2    10    17    1
     3    10    11    1
     4    11    12    1
     5    12    13    1
     6    13     1    1
     7     1     2    2
     8     2     3    1
     9     3     4    2
    10     4     5    1
    11     5     6    1
    12     6     7    2
    13     7    19    1
    14    19    21    1
    15    21    22    2
    16    21    24    1
    17    24    25   ar
    18    25    26   ar
    19    26    27   ar
    20    27    28   ar
    21     7     8    1
    22     8     9    2
    23    13    14    1
    24    14    15    1
    25    15    10    1
    26     9     1    1
    27     9     4    1
    28    28    24   ar
    29    17    18    1
    30    19    20    1
    31    22    23    1
@<TRIPOS>MOLECULE
*****
 28 31 0 0 0
SMALL
GASTEIGER

@<TRIPOS>ATOM
      1 C          -5.1091  -16.3903   24.0897 C.2     1  UNL1       -0.0021
      2 C          -4.8646  -15.7761   25.4361 C.2     1  UNL1        0.0942
      3 N          -6.1841  -15.3180   25.9830 N.2     1  UNL1       -0.2482
      4 C          -7.2440  -15.6491   24.9746 C.2     1  UNL1        0.0633
      5 C          -8.7283  -15.4327   24.9708 C.3     1  UNL1        0.0753
      6 C          -9.5482  -15.8791   23.7967 C.2     1  UNL1        0.0203
      7 C          -8.8838  -16.5419   22.6265 C.2     1  UNL1        0.1317
      8 C          -7.3996  -16.7583   22.6304 C.2     1  UNL1        0.0407
      9 C          -6.5797  -16.3118   23.8044 C.2     1  UNL1        0.0148
     10 C          -1.9802  -18.1581   21.3813 C.3     1  UNL1        0.0540
     11 C          -2.9644  -19.0530   22.0745 C.3     1  UNL1        0.0160
     12 C          -4.0074  -18.4637   22.9773 C.3     1  UNL1        0.0058
     13 C          -4.0662  -16.9796   23.1869 C.3     1  UNL1        0.0240
     14 C          -3.0819  -16.0847   22.4936 C.3     1  UNL1        0.0058
     15 C          -2.0390  -16.6740   21.5908 C.3     1  UNL1        0.0160
     16 C           0.0876  -17.8598   19.8368 C.3     1  UNL1        0.0858
     17 N          -0.9373  -18.7474   20.4785 N.3     1  UNL1       -0.2974
     18 H          -0.4260  -19.4367   21.0298 H       1  UNL1        0.1232
     19 N          -9.7038  -16.9883   21.4524 N.pl3   1  UNL1       -0.1992
     20 H          -9.6624  -16.4892   20.6048 H       1  UNL1        0.2985
     21 C         -10.5868  -18.1952   21.5697 C.2     1  UNL1        0.3224
     22 N         -10.4228  -19.3402   20.6147 N.2     1  UNL1       -0.0985
     23 H          -9.7356  -19.2995   19.9109 H       1  UNL1        0.3633
     24 C         -11.6338  -18.2571   22.6421 C.ar    1  UNL1        0.1114
     25 C         -12.9967  -17.6336   22.5806 C.ar    1  UNL1        0.0144
     26 C         -13.7070  -17.9445   23.8648 C.ar    1  UNL1        0.0077
     27 C         -12.7830  -18.7602   24.7198 C.ar    1  UNL1        0.0357
     28 S         -11.5017  -18.9533   23.9642 S.2     1  UNL1       -0.0792
@<TRIPOS>BOND
     1    16    17    1
     2    10    17    1
     3    10    11    1
     4    11    12    1
     5    12    13    1
     6    13     1    1
     7     1     2    2
     8     2     3    1
     9     3     4    2
    10     4     5    1
    11     5     6    1
    12     6     7    2
    13     7    19    1
    14    19    21    1
    15    21    22    2
    16    21    24    1
    17    24    25   ar
    18    25    26   ar
    19    26    27   ar
    20    27    28   ar
    21     7     8    1
    22     8     9    2
    23    13    14    1
    24    14    15    1
    25    15    10    1
    26     9     1    1
    27     9     4    1
    28    28    24   ar
    29    17    18    1
    30    19    20    1
    31    22    23    1
@<TRIPOS>MOLECULE
*****
 28 31 0 0 0
SMALL
GASTEIGER

@<TRIPOS>ATOM
      1 C          -7.5856  -19.4612   20.1449 C.2     1  UNL1       -0.0021
      2 C          -8.1793  -20.1949   18.9791 C.2     1  UNL1        0.0942
      3 N          -9.6700  -20.0424   19.0460 N.2     1  UNL1       -0.2482
      4 C          -9.9976  -19.2145   20.2531 C.2     1  UNL1        0.0633
      5 C         -11.3025  -18.7412   20.8216 C.3     1  UNL1        0.0753
      6 C         -11.3191  -17.9088   22.0693 C.2     1  UNL1        0.0203
      7 C         -10.0309  -17.5496   22.7485 C.2     1  UNL1        0.1317
      8 C          -8.7259  -18.0228   22.1800 C.2     1  UNL1        0.0407
      9 C          -8.7093  -18.8553   20.9323 C.2     1  UNL1        0.0148
     10 C          -3.2025  -19.1352   21.1109 C.3     1  UNL1        0.0540
     11 C          -3.6808  -18.9024   19.7084 C.3     1  UNL1        0.0160
     12 C          -5.1418  -19.0110   19.3864 C.3     1  UNL1        0.0058
     13 C          -6.1246  -19.3525   20.4669 C.3     1  UNL1        0.0240
     14 C          -5.6463  -19.5854   21.8695 C.3     1  UNL1        0.0058
     15 C          -4.1852  -19.4767   22.1914 C.3     1  UNL1        0.0160
     16 C          -0.8210  -18.2934   20.5026 C.3     1  UNL1        0.0858
     17 N          -1.7415  -19.0265   21.4328 N.3     1  UNL1       -0.2974
     18 H          -1.6734  -18.5642   22.3395 H       1  UNL1        0.1232
     19 N         -10.0475  -16.7172   23.9963 N.pl3   1  UNL1       -0.1992
     20 H         -10.5176  -15.8522   24.0047 H       1  UNL1        0.2985
     21 C          -9.3480  -17.2026   25.2311 C.2     1  UNL1        0.3224
     22 N          -9.7667  -18.4925   25.8722 N.2     1  UNL1       -0.0985
     23 H         -10.5006  -19.0204   25.4825 H       1  UNL1        0.3633
     24 C          -8.2298  -16.3982   25.8250 C.ar    1  UNL1        0.1114
     25 C          -8.0486  -16.0800   27.2796 C.ar    1  UNL1        0.0144
     26 C          -6.8033  -15.2559   27.4221 C.ar    1  UNL1        0.0077
     27 C          -6.2149  -15.0650   26.0556 C.ar    1  UNL1        0.0357
     28 S          -7.0965  -15.7710   25.0685 S.2     1  UNL1       -0.0792
@<TRIPOS>BOND
     1    16    17    1
     2    10    17    1
     3    10    11    1
     4    11    12    1
     5    12    13    1
     6    13     1    1
     7     1     2    2
     8     2     3    1
     9     3     4    2
    10     4     5    1
    11     5     6    1
    12     6     7    2
    13     7    19    1
    14    19    21    1
    15    21    22    2
    16    21    24    1
    17    24    25   ar
    18    25    26   ar
    19    26    27   ar
    20    27    28   ar
    21     7     8    1
    22     8     9    2
    23    13    14    1
    24    14    15    1
    25    15    10    1
    26     9     1    1
    27     9     4    1
    28    28    24   ar
    29    17    18    1
    30    19    20    1
    31    22    23    1
@<TRIPOS>MOLECULE
*****
 28 31 0 0 0
SMALL
GASTEIGER

@<TRIPOS>ATOM
      1 C         -10.1262  -18.3237   22.7637 C.2     1  UNL1       -0.0021
      2 C         -11.5288  -18.8136   22.5570 C.2     1  UNL1        0.0942
      3 N         -11.5885  -19.4995   21.2244 N.2     1  UNL1       -0.2482
      4 C         -10.2228  -19.4336   20.6075 C.2     1  UNL1        0.0633
      5 C          -9.6854  -19.9414   19.3024 C.3     1  UNL1        0.0753
      6 C          -8.2443  -19.7225   18.9487 C.2     1  UNL1        0.0203
      7 C          -7.3406  -18.9958   19.9000 C.2     1  UNL1        0.1317
      8 C          -7.8779  -18.4880   21.2051 C.2     1  UNL1        0.0407
      9 C          -9.3191  -18.7069   21.5589 C.2     1  UNL1        0.0148
     10 C          -8.6065  -16.0957   26.3661 C.3     1  UNL1        0.0540
     11 C          -8.5798  -15.4445   25.0151 C.3     1  UNL1        0.0160
     12 C          -9.0864  -16.1872   23.8143 C.3     1  UNL1        0.0058
     13 C          -9.6196  -17.5811   23.9645 C.3     1  UNL1        0.0240
     14 C          -9.6464  -18.2323   25.3155 C.3     1  UNL1        0.0058
     15 C          -9.1398  -17.4897   26.5163 C.3     1  UNL1        0.0160
     16 C          -6.6604  -14.9381   27.6398 C.3     1  UNL1        0.0858
     17 N          -8.1000  -15.3531   27.5668 N.3     1  UNL1       -0.2974
     18 H          -8.6561  -14.5014   27.6425 H       1  UNL1        0.1232
     19 N          -5.8993  -18.7769   19.5462 N.pl3   1  UNL1       -0.1992
     20 H          -5.6594  -18.1565   18.8204 H       1  UNL1        0.2985
     21 C          -4.8238  -19.5032   20.2983 C.2     1  UNL1        0.3224
     22 N          -4.4829  -20.9191   19.9392 N.2     1  UNL1       -0.0985
     23 H          -4.9651  -21.3717   19.2098 H       1  UNL1        0.3633
     24 C          -4.0891  -18.8136   21.4095 C.ar    1  UNL1        0.1114
     25 C          -4.6413  -18.4959   22.7675 C.ar    1  UNL1        0.0144
     26 C          -3.5667  -17.8066   23.5552 C.ar    1  UNL1        0.0077
     27 C          -2.3505  -17.6984   22.6838 C.ar    1  UNL1        0.0357
     28 S          -2.6733  -18.3208   21.3578 S.2     1  UNL1       -0.0792
@<TRIPOS>BOND
     1    16    17    1
     2    10    17    1
     3    10    11    1
     4    11    12    1
     5    12    13    1
     6    13     1    1
     7     1     2    2
     8     2     3    1
     9     3     4    2
    10     4     5    1
    11     5     6    1
    12     6     7    2
    13     7    19    1
    14    19    21    1
    15    21    22    2
    16    21    24    1
    17    24    25   ar
    18    25    26   ar
    19    26    27   ar
    20    27    28   ar
    21     7     8    1
    22     8     9    2
    23    13    14    1
    24    14    15    1
    25    15    10    1
    26     9     1    1
    27     9     4    1
    28    28    24   ar
    29    17    18    1
    30    19    20    1
    31    22    23    1
@<TRIPOS>MOLECULE
*****
 28 31 0 0 0
SMALL
GASTEIGER

@<TRIPOS>ATOM
      1 C          -9.6026  -17.8021   22.0380 C.2     1  UNL1       -0.0021
      2 C         -10.9480  -17.7294   21.3787 C.2     1  UNL1        0.0942
      3 N         -10.8950  -18.5519   20.1254 N.2     1  UNL1       -0.2482
      4 C          -9.5169  -19.1329   20.0101 C.2     1  UNL1        0.0633
      5 C          -8.8861  -20.0240   18.9815 C.3     1  UNL1        0.0753
      6 C          -7.4567  -20.4517   19.1350 C.2     1  UNL1        0.0203
      7 C          -6.6579  -19.9883   20.3171 C.2     1  UNL1        0.1317
      8 C          -7.2887  -19.0972   21.3457 C.2     1  UNL1        0.0407
      9 C          -8.7181  -18.6695   21.1922 C.2     1  UNL1        0.0148
     10 C          -8.4263  -15.7740   25.8790 C.3     1  UNL1        0.0540
     11 C          -9.1903  -17.0643   25.9156 C.3     1  UNL1        0.0160
     12 C          -9.5824  -17.7403   24.6352 C.3     1  UNL1        0.0058
     13 C          -9.2105  -17.1261   23.3183 C.3     1  UNL1        0.0240
     14 C          -8.4464  -15.8357   23.2817 C.3     1  UNL1        0.0058
     15 C          -8.0543  -15.1597   24.5621 C.3     1  UNL1        0.0160
     16 C          -6.5922  -15.0465   27.5692 C.3     1  UNL1        0.0858
     17 N          -8.0342  -15.0980   27.1593 N.3     1  UNL1       -0.2974
     18 H          -8.3561  -14.1324   27.0931 H       1  UNL1        0.1232
     19 N          -5.2284  -20.4161   20.4705 N.pl3   1  UNL1       -0.1992
     20 H          -4.9143  -21.2458   20.0436 H       1  UNL1        0.2985
     21 C          -4.2774  -19.5798   21.2744 C.2     1  UNL1        0.3224
     22 N          -4.3766  -19.5604   22.7710 N.2     1  UNL1       -0.0985
     23 H          -5.0658  -20.0966   23.2257 H       1  UNL1        0.3633
     24 C          -3.2273  -18.7629   20.5817 C.ar    1  UNL1        0.1114
     25 C          -2.9452  -18.7559   19.1085 C.ar    1  UNL1        0.0144
     26 C          -1.8184  -17.7982   18.8568 C.ar    1  UNL1        0.0077
     27 C          -1.4041  -17.2133   20.1746 C.ar    1  UNL1        0.0357
     28 S          -2.2749  -17.8095   21.2406 S.2     1  UNL1       -0.0792
@<TRIPOS>BOND
     1    16    17    1
     2    10    17    1
     3    10    11    1
     4    11    12    1
     5    12    13    1
     6    13     1    1
     7     1     2    2
     8     2     3    1
     9     3     4    2
    10     4     5    1
    11     5     6    1
    12     6     7    2
    13     7    19    1
    14    19    21    1
    15    21    22    2
    16    21    24    1
    17    24    25   ar
    18    25    26   ar
    19    26    27   ar
    20    27    28   ar
    21     7     8    1
    22     8     9    2
    23    13    14    1
    24    14    15    1
    25    15    10    1
    26     9     1    1
    27     9     4    1
    28    28    24   ar
    29    17    18    1
    30    19    20    1
    31    22    23    1
@<TRIPOS>MOLECULE
*****
 28 31 0 0 0
SMALL
GASTEIGER

@<TRIPOS>ATOM
      1 C          -3.7722  -17.6245   23.1483 C.2     1  UNL1       -0.0021
      2 C          -2.2916  -17.5160   22.9337 C.2     1  UNL1        0.0942
      3 N          -1.9189  -18.4296   21.8039 N.2     1  UNL1       -0.2482
      4 C          -3.1691  -19.1026   21.3202 C.2     1  UNL1        0.0633
      5 C          -3.4125  -20.1043   20.2306 C.3     1  UNL1        0.0753
      6 C          -4.8014  -20.6084   19.9718 C.2     1  UNL1        0.0203
      7 C          -5.9468  -20.1108   20.8028 C.2     1  UNL1        0.1317
      8 C          -5.7034  -19.1091   21.8924 C.2     1  UNL1        0.0407
      9 C          -4.3145  -18.6051   22.1511 C.2     1  UNL1        0.0148
     10 C          -6.1667  -15.3988   26.2407 C.3     1  UNL1        0.0540
     11 C          -5.0609  -16.3182   26.6672 C.3     1  UNL1        0.0160
     12 C          -4.2628  -17.0601   25.6364 C.3     1  UNL1        0.0058
     13 C          -4.5703  -16.8826   24.1791 C.3     1  UNL1        0.0240
     14 C          -5.6762  -15.9632   23.7526 C.3     1  UNL1        0.0058
     15 C          -6.4744  -15.2213   24.7834 C.3     1  UNL1        0.0160
     16 C          -8.3705  -15.0806   27.5794 C.3     1  UNL1        0.0858
     17 N          -6.9649  -14.6570   27.2715 N.3     1  UNL1       -0.2974
     18 H          -6.4422  -14.7137   28.1456 H       1  UNL1        0.1232
     19 N          -7.3357  -20.6149   20.5440 N.pl3   1  UNL1       -0.1992
     20 H          -7.5368  -21.5740   20.6384 H       1  UNL1        0.2985
     21 C          -8.4181  -19.6577   20.1414 C.2     1  UNL1        0.3224
     22 N          -8.5015  -19.1726   18.7245 N.2     1  UNL1       -0.0985
     23 H          -7.8457  -19.4823   18.0588 H       1  UNL1        0.3633
     24 C          -9.4173  -19.1857   21.1558 C.ar    1  UNL1        0.1114
     25 C         -10.6842  -19.8911   21.5398 C.ar    1  UNL1        0.0144
     26 C         -11.3749  -19.0668   22.5856 C.ar    1  UNL1        0.0077
     27 C         -10.5348  -17.8520   22.8479 C.ar    1  UNL1        0.0357
     28 S          -9.3250  -17.9256   21.9642 S.2     1  UNL1       -0.0792
@<TRIPOS>BOND
     1    16    17    1
     2    10    17    1
     3    10    11    1
     4    11    12    1
     5    12    13    1
     6    13     1    1
     7     1     2    2
     8     2     3    1
     9     3     4    2
    10     4     5    1
    11     5     6    1
    12     6     7    2
    13     7    19    1
    14    19    21    1
    15    21    22    2
    16    21    24    1
    17    24    25   ar
    18    25    26   ar
    19    26    27   ar
    20    27    28   ar
    21     7     8    1
    22     8     9    2
    23    13    14    1
    24    14    15    1
    25    15    10    1
    26     9     1    1
    27     9     4    1
    28    28    24   ar
    29    17    18    1
    30    19    20    1
    31    22    23    1
@<TRIPOS>MOLECULE
*****
 28 31 0 0 0
SMALL
GASTEIGER

@<TRIPOS>ATOM
      1 C         -15.4328   -4.3518   18.7848 C.2     1  UNL1       -0.0021
      2 C         -16.6187   -3.4336   18.8014 C.2     1  UNL1        0.0942
      3 N         -16.1117   -2.0225   18.8436 N.2     1  UNL1       -0.2482
      4 C         -14.6125   -2.0686   18.8531 C.2     1  UNL1        0.0633
      5 C         -13.5752   -0.9857   18.8902 C.3     1  UNL1        0.0753
      6 C         -12.1183   -1.3425   18.8909 C.2     1  UNL1        0.0203
      7 C         -11.6986   -2.7822   18.8545 C.2     1  UNL1        0.1317
      8 C         -12.7359   -3.8650   18.8174 C.2     1  UNL1        0.0407
      9 C         -14.1928   -3.5083   18.8167 C.2     1  UNL1        0.0148
     10 C         -15.5703   -8.8480   18.6607 C.3     1  UNL1        0.0540
     11 C         -16.5816   -8.0887   19.4672 C.3     1  UNL1        0.0160
     12 C         -16.5358   -6.5900   19.5086 C.3     1  UNL1        0.0058
     13 C         -15.4786   -5.8505   18.7434 C.3     1  UNL1        0.0240
     14 C         -14.4672   -6.6099   17.9368 C.3     1  UNL1        0.0058
     15 C         -14.5131   -8.1087   17.8955 C.3     1  UNL1        0.0160
     16 C         -16.9375  -11.0563   18.5936 C.3     1  UNL1        0.0858
     17 N         -15.6162  -10.3468   18.6193 N.3     1  UNL1       -0.2974
     18 H         -15.1115  -10.6338   17.7807 H       1  UNL1        0.1232
     19 N         -10.2416   -3.1389   18.8552 N.pl3   1  UNL1       -0.1992
     20 H          -9.6415   -2.7562   19.5353 H       1  UNL1        0.2985
     21 C          -9.6991   -4.0788   17.8197 C.2     1  UNL1        0.3224
     22 N          -8.9328   -3.5418   16.6474 N.2     1  UNL1       -0.0985
     23 H          -8.7858   -2.5724   16.5576 H       1  UNL1        0.3633
     24 C          -9.9229   -5.5557   17.9565 C.ar    1  UNL1        0.1114
     25 C          -9.3405   -6.4410   19.0180 C.ar    1  UNL1        0.0144
     26 C          -9.8260   -7.8391   18.7734 C.ar    1  UNL1        0.0077
     27 C         -10.7086   -7.8177   17.5606 C.ar    1  UNL1        0.0357
     28 S         -10.7684   -6.4065   17.0558 S.2     1  UNL1       -0.0792
@<TRIPOS>BOND
     1    16    17    1
     2    10    17    1
     3    10    11    1
     4    11    12    1
     5    12    13    1
     6    13     1    1
     7     1     2    2
     8     2     3    1
     9     3     4    2
    10     4     5    1
    11     5     6    1
    12     6     7    2
    13     7    19    1
    14    19    21    1
    15    21    22    2
    16    21    24    1
    17    24    25   ar
    18    25    26   ar
    19    26    27   ar
    20    27    28   ar
    21     7     8    1
    22     8     9    2
    23    13    14    1
    24    14    15    1
    25    15    10    1
    26     9     1    1
    27     9     4    1
    28    28    24   ar
    29    17    18    1
    30    19    20    1
    31    22    23    1
@<TRIPOS>MOLECULE
*****
 28 31 0 0 0
SMALL
GASTEIGER

@<TRIPOS>ATOM
      1 C         -13.3485   -7.5911   17.5618 C.2     1  UNL1       -0.0021
      2 C         -12.5304   -8.2937   16.5192 C.2     1  UNL1        0.0942
      3 N         -11.3113   -7.4625   16.2489 N.2     1  UNL1       -0.2482
      4 C         -11.3761   -6.2462   17.1244 C.2     1  UNL1        0.0633
      5 C         -10.4513   -5.0766   17.2876 C.3     1  UNL1        0.0753
      6 C         -10.7855   -3.9865   18.2622 C.2     1  UNL1        0.0203
      7 C         -12.0446   -4.0660   19.0737 C.2     1  UNL1        0.1317
      8 C         -12.9694   -5.2356   18.9105 C.2     1  UNL1        0.0407
      9 C         -12.6352   -6.3257   17.9358 C.2     1  UNL1        0.0148
     10 C         -17.2570   -9.0275   19.2679 C.3     1  UNL1        0.0540
     11 C         -16.8287   -7.6041   19.4692 C.3     1  UNL1        0.0160
     12 C         -15.5259   -7.1254   18.9004 C.3     1  UNL1        0.0058
     13 C         -14.6513   -8.0699   18.1305 C.3     1  UNL1        0.0240
     14 C         -15.0796   -9.4934   17.9292 C.3     1  UNL1        0.0058
     15 C         -16.3825   -9.9721   18.4980 C.3     1  UNL1        0.0160
     16 C         -19.5284   -8.5229   20.4239 C.3     1  UNL1        0.0858
     17 N         -18.5598   -9.5063   19.8366 N.3     1  UNL1       -0.2974
     18 H         -19.0503   -9.9888   19.0836 H       1  UNL1        0.1232
     19 N         -12.3788   -2.9759   20.0483 N.pl3   1  UNL1       -0.1992
     20 H         -11.6634   -2.4087   20.4169 H       1  UNL1        0.2985
     21 C         -13.8029   -2.7499   20.4615 C.2     1  UNL1        0.3224
     22 N         -14.3196   -3.3536   21.7337 N.2     1  UNL1       -0.0985
     23 H         -13.7241   -3.8982   22.2975 H       1  UNL1        0.3633
     24 C         -14.7104   -1.9201   19.6023 C.ar    1  UNL1        0.1114
     25 C         -14.2803   -0.9906   18.5064 C.ar    1  UNL1        0.0144
     26 C         -15.5114   -0.3701   17.9151 C.ar    1  UNL1        0.0077
     27 C         -16.7023   -0.9163   18.6456 C.ar    1  UNL1        0.0357
     28 S         -16.2072   -1.8742   19.6883 S.2     1  UNL1       -0.0792
@<TRIPOS>BOND
     1    16    17    1
     2    10    17    1
     3    10    11    1
     4    11    12    1
     5    12    13    1
     6    13     1    1
     7     1     2    2
     8     2     3    1
     9     3     4    2
    10     4     5    1
    11     5     6    1
    12     6     7    2
    13     7    19    1
    14    19    21    1
    15    21    22    2
    16    21    24    1
    17    24    25   ar
    18    25    26   ar
    19    26    27   ar
    20    27    28   ar
    21     7     8    1
    22     8     9    2
    23    13    14    1
    24    14    15    1
    25    15    10    1
    26     9     1    1
    27     9     4    1
    28    28    24   ar
    29    17    18    1
    30    19    20    1
    31    22    23    1
@<TRIPOS>MOLECULE
*****
 28 31 0 0 0
SMALL
GASTEIGER

@<TRIPOS>ATOM
      1 C         -13.3782   -6.7719   18.0310 C.2     1  UNL1       -0.0021
      2 C         -12.8535   -8.0523   17.4521 C.2     1  UNL1        0.0942
      3 N         -11.3848   -7.8799   17.2009 N.2     1  UNL1       -0.2482
      4 C         -11.0017   -6.4929   17.6246 C.2     1  UNL1        0.0633
      5 C          -9.6903   -5.7650   17.6095 C.3     1  UNL1        0.0753
      6 C          -9.6109   -4.3523   18.1074 C.2     1  UNL1        0.0203
      7 C         -10.8429   -3.6675   18.6204 C.2     1  UNL1        0.1317
      8 C         -12.1543   -4.3954   18.6355 C.2     1  UNL1        0.0407
      9 C         -12.2338   -5.8081   18.1376 C.2     1  UNL1        0.0148
     10 C         -17.6378   -5.9638   19.2364 C.3     1  UNL1        0.0540
     11 C         -16.8615   -4.9247   18.4830 C.3     1  UNL1        0.0160
     12 C         -15.4417   -5.1941   18.0812 C.3     1  UNL1        0.0058
     13 C         -14.7981   -6.5025   18.4328 C.3     1  UNL1        0.0240
     14 C         -15.5744   -7.5416   19.1863 C.3     1  UNL1        0.0058
     15 C         -16.9942   -7.2722   19.5881 C.3     1  UNL1        0.0160
     16 C         -19.6297   -4.3154   19.4922 C.3     1  UNL1        0.0858
     17 N         -19.0577   -5.6944   19.6382 N.3     1  UNL1       -0.2974
     18 H         -19.6441   -6.3168   19.0823 H       1  UNL1        0.1232
     19 N         -10.7634   -2.2547   19.1183 N.pl3   1  UNL1       -0.1992
     20 H         -10.4027   -2.0685   20.0152 H       1  UNL1        0.2985
     21 C         -11.2336   -1.1258   18.2497 C.2     1  UNL1        0.3224
     22 N         -10.3009   -0.5109   17.2488 N.2     1  UNL1       -0.0985
     23 H          -9.3801   -0.8483   17.1619 H       1  UNL1        0.3633
     24 C         -12.6366   -0.6117   18.3821 C.ar    1  UNL1        0.1114
     25 C         -13.8100   -1.3790   18.9155 C.ar    1  UNL1        0.0144
     26 C         -15.0111   -0.4816   18.8674 C.ar    1  UNL1        0.0077
     27 C         -14.5799    0.8402   18.3043 C.ar    1  UNL1        0.0357
     28 S         -13.1124    0.7597   18.0043 S.2     1  UNL1       -0.0792
@<TRIPOS>BOND
     1    16    17    1
     2    10    17    1
     3    10    11    1
     4    11    12    1
     5    12    13    1
     6    13     1    1
     7     1     2    2
     8     2     3    1
     9     3     4    2
    10     4     5    1
    11     5     6    1
    12     6     7    2
    13     7    19    1
    14    19    21    1
    15    21    22    2
    16    21    24    1
    17    24    25   ar
    18    25    26   ar
    19    26    27   ar
    20    27    28   ar
    21     7     8    1
    22     8     9    2
    23    13    14    1
    24    14    15    1
    25    15    10    1
    26     9     1    1
    27     9     4    1
    28    28    24   ar
    29    17    18    1
    30    19    20    1
    31    22    23    1
