@<TRIPOS>MOLECULE
*****
 32 35 0 0 0
SMALL
GASTEIGER

@<TRIPOS>ATOM
      1 C           1.6620    3.1467   33.6031 C.ar    1  UNL1        0.1387
      2 C           2.6071    1.9947   33.4312 C.ar    1  UNL1        0.0375
      3 C           2.8391    1.4121   32.0686 C.ar    1  UNL1        0.0114
      4 C           2.1261    1.9814   30.8780 C.ar    1  UNL1        0.0422
      5 C           1.1810    3.1334   31.0500 C.ar    1  UNL1        0.0114
      6 C           0.9489    3.7160   32.4126 C.ar    1  UNL1        0.0375
      7 C           2.3582    1.3987   29.5154 C.1     1  UNL1       -0.0583
      8 C           2.5904    0.8160   28.1529 C.1     1  UNL1       -0.0405
      9 C           2.8225    0.2333   26.7903 C.ar    1  UNL1        0.1228
     10 C           2.1248    0.8154   25.5968 C.ar    1  UNL1        0.0276
     11 C           2.3570    0.2327   24.2343 C.ar    1  UNL1        0.0037
     12 C           3.2868   -0.9322   24.0653 C.ar    1  UNL1        0.0192
     13 C           3.9845   -1.5143   25.2587 C.ar    1  UNL1        0.0995
     14 N           3.7523   -0.9316   26.6212 N.ar    1  UNL1       -0.2356
     15 C           3.5189   -1.5149   22.7026 C.ar    1  UNL1        0.0016
     16 C           4.4090   -2.7113   22.5403 C.ar    1  UNL1        0.0009
     17 C           4.6410   -3.2939   21.1777 C.ar    1  UNL1        0.0114
     18 C           3.9831   -2.6802   19.9775 C.ar    1  UNL1        0.0577
     19 CL          4.2152   -3.2629   18.6149 Cl      1  UNL1       -0.0822
     20 C           3.0931   -1.4838   20.1399 C.ar    1  UNL1        0.0114
     21 C           2.8610   -0.9011   21.5025 C.ar    1  UNL1        0.0009
     22 O           1.4298    3.7294   34.9658 O.3     1  UNL1       -0.4740
     23 C           2.5167    3.6786   35.9983 C.3     1  UNL1        0.2226
     24 C           2.1754    3.8061   37.4534 C.3     1  UNL1        0.1201
     25 C           2.5893    1.3379   38.3924 C.3     1  UNL1        0.0871
     26 C           1.8156    0.3893   39.2593 C.3     1  UNL1        0.0199
     27 C           0.5283    1.0570   39.6430 C.3     1  UNL1        0.0188
     28 C           0.5064    2.4181   39.0132 C.3     1  UNL1        0.0723
     29 N           1.7802    2.5918   38.2403 N.3     1  UNL1       -0.2686
     30 O           4.1703   -0.1702   36.9867 O.3     1  UNL1       -0.3806
     31 C           3.9357    1.0782   37.7844 C.3     1  UNL1        0.1530
     32 H           5.0862   -0.1826   36.6675 H       1  UNL1        0.2105
@<TRIPOS>BOND
     1    30    31    1
     2    25    31    1
     3    25    26    1
     4    26    27    1
     5    27    28    1
     6    28    29    1
     7    29    24    1
     8    24    23    1
     9    23    22    1
    10    22     1    1
    11     1     2   ar
    12     2     3   ar
    13     3     4   ar
    14     4     7    1
    15     7     8    3
    16     8     9    1
    17     9    10   ar
    18    10    11   ar
    19    11    12   ar
    20    12    15    1
    21    15    16   ar
    22    16    17   ar
    23    17    18   ar
    24    18    19    1
    25    18    20   ar
    26    20    21   ar
    27    12    13   ar
    28    13    14   ar
    29     4     5   ar
    30     5     6   ar
    31    29    25    1
    32     6     1   ar
    33    14     9   ar
    34    21    15   ar
    35    30    32    1
@<TRIPOS>MOLECULE
*****
 32 35 0 0 0
SMALL
GASTEIGER

@<TRIPOS>ATOM
      1 C           1.1509    4.0968   33.2230 C.ar    1  UNL1        0.1387
      2 C           1.6563    2.6850   33.1878 C.ar    1  UNL1        0.0375
      3 C           1.9204    2.0156   31.8718 C.ar    1  UNL1        0.0114
      4 C           1.6791    2.7579   30.5909 C.ar    1  UNL1        0.0422
      5 C           1.1736    4.1697   30.6260 C.ar    1  UNL1        0.0114
      6 C           0.9095    4.8392   31.9421 C.ar    1  UNL1        0.0375
      7 C           1.9432    2.0884   29.2748 C.1     1  UNL1       -0.0583
      8 C           2.2073    1.4189   27.9587 C.1     1  UNL1       -0.0405
      9 C           2.4714    0.7494   26.6426 C.ar    1  UNL1        0.1228
     10 C           3.4830   -0.3544   26.5524 C.ar    1  UNL1        0.0276
     11 C           3.7471   -1.0239   25.2363 C.ar    1  UNL1        0.0037
     12 C           2.9996   -0.5896   24.0105 C.ar    1  UNL1        0.0192
     13 C           1.9880    0.5143   24.1008 C.ar    1  UNL1        0.0995
     14 N           1.7239    1.1837   25.4168 N.ar    1  UNL1       -0.2356
     15 C           3.2637   -1.2591   22.6944 C.ar    1  UNL1        0.0016
     16 C           2.5822   -0.7666   21.4523 C.ar    1  UNL1        0.0009
     17 C           2.8463   -1.4361   20.1363 C.ar    1  UNL1        0.0114
     18 C           3.7920   -2.5981   20.0624 C.ar    1  UNL1        0.0577
     19 CL          4.0561   -3.2677   18.7463 Cl      1  UNL1       -0.0822
     20 C           4.4734   -3.0907   21.3046 C.ar    1  UNL1        0.0114
     21 C           4.2093   -2.4211   22.6206 C.ar    1  UNL1        0.0009
     22 O           0.8868    4.7664   34.5391 O.3     1  UNL1       -0.4740
     23 C           1.8981    4.6755   35.6431 C.3     1  UNL1        0.2226
     24 C           1.5024    4.1193   36.9788 C.3     1  UNL1        0.1201
     25 C           1.7057    2.0757   38.6897 C.3     1  UNL1        0.0871
     26 C           2.6113    0.8869   38.8193 C.3     1  UNL1        0.0199
     27 C           3.5990    0.9315   37.6912 C.3     1  UNL1        0.0188
     28 C           3.3038    2.1478   36.8645 C.3     1  UNL1        0.0723
     29 N           2.1337    2.8549   37.4816 N.3     1  UNL1       -0.2686
     30 O           0.6128    2.0004   41.0455 O.3     1  UNL1       -0.3806
     31 C           0.5713    2.4240   39.6072 C.3     1  UNL1        0.1530
     32 H          -0.1916    2.3034   41.4951 H       1  UNL1        0.2105
@<TRIPOS>BOND
     1    30    31    1
     2    25    31    1
     3    25    26    1
     4    26    27    1
     5    27    28    1
     6    28    29    1
     7    29    24    1
     8    24    23    1
     9    23    22    1
    10    22     1    1
    11     1     2   ar
    12     2     3   ar
    13     3     4   ar
    14     4     7    1
    15     7     8    3
    16     8     9    1
    17     9    10   ar
    18    10    11   ar
    19    11    12   ar
    20    12    15    1
    21    15    16   ar
    22    16    17   ar
    23    17    18   ar
    24    18    19    1
    25    18    20   ar
    26    20    21   ar
    27    12    13   ar
    28    13    14   ar
    29     4     5   ar
    30     5     6   ar
    31    29    25    1
    32     6     1   ar
    33    14     9   ar
    34    21    15   ar
    35    30    32    1
@<TRIPOS>MOLECULE
*****
 32 35 0 0 0
SMALL
GASTEIGER

@<TRIPOS>ATOM
      1 C           3.8465   -2.5217   20.2976 C.ar    1  UNL1        0.1387
      2 C           4.5842   -3.4694   21.1962 C.ar    1  UNL1        0.0375
      3 C           4.6351   -3.2160   22.6737 C.ar    1  UNL1        0.0114
      4 C           3.9481   -2.0147   23.2527 C.ar    1  UNL1        0.0422
      5 C           3.2104   -1.0670   22.3541 C.ar    1  UNL1        0.0114
      6 C           3.1595   -1.3205   20.8766 C.ar    1  UNL1        0.0375
      7 C           3.9990   -1.7613   24.7303 C.1     1  UNL1       -0.0583
      8 C           4.0499   -1.5078   26.2078 C.1     1  UNL1       -0.0405
      9 C           4.1007   -1.2544   27.6854 C.ar    1  UNL1        0.1228
     10 C           5.4129   -1.3052   28.4103 C.ar    1  UNL1        0.0276
     11 C           5.4637   -1.0517   29.8879 C.ar    1  UNL1        0.0037
     12 C           4.2024   -0.7475   30.6405 C.ar    1  UNL1        0.0192
     13 C           2.8902   -0.6967   29.9156 C.ar    1  UNL1        0.0995
     14 N           2.8394   -0.9501   28.4380 N.ar    1  UNL1       -0.2356
     15 C           4.2532   -0.4940   32.1181 C.ar    1  UNL1        0.0016
     16 C           4.0345    0.8916   32.6493 C.ar    1  UNL1        0.0009
     17 C           4.0854    1.1449   34.1269 C.ar    1  UNL1        0.0114
     18 C           4.3550    0.0128   35.0732 C.ar    1  UNL1        0.0577
     19 CL          4.4059    0.2662   36.5508 Cl      1  UNL1       -0.0822
     20 C           4.5737   -1.3728   34.5419 C.ar    1  UNL1        0.0114
     21 C           4.5229   -1.6262   33.0644 C.ar    1  UNL1        0.0009
     22 O           3.7956   -2.7751   18.8200 O.3     1  UNL1       -0.4740
     23 C           4.5469   -1.8805   17.8793 C.3     1  UNL1        0.2226
     24 C           3.8387   -0.7507   17.1922 C.3     1  UNL1        0.1201
     25 C           2.5642    1.2718   18.3880 C.3     1  UNL1        0.0871
     26 C           2.9718    2.6091   18.9315 C.3     1  UNL1        0.0199
     27 C           4.4475    2.7676   18.7138 C.3     1  UNL1        0.0188
     28 C           4.9518    1.5283   18.0357 C.3     1  UNL1        0.0723
     29 N           3.7879    0.6039   17.8344 N.3     1  UNL1       -0.2686
     30 O           0.4325    0.5592   19.6912 O.3     1  UNL1       -0.3806
     31 C           1.1765    0.7024   18.3966 C.3     1  UNL1        0.1530
     32 H          -0.4429    0.1779   19.5205 H       1  UNL1        0.2105
@<TRIPOS>BOND
     1    30    31    1
     2    25    31    1
     3    25    26    1
     4    26    27    1
     5    27    28    1
     6    28    29    1
     7    29    24    1
     8    24    23    1
     9    23    22    1
    10    22     1    1
    11     1     2   ar
    12     2     3   ar
    13     3     4   ar
    14     4     7    1
    15     7     8    3
    16     8     9    1
    17     9    10   ar
    18    10    11   ar
    19    11    12   ar
    20    12    15    1
    21    15    16   ar
    22    16    17   ar
    23    17    18   ar
    24    18    19    1
    25    18    20   ar
    26    20    21   ar
    27    12    13   ar
    28    13    14   ar
    29     4     5   ar
    30     5     6   ar
    31    29    25    1
    32     6     1   ar
    33    14     9   ar
    34    21    15   ar
    35    30    32    1
@<TRIPOS>MOLECULE
*****
 32 35 0 0 0
SMALL
GASTEIGER

@<TRIPOS>ATOM
      1 C           0.9266    1.0529   29.7796 C.ar    1  UNL1        0.1387
      2 C           1.1419    2.4516   29.2826 C.ar    1  UNL1        0.0375
      3 C           0.3270    2.9741   28.1368 C.ar    1  UNL1        0.0114
      4 C          -0.7032    2.0978   27.4880 C.ar    1  UNL1        0.0422
      5 C          -0.9184    0.6991   27.9851 C.ar    1  UNL1        0.0114
      6 C          -0.1035    0.1766   29.1309 C.ar    1  UNL1        0.0375
      7 C          -1.5181    2.6204   26.3422 C.1     1  UNL1       -0.0583
      8 C          -2.3330    3.1429   25.1964 C.1     1  UNL1       -0.0405
      9 C          -3.1479    3.6655   24.0506 C.ar    1  UNL1        0.1228
     10 C          -4.5465    3.1673   23.8362 C.ar    1  UNL1        0.0276
     11 C          -5.3613    3.6899   22.6904 C.ar    1  UNL1        0.0037
     12 C          -4.7776    4.7106   21.7589 C.ar    1  UNL1        0.0192
     13 C          -3.3791    5.2087   21.9733 C.ar    1  UNL1        0.0995
     14 N          -2.5643    4.6861   23.1191 N.ar    1  UNL1       -0.2356
     15 C          -5.5925    5.2331   20.6131 C.ar    1  UNL1        0.0016
     16 C          -6.6262    4.3587   19.9676 C.ar    1  UNL1        0.0009
     17 C          -7.4411    4.8812   18.8218 C.ar    1  UNL1        0.0114
     18 C          -7.2222    6.2783   18.3215 C.ar    1  UNL1        0.0577
     19 CL         -8.0371    6.8009   17.1756 Cl      1  UNL1       -0.0822
     20 C          -6.1885    7.1528   18.9670 C.ar    1  UNL1        0.0114
     21 C          -5.3737    6.6302   20.1127 C.ar    1  UNL1        0.0009
     22 O           1.7415    0.5303   30.9255 O.3     1  UNL1       -0.4740
     23 C           2.7679   -0.5379   30.6902 C.3     1  UNL1        0.2226
     24 C           4.1954   -0.3075   31.0895 C.3     1  UNL1        0.1201
     25 C           5.2296   -2.4595   32.2912 C.3     1  UNL1        0.0871
     26 C           6.3169   -3.4387   31.9611 C.3     1  UNL1        0.0199
     27 C           6.9063   -3.0483   30.6381 C.3     1  UNL1        0.0188
     28 C           6.1833   -1.8278   30.1506 C.3     1  UNL1        0.0723
     29 N           5.1471   -1.4639   31.1723 N.3     1  UNL1       -0.2686
     30 O           3.4809   -3.6450   33.8034 O.3     1  UNL1       -0.3806
     31 C           4.3749   -2.4735   33.5238 C.3     1  UNL1        0.1530
     32 H           3.0012   -3.4949   34.6330 H       1  UNL1        0.2105
@<TRIPOS>BOND
     1    30    31    1
     2    25    31    1
     3    25    26    1
     4    26    27    1
     5    27    28    1
     6    28    29    1
     7    29    24    1
     8    24    23    1
     9    23    22    1
    10    22     1    1
    11     1     2   ar
    12     2     3   ar
    13     3     4   ar
    14     4     7    1
    15     7     8    3
    16     8     9    1
    17     9    10   ar
    18    10    11   ar
    19    11    12   ar
    20    12    15    1
    21    15    16   ar
    22    16    17   ar
    23    17    18   ar
    24    18    19    1
    25    18    20   ar
    26    20    21   ar
    27    12    13   ar
    28    13    14   ar
    29     4     5   ar
    30     5     6   ar
    31    29    25    1
    32     6     1   ar
    33    14     9   ar
    34    21    15   ar
    35    30    32    1
@<TRIPOS>MOLECULE
*****
 32 35 0 0 0
SMALL
GASTEIGER

@<TRIPOS>ATOM
      1 C           4.6354    0.3305   17.7328 C.ar    1  UNL1        0.1387
      2 C           4.7264    1.5451   18.6083 C.ar    1  UNL1        0.0375
      3 C           3.5007    2.0650   19.2992 C.ar    1  UNL1        0.0114
      4 C           2.1841    1.3704   19.1147 C.ar    1  UNL1        0.0422
      5 C           2.0932    0.1558   18.2392 C.ar    1  UNL1        0.0114
      6 C           3.3188   -0.3642   17.5483 C.ar    1  UNL1        0.0375
      7 C           0.9585    1.8904   19.8057 C.1     1  UNL1       -0.0583
      8 C          -0.2671    2.4104   20.4966 C.1     1  UNL1       -0.0405
      9 C          -1.4928    2.9305   21.1876 C.ar    1  UNL1        0.1228
     10 C          -1.3784    3.5624   22.5431 C.ar    1  UNL1        0.0276
     11 C          -2.6040    4.0824   23.2340 C.ar    1  UNL1        0.0037
     12 C          -3.9441    3.9704   22.5694 C.ar    1  UNL1        0.0192
     13 C          -4.0585    3.3385   21.2139 C.ar    1  UNL1        0.0995
     14 N          -2.8329    2.8185   20.5229 N.ar    1  UNL1       -0.2356
     15 C          -5.1697    4.4905   23.2604 C.ar    1  UNL1        0.0016
     16 C          -6.5310    4.0773   22.7848 C.ar    1  UNL1        0.0009
     17 C          -7.7566    4.5973   23.4758 C.ar    1  UNL1        0.0114
     18 C          -7.6209    5.5305   24.6423 C.ar    1  UNL1        0.0577
     19 CL         -8.8466    6.0505   25.3333 Cl      1  UNL1       -0.0822
     20 C          -6.2596    5.9437   25.1178 C.ar    1  UNL1        0.0114
     21 C          -5.0341    5.4237   24.4269 C.ar    1  UNL1        0.0009
     22 O           5.8611   -0.1896   17.0419 O.3     1  UNL1       -0.4740
     23 C           6.9313   -0.8815   17.8329 C.3     1  UNL1        0.2226
     24 C           6.6083   -2.1287   18.6012 C.3     1  UNL1        0.1201
     25 C           4.4826   -2.9525   19.9967 C.3     1  UNL1        0.0871
     26 C           3.8368   -2.5422   21.2869 C.3     1  UNL1        0.0199
     27 C           4.6276   -1.4032   21.8593 C.3     1  UNL1        0.0188
     28 C           5.7620   -1.1097   20.9229 C.3     1  UNL1        0.0723
     29 N           5.6724   -2.0672   19.7718 N.3     1  UNL1       -0.2686
     30 O           4.7190   -5.3816   19.1058 O.3     1  UNL1       -0.3806
     31 C           4.0198   -4.0547   19.0907 C.3     1  UNL1        0.1530
     32 H           4.2977   -5.9764   18.4658 H       1  UNL1        0.2105
@<TRIPOS>BOND
     1    30    31    1
     2    25    31    1
     3    25    26    1
     4    26    27    1
     5    27    28    1
     6    28    29    1
     7    29    24    1
     8    24    23    1
     9    23    22    1
    10    22     1    1
    11     1     2   ar
    12     2     3   ar
    13     3     4   ar
    14     4     7    1
    15     7     8    3
    16     8     9    1
    17     9    10   ar
    18    10    11   ar
    19    11    12   ar
    20    12    15    1
    21    15    16   ar
    22    16    17   ar
    23    17    18   ar
    24    18    19    1
    25    18    20   ar
    26    20    21   ar
    27    12    13   ar
    28    13    14   ar
    29     4     5   ar
    30     5     6   ar
    31    29    25    1
    32     6     1   ar
    33    14     9   ar
    34    21    15   ar
    35    30    32    1
@<TRIPOS>MOLECULE
*****
 32 35 0 0 0
SMALL
GASTEIGER

@<TRIPOS>ATOM
      1 C           4.3142   -2.7685   21.0233 C.ar    1  UNL1        0.1387
      2 C           5.0288   -3.4497   22.1525 C.ar    1  UNL1        0.0375
      3 C           4.8683   -2.9438   23.5555 C.ar    1  UNL1        0.0114
      4 C           3.9932   -1.7567   23.8292 C.ar    1  UNL1        0.0422
      5 C           3.2787   -1.0754   22.6999 C.ar    1  UNL1        0.0114
      6 C           3.4392   -1.5813   21.2970 C.ar    1  UNL1        0.0375
      7 C           3.8327   -1.2508   25.2322 C.1     1  UNL1       -0.0583
      8 C           3.6723   -0.7449   26.6351 C.1     1  UNL1       -0.0405
      9 C           3.5118   -0.2390   28.0381 C.ar    1  UNL1        0.1228
     10 C           4.3087    0.9429   28.5050 C.ar    1  UNL1        0.0276
     11 C           4.1482    1.4487   29.9080 C.ar    1  UNL1        0.0037
     12 C           3.1908    0.7727   30.8440 C.ar    1  UNL1        0.0192
     13 C           2.3938   -0.4091   30.3772 C.ar    1  UNL1        0.0995
     14 N           2.5543   -0.9150   28.9742 N.ar    1  UNL1       -0.2356
     15 C           3.0303    1.2786   32.2471 C.ar    1  UNL1        0.0016
     16 C           3.8363    0.6750   33.3588 C.ar    1  UNL1        0.0009
     17 C           3.6758    1.1809   34.7617 C.ar    1  UNL1        0.0114
     18 C           2.7092    2.2904   35.0529 C.ar    1  UNL1        0.0577
     19 CL          2.5488    2.7963   36.4559 Cl      1  UNL1       -0.0822
     20 C           1.9033    2.8940   33.9412 C.ar    1  UNL1        0.0114
     21 C           2.0638    2.3881   32.5383 C.ar    1  UNL1        0.0009
     22 O           4.4747   -3.2744   19.6203 O.3     1  UNL1       -0.4740
     23 C           5.8282   -3.2757   18.9737 C.3     1  UNL1        0.2226
     24 C           6.2484   -2.1227   18.1110 C.3     1  UNL1        0.1201
     25 C           4.5669   -0.0452   18.1501 C.3     1  UNL1        0.0871
     26 C           4.6063    1.3406   18.7228 C.3     1  UNL1        0.0199
     27 C           5.9251    1.5187   19.4150 C.3     1  UNL1        0.0188
     28 C           6.7007    0.2430   19.2700 C.3     1  UNL1        0.0723
     29 N           5.8613   -0.7235   18.4883 N.3     1  UNL1       -0.2686
     30 O           3.6977   -1.3350   16.0690 O.3     1  UNL1       -0.3806
     31 C           3.4323   -0.6469   17.3751 C.3     1  UNL1        0.1530
     32 H           2.8627   -1.6648   15.7017 H       1  UNL1        0.2105
@<TRIPOS>BOND
     1    30    31    1
     2    25    31    1
     3    25    26    1
     4    26    27    1
     5    27    28    1
     6    28    29    1
     7    29    24    1
     8    24    23    1
     9    23    22    1
    10    22     1    1
    11     1     2   ar
    12     2     3   ar
    13     3     4   ar
    14     4     7    1
    15     7     8    3
    16     8     9    1
    17     9    10   ar
    18    10    11   ar
    19    11    12   ar
    20    12    15    1
    21    15    16   ar
    22    16    17   ar
    23    17    18   ar
    24    18    19    1
    25    18    20   ar
    26    20    21   ar
    27    12    13   ar
    28    13    14   ar
    29     4     5   ar
    30     5     6   ar
    31    29    25    1
    32     6     1   ar
    33    14     9   ar
    34    21    15   ar
    35    30    32    1
@<TRIPOS>MOLECULE
*****
 32 35 0 0 0
SMALL
GASTEIGER

@<TRIPOS>ATOM
      1 C           3.8164   -2.4042   20.4244 C.ar    1  UNL1        0.1387
      2 C           3.1191   -1.2156   21.0168 C.ar    1  UNL1        0.0375
      3 C           3.1831   -0.9684   22.4949 C.ar    1  UNL1        0.0114
      4 C           3.9444   -1.9097   23.3805 C.ar    1  UNL1        0.0422
      5 C           4.6417   -3.0983   22.7880 C.ar    1  UNL1        0.0114
      6 C           4.5777   -3.3455   21.3100 C.ar    1  UNL1        0.0375
      7 C           4.0084   -1.6624   24.8586 C.1     1  UNL1       -0.0583
      8 C           4.0723   -1.4152   26.3367 C.1     1  UNL1       -0.0405
      9 C           4.1363   -1.1679   27.8149 C.ar    1  UNL1        0.1228
     10 C           5.4612   -1.1650   28.5181 C.ar    1  UNL1        0.0276
     11 C           5.5251   -0.9177   29.9962 C.ar    1  UNL1        0.0037
     12 C           4.2642   -0.6733   30.7710 C.ar    1  UNL1        0.0192
     13 C           2.9393   -0.6763   30.0677 C.ar    1  UNL1        0.0995
     14 N           2.8753   -0.9235   28.5897 N.ar    1  UNL1       -0.2356
     15 C           4.3281   -0.4261   32.2491 C.ar    1  UNL1        0.0016
     16 C           4.5166   -1.5754   33.1944 C.ar    1  UNL1        0.0009
     17 C           4.5806   -1.3281   34.6724 C.ar    1  UNL1        0.0114
     18 C           4.4561    0.0686   35.2052 C.ar    1  UNL1        0.0577
     19 CL          4.5201    0.3158   36.6834 Cl      1  UNL1       -0.0822
     20 C           4.2676    1.2179   34.2600 C.ar    1  UNL1        0.0114
     21 C           4.2036    0.9706   32.7820 C.ar    1  UNL1        0.0009
     22 O           3.7524   -2.6514   18.9462 O.3     1  UNL1       -0.4740
     23 C           4.5891   -1.8293   18.0114 C.3     1  UNL1        0.2226
     24 C           3.9515   -0.7524   17.1844 C.3     1  UNL1        0.1201
     25 C           3.8616    1.6305   18.3922 C.3     1  UNL1        0.0871
     26 C           2.7742    2.4844   18.9740 C.3     1  UNL1        0.0199
     27 C           1.4719    1.7617   18.7956 C.3     1  UNL1        0.0188
     28 C           1.7544    0.4613   18.1035 C.3     1  UNL1        0.0723
     29 N           3.2313    0.3802   17.8541 N.3     1  UNL1       -0.2686
     30 O           6.0254    2.1138   17.0378 O.3     1  UNL1       -0.3806
     31 C           5.3227    1.9678   18.3549 C.3     1  UNL1        0.1530
     32 H           6.9581    2.3313   17.1913 H       1  UNL1        0.2105
@<TRIPOS>BOND
     1    30    31    1
     2    25    31    1
     3    25    26    1
     4    26    27    1
     5    27    28    1
     6    28    29    1
     7    29    24    1
     8    24    23    1
     9    23    22    1
    10    22     1    1
    11     1     2   ar
    12     2     3   ar
    13     3     4   ar
    14     4     7    1
    15     7     8    3
    16     8     9    1
    17     9    10   ar
    18    10    11   ar
    19    11    12   ar
    20    12    15    1
    21    15    16   ar
    22    16    17   ar
    23    17    18   ar
    24    18    19    1
    25    18    20   ar
    26    20    21   ar
    27    12    13   ar
    28    13    14   ar
    29     4     5   ar
    30     5     6   ar
    31    29    25    1
    32     6     1   ar
    33    14     9   ar
    34    21    15   ar
    35    30    32    1
@<TRIPOS>MOLECULE
*****
 32 35 0 0 0
SMALL
GASTEIGER

@<TRIPOS>ATOM
      1 C           5.2533   -2.7366   22.9824 C.ar    1  UNL1        0.1387
      2 C           6.2449   -3.2568   23.9803 C.ar    1  UNL1        0.0375
      3 C           6.1406   -2.8537   25.4213 C.ar    1  UNL1        0.0114
      4 C           5.0446   -1.9304   25.8644 C.ar    1  UNL1        0.0422
      5 C           4.0529   -1.4102   24.8665 C.ar    1  UNL1        0.0114
      6 C           4.1573   -1.8133   23.4255 C.ar    1  UNL1        0.0375
      7 C           4.9403   -1.5274   27.3055 C.1     1  UNL1       -0.0583
      8 C           4.8360   -1.1243   28.7465 C.1     1  UNL1       -0.0405
      9 C           4.7317   -0.7212   30.1877 C.ar    1  UNL1        0.1228
     10 C           3.3841   -0.5770   30.8305 C.ar    1  UNL1        0.0276
     11 C           3.2799   -0.1739   32.2715 C.ar    1  UNL1        0.0037
     12 C           4.5232    0.0849   33.0697 C.ar    1  UNL1        0.0192
     13 C           5.8708   -0.0593   32.4269 C.ar    1  UNL1        0.0995
     14 N           5.9750   -0.4624   30.9859 N.ar    1  UNL1       -0.2356
     15 C           4.4189    0.4880   34.5108 C.ar    1  UNL1        0.0016
     16 C           3.5472    1.6432   34.9053 C.ar    1  UNL1        0.0009
     17 C           3.4430    2.0462   36.3464 C.ar    1  UNL1        0.0114
     18 C           4.2104    1.2940   37.3929 C.ar    1  UNL1        0.0577
     19 CL          4.1061    1.6971   38.8340 Cl      1  UNL1       -0.0822
     20 C           5.0821    0.1389   36.9984 C.ar    1  UNL1        0.0114
     21 C           5.1864   -0.2641   35.5574 C.ar    1  UNL1        0.0009
     22 O           5.3576   -3.1397   21.5413 O.3     1  UNL1       -0.4740
     23 C           4.9337   -2.1866   20.4633 C.3     1  UNL1        0.2226
     24 C           3.6470   -2.4124   19.7260 C.3     1  UNL1        0.1201
     25 C           2.7854   -0.3061   18.3237 C.3     1  UNL1        0.0871
     26 C           1.6623    0.6774   18.4693 C.3     1  UNL1        0.0199
     27 C           0.8975    0.3270   19.7112 C.3     1  UNL1        0.0188
     28 C           1.5478   -0.8731   20.3331 C.3     1  UNL1        0.0723
     29 N           2.7147   -1.2644   19.4756 N.3     1  UNL1       -0.2686
     30 O           3.7625   -1.4141   16.1865 O.3     1  UNL1       -0.3806
     31 C           3.8010   -0.3277   17.2200 C.3     1  UNL1        0.1530
     32 H           4.4827   -1.2809   15.5505 H       1  UNL1        0.2105
@<TRIPOS>BOND
     1    30    31    1
     2    25    31    1
     3    25    26    1
     4    26    27    1
     5    27    28    1
     6    28    29    1
     7    29    24    1
     8    24    23    1
     9    23    22    1
    10    22     1    1
    11     1     2   ar
    12     2     3   ar
    13     3     4   ar
    14     4     7    1
    15     7     8    3
    16     8     9    1
    17     9    10   ar
    18    10    11   ar
    19    11    12   ar
    20    12    15    1
    21    15    16   ar
    22    16    17   ar
    23    17    18   ar
    24    18    19    1
    25    18    20   ar
    26    20    21   ar
    27    12    13   ar
    28    13    14   ar
    29     4     5   ar
    30     5     6   ar
    31    29    25    1
    32     6     1   ar
    33    14     9   ar
    34    21    15   ar
    35    30    32    1
@<TRIPOS>MOLECULE
*****
 32 35 0 0 0
SMALL
GASTEIGER

@<TRIPOS>ATOM
      1 C           5.1065   -0.5537   34.5900 C.ar    1  UNL1        0.1387
      2 C           5.9217    0.3135   33.6771 C.ar    1  UNL1        0.0375
      3 C           5.9246    0.0530   32.2000 C.ar    1  UNL1        0.0114
      4 C           5.1123   -1.0747   31.6356 C.ar    1  UNL1        0.0422
      5 C           4.2971   -1.9419   32.5485 C.ar    1  UNL1        0.0114
      6 C           4.2942   -1.6814   34.0257 C.ar    1  UNL1        0.0375
      7 C           5.1152   -1.3352   30.1584 C.1     1  UNL1       -0.0583
      8 C           5.1181   -1.5957   28.6812 C.1     1  UNL1       -0.0405
      9 C           5.1211   -1.8561   27.2040 C.ar    1  UNL1        0.1228
     10 C           4.0336   -1.2891   26.3403 C.ar    1  UNL1        0.0276
     11 C           4.0366   -1.5496   24.8631 C.ar    1  UNL1        0.0037
     12 C           5.1270   -2.3771   24.2496 C.ar    1  UNL1        0.0192
     13 C           6.2144   -2.9441   25.1133 C.ar    1  UNL1        0.0995
     14 N           6.2114   -2.6836   26.5905 N.ar    1  UNL1       -0.2356
     15 C           5.1299   -2.6376   22.7723 C.ar    1  UNL1        0.0016
     16 C           6.2206   -3.4645   22.1587 C.ar    1  UNL1        0.0009
     17 C           6.2235   -3.7249   20.6816 C.ar    1  UNL1        0.0114
     18 C           5.1357   -3.1584   19.8180 C.ar    1  UNL1        0.0577
     19 CL          5.1386   -3.4189   18.3407 Cl      1  UNL1       -0.0822
     20 C           4.0450   -2.3315   20.4316 C.ar    1  UNL1        0.0114
     21 C           4.0421   -2.0711   21.9088 C.ar    1  UNL1        0.0009
     22 O           5.1035   -0.2933   36.0673 O.3     1  UNL1       -0.4740
     23 C           4.3780    0.8988   36.6172 C.3     1  UNL1        0.2226
     24 C           4.1171    1.0040   38.0906 C.3     1  UNL1        0.1201
     25 C           2.0903    2.6807   38.5661 C.3     1  UNL1        0.0871
     26 C           0.7186    2.5458   39.1576 C.3     1  UNL1        0.0199
     27 C           0.5198    1.1101   39.5443 C.3     1  UNL1        0.0188
     28 C           1.7687    0.3579   39.1916 C.3     1  UNL1        0.0723
     29 N           2.7394    1.3286   38.5870 N.3     1  UNL1       -0.2686
     30 O           3.9386    4.5023   38.6922 O.3     1  UNL1       -0.3806
     31 C           2.7052    3.9458   38.0450 C.3     1  UNL1        0.1530
     32 H           4.2031    5.3170   38.2370 H       1  UNL1        0.2105
@<TRIPOS>BOND
     1    30    31    1
     2    25    31    1
     3    25    26    1
     4    26    27    1
     5    27    28    1
     6    28    29    1
     7    29    24    1
     8    24    23    1
     9    23    22    1
    10    22     1    1
    11     1     2   ar
    12     2     3   ar
    13     3     4   ar
    14     4     7    1
    15     7     8    3
    16     8     9    1
    17     9    10   ar
    18    10    11   ar
    19    11    12   ar
    20    12    15    1
    21    15    16   ar
    22    16    17   ar
    23    17    18   ar
    24    18    19    1
    25    18    20   ar
    26    20    21   ar
    27    12    13   ar
    28    13    14   ar
    29     4     5   ar
    30     5     6   ar
    31    29    25    1
    32     6     1   ar
    33    14     9   ar
    34    21    15   ar
    35    30    32    1
