@<TRIPOS>MOLECULE
*****
 33 37 0 0 0
SMALL
GASTEIGER

@<TRIPOS>ATOM
      1 N           5.7164   -1.6581   30.3624 N.ar    1  UNL1       -0.2562
      2 C           6.9004   -2.4492   29.8913 C.ar    1  UNL1        0.1851
      3 N           7.0610   -2.7627   28.4332 N.ar    1  UNL1       -0.2244
      4 C           6.0374   -2.2849   27.4463 C.ar    1  UNL1        0.0941
      5 C           5.9295   -2.4392   25.9581 C.ar    1  UNL1        0.0263
      6 C           4.6787   -1.7434   25.5096 C.ar    1  UNL1        0.0312
      7 S           4.0136   -1.1590   26.7204 S.2     1  UNL1       -0.0807
      8 C           4.8534   -1.4938   27.9174 C.ar    1  UNL1        0.1036
      9 C           4.6928   -1.1803   29.3755 C.ar    1  UNL1        0.2733
     10 O           3.5087   -0.3892   29.8466 O.2     1  UNL1       -0.2660
     11 C           4.1804   -1.6485   24.0979 C.ar    1  UNL1        0.0061
     12 C           4.6453   -2.6374   23.0704 C.ar    1  UNL1        0.0014
     13 C           4.1469   -2.5424   21.6588 C.ar    1  UNL1        0.0114
     14 C           3.1837   -1.4586   21.2747 C.ar    1  UNL1        0.0577
     15 CL          2.6854   -1.3637   19.8630 Cl      1  UNL1       -0.0822
     16 C           2.7188   -0.4696   22.3022 C.ar    1  UNL1        0.0114
     17 C           3.2172   -0.5646   23.7138 C.ar    1  UNL1        0.0014
     18 C           6.2493    0.0237   33.9174 C.ar    1  UNL1        0.1738
     19 C           6.4098   -0.2898   32.4593 C.ar    1  UNL1        0.0577
     20 C           5.5558   -1.3446   31.8205 C.ar    1  UNL1        0.0715
     21 C           4.5414   -2.0859   32.6397 C.ar    1  UNL1        0.0210
     22 C           4.3808   -1.7725   34.0979 C.ar    1  UNL1        0.0415
     23 C           5.2348   -0.7177   34.7366 C.ar    1  UNL1        0.1724
     24 C           6.8408    2.5282   34.2744 C.3     1  UNL1        0.2526
     25 O           7.1033    1.0785   34.5562 O.3     1  UNL1       -0.4683
     26 O           5.0742   -0.4042   36.1947 O.3     1  UNL1       -0.4709
     27 C           4.2483    0.7727   36.6223 C.3     1  UNL1        0.2228
     28 C           4.0429    1.0544   38.0812 C.3     1  UNL1        0.1200
     29 N           2.6634    1.3208   38.6067 N.3     1  UNL1       -0.2696
     30 C           1.7218    0.2981   39.1700 C.3     1  UNL1        0.0722
     31 C           0.4598    1.0020   39.5725 C.3     1  UNL1        0.0188
     32 C           0.6215    2.4596   39.2579 C.3     1  UNL1        0.0188
     33 C           1.9834    2.6567   38.6610 C.3     1  UNL1        0.0722
@<TRIPOS>BOND
     1    24    25    1
     2    25    18    1
     3    18    19   ar
     4    19    20   ar
     5    20     1    1
     6     1     2   ar
     7     2     3   ar
     8     3     4   ar
     9     4     5   ar
    10     5     6   ar
    11     6    11    1
    12    11    12   ar
    13    12    13   ar
    14    13    14   ar
    15    14    15    1
    16    14    16   ar
    17    16    17   ar
    18     6     7   ar
    19     7     8   ar
    20     8     9   ar
    21     9    10    2
    22    20    21   ar
    23    21    22   ar
    24    22    23   ar
    25    23    26    1
    26    26    27    1
    27    27    28    1
    28    28    29    1
    29    29    30    1
    30    30    31    1
    31    31    32    1
    32    32    33    1
    33    23    18   ar
    34    33    29    1
    35     9     1   ar
    36     8     4   ar
    37    17    11   ar
@<TRIPOS>MOLECULE
*****
 33 37 0 0 0
SMALL
GASTEIGER

@<TRIPOS>ATOM
      1 N           5.8744   -2.2110   31.7452 N.ar    1  UNL1       -0.2562
      2 C           6.1935   -3.4804   32.4778 C.ar    1  UNL1        0.1851
      3 N           6.6892   -4.6779   31.7226 N.ar    1  UNL1       -0.2244
      4 C           6.8657   -4.6060   30.2348 C.ar    1  UNL1        0.0941
      5 C           7.3334   -5.6163   29.2296 C.ar    1  UNL1        0.0263
      6 C           7.3033   -4.9713   27.8757 C.ar    1  UNL1        0.0312
      7 S           6.8170   -3.5623   28.0441 S.2     1  UNL1       -0.0807
      8 C           6.5465   -3.3365   29.5022 C.ar    1  UNL1        0.1036
      9 C           6.0509   -2.1391   30.2574 C.ar    1  UNL1        0.2733
     10 O           5.7317   -0.8696   29.5248 O.2     1  UNL1       -0.2660
     11 C           7.6913   -5.6211   26.5806 C.ar    1  UNL1        0.0061
     12 C           8.1116   -7.0609   26.5603 C.ar    1  UNL1        0.0014
     13 C           8.4996   -7.7106   25.2652 C.ar    1  UNL1        0.0114
     14 C           8.4675   -6.9207   23.9905 C.ar    1  UNL1        0.0577
     15 CL          8.8555   -7.5705   22.6954 Cl      1  UNL1       -0.0822
     16 C           8.0472   -5.4809   24.0108 C.ar    1  UNL1        0.0114
     17 C           7.6591   -4.8312   25.3059 C.ar    1  UNL1        0.0014
     18 C           3.5242    0.7469   32.9608 C.ar    1  UNL1        0.1738
     19 C           4.0199   -0.4506   32.2057 C.ar    1  UNL1        0.0577
     20 C           5.3787   -1.0134   32.5004 C.ar    1  UNL1        0.0715
     21 C           6.2418   -0.3788   33.5503 C.ar    1  UNL1        0.0210
     22 C           5.7461    0.8187   34.3055 C.ar    1  UNL1        0.0415
     23 C           4.3873    1.3816   34.0107 C.ar    1  UNL1        0.1724
     24 C           1.7526    1.5693   31.2476 C.3     1  UNL1        0.2526
     25 O           2.1653    1.3098   32.6660 O.3     1  UNL1       -0.4683
     26 O           3.8916    2.5791   34.7658 O.3     1  UNL1       -0.4709
     27 C           2.7027    2.4550   35.6719 C.3     1  UNL1        0.2228
     28 C           2.8159    2.8459   37.1157 C.3     1  UNL1        0.1200
     29 N           2.0587    2.0819   38.1611 N.3     1  UNL1       -0.2696
     30 C           0.9415    2.6161   39.0074 C.3     1  UNL1        0.0722
     31 C           0.4781    1.5138   39.9131 C.3     1  UNL1        0.0188
     32 C           1.3090    0.2984   39.6266 C.3     1  UNL1        0.0188
     33 C           2.2859    0.6494   38.5438 C.3     1  UNL1        0.0722
@<TRIPOS>BOND
     1    24    25    1
     2    25    18    1
     3    18    19   ar
     4    19    20   ar
     5    20     1    1
     6     1     2   ar
     7     2     3   ar
     8     3     4   ar
     9     4     5   ar
    10     5     6   ar
    11     6    11    1
    12    11    12   ar
    13    12    13   ar
    14    13    14   ar
    15    14    15    1
    16    14    16   ar
    17    16    17   ar
    18     6     7   ar
    19     7     8   ar
    20     8     9   ar
    21     9    10    2
    22    20    21   ar
    23    21    22   ar
    24    22    23   ar
    25    23    26    1
    26    26    27    1
    27    27    28    1
    28    28    29    1
    29    29    30    1
    30    30    31    1
    31    31    32    1
    32    32    33    1
    33    23    18   ar
    34    33    29    1
    35     9     1   ar
    36     8     4   ar
    37    17    11   ar
@<TRIPOS>MOLECULE
*****
 33 37 0 0 0
SMALL
GASTEIGER

@<TRIPOS>ATOM
      1 N           0.0485    2.8151   18.8387 N.ar    1  UNL1       -0.2562
      2 C          -0.6921    3.4647   17.7077 C.ar    1  UNL1        0.1851
      3 N          -2.0204    4.1156   17.9567 N.ar    1  UNL1       -0.2244
      4 C          -2.6080    4.1169   19.3368 C.ar    1  UNL1        0.0941
      5 C          -3.8889    4.6758   19.8818 C.ar    1  UNL1        0.0263
      6 C          -3.9398    4.3716   21.3497 C.ar    1  UNL1        0.0312
      7 S          -2.6904    3.6247   21.7120 S.2     1  UNL1       -0.0807
      8 C          -1.8673    3.4673   20.4679 C.ar    1  UNL1        0.1036
      9 C          -0.5390    2.8164   20.2189 C.ar    1  UNL1        0.2733
     10 O           0.2017    2.1668   21.3500 O.2     1  UNL1       -0.2660
     11 C          -5.0459    4.7482   22.2903 C.ar    1  UNL1        0.0061
     12 C          -6.3679    4.0436   22.2138 C.ar    1  UNL1        0.0014
     13 C          -7.4740    4.4202   23.1545 C.ar    1  UNL1        0.0114
     14 C          -7.2581    5.5013   24.1716 C.ar    1  UNL1        0.0577
     15 CL         -8.3642    5.8779   25.1122 Cl      1  UNL1       -0.0822
     16 C          -5.9361    6.2059   24.2481 C.ar    1  UNL1        0.0114
     17 C          -4.8300    5.8293   23.3074 C.ar    1  UNL1        0.0014
     18 C           3.9566    2.3402   18.3375 C.ar    1  UNL1        0.1738
     19 C           2.6283    2.9911   18.5864 C.ar    1  UNL1        0.0577
     20 C           1.3769    2.1642   18.5898 C.ar    1  UNL1        0.0715
     21 C           1.4536    0.6865   18.3442 C.ar    1  UNL1        0.0210
     22 C           2.7820    0.0355   18.0952 C.ar    1  UNL1        0.0415
     23 C           4.0334    0.8624   18.0919 C.ar    1  UNL1        0.1724
     24 C           5.7838    3.6511   17.0364 C.3     1  UNL1        0.2526
     25 O           5.2082    3.1672   18.3341 O.3     1  UNL1       -0.4683
     26 O           5.3617    0.2116   17.8429 O.3     1  UNL1       -0.4709
     27 C           6.2835   -0.0748   18.9911 C.3     1  UNL1        0.2228
     28 C           5.8809   -1.0595   20.0485 C.3     1  UNL1        0.1200
     29 N           5.1643   -2.3204   19.6654 N.3     1  UNL1       -0.2696
     30 C           5.6368   -3.3341   18.6660 C.3     1  UNL1        0.0722
     31 C           4.6139   -4.4291   18.5974 C.3     1  UNL1        0.0188
     32 C           3.5093   -4.0921   19.5544 C.3     1  UNL1        0.0188
     33 C           3.8494   -2.7888   20.2145 C.3     1  UNL1        0.0722
@<TRIPOS>BOND
     1    24    25    1
     2    25    18    1
     3    18    19   ar
     4    19    20   ar
     5    20     1    1
     6     1     2   ar
     7     2     3   ar
     8     3     4   ar
     9     4     5   ar
    10     5     6   ar
    11     6    11    1
    12    11    12   ar
    13    12    13   ar
    14    13    14   ar
    15    14    15    1
    16    14    16   ar
    17    16    17   ar
    18     6     7   ar
    19     7     8   ar
    20     8     9   ar
    21     9    10    2
    22    20    21   ar
    23    21    22   ar
    24    22    23   ar
    25    23    26    1
    26    26    27    1
    27    27    28    1
    28    28    29    1
    29    29    30    1
    30    30    31    1
    31    31    32    1
    32    32    33    1
    33    23    18   ar
    34    33    29    1
    35     9     1   ar
    36     8     4   ar
    37    17    11   ar
@<TRIPOS>MOLECULE
*****
 33 37 0 0 0
SMALL
GASTEIGER

@<TRIPOS>ATOM
      1 N           6.2317   -2.9232   31.0213 N.ar    1  UNL1       -0.2562
      2 C           6.7121   -4.3436   31.0566 C.ar    1  UNL1        0.1851
      3 N           6.9694   -5.0805   29.7756 N.ar    1  UNL1       -0.2244
      4 C           6.7461   -4.3968   28.4593 C.ar    1  UNL1        0.0941
      5 C           6.9132   -4.8649   27.0441 C.ar    1  UNL1        0.0263
      6 C           6.5360   -3.7337   26.1341 C.ar    1  UNL1        0.0312
      7 S           6.1358   -2.5664   26.9869 S.2     1  UNL1       -0.0807
      8 C           6.2656   -2.9762   28.4240 C.ar    1  UNL1        0.1036
      9 C           6.0084   -2.2394   29.7050 C.ar    1  UNL1        0.2733
     10 O           5.5279   -0.8189   29.6697 O.2     1  UNL1       -0.2660
     11 C           6.5556   -3.7643   24.6345 C.ar    1  UNL1        0.0061
     12 C           5.4202   -3.1672   23.8573 C.ar    1  UNL1        0.0014
     13 C           5.4398   -3.1979   22.3577 C.ar    1  UNL1        0.0114
     14 C           6.5949   -3.8256   21.6354 C.ar    1  UNL1        0.0577
     15 CL          6.6145   -3.8563   20.1358 Cl      1  UNL1       -0.0822
     16 C           7.7303   -4.4228   22.4126 C.ar    1  UNL1        0.0114
     17 C           7.7107   -4.3921   23.9122 C.ar    1  UNL1        0.0014
     18 C           6.7745   -0.5545   34.1589 C.ar    1  UNL1        0.1738
     19 C           7.0317   -1.2914   32.8780 C.ar    1  UNL1        0.0577
     20 C           5.9744   -2.1863   32.3023 C.ar    1  UNL1        0.0715
     21 C           4.6601   -2.3442   33.0075 C.ar    1  UNL1        0.0210
     22 C           4.4029   -1.6073   34.2885 C.ar    1  UNL1        0.0415
     23 C           5.4601   -0.7125   34.8642 C.ar    1  UNL1        0.1724
     24 C           7.7663    1.8214   34.5071 C.3     1  UNL1        0.2526
     25 O           7.8319    0.3403   34.7347 O.3     1  UNL1       -0.4683
     26 O           5.2029    0.0244   36.1451 O.3     1  UNL1       -0.4709
     27 C           4.0426    0.9695   36.2468 C.3     1  UNL1        0.2228
     28 C           3.8803    1.8297   37.4648 C.3     1  UNL1        0.1200
     29 N           2.6026    1.7855   38.2494 N.3     1  UNL1       -0.2696
     30 C           2.0415    0.5861   38.9538 C.3     1  UNL1        0.0722
     31 C           0.7537    0.9924   39.6069 C.3     1  UNL1        0.0188
     32 C           0.5190    2.4430   39.3061 C.3     1  UNL1        0.0188
     33 C           1.6616    2.9332   38.4671 C.3     1  UNL1        0.0722
@<TRIPOS>BOND
     1    24    25    1
     2    25    18    1
     3    18    19   ar
     4    19    20   ar
     5    20     1    1
     6     1     2   ar
     7     2     3   ar
     8     3     4   ar
     9     4     5   ar
    10     5     6   ar
    11     6    11    1
    12    11    12   ar
    13    12    13   ar
    14    13    14   ar
    15    14    15    1
    16    14    16   ar
    17    16    17   ar
    18     6     7   ar
    19     7     8   ar
    20     8     9   ar
    21     9    10    2
    22    20    21   ar
    23    21    22   ar
    24    22    23   ar
    25    23    26    1
    26    26    27    1
    27    27    28    1
    28    28    29    1
    29    29    30    1
    30    30    31    1
    31    31    32    1
    32    32    33    1
    33    23    18   ar
    34    33    29    1
    35     9     1   ar
    36     8     4   ar
    37    17    11   ar
@<TRIPOS>MOLECULE
*****
 33 37 0 0 0
SMALL
GASTEIGER

@<TRIPOS>ATOM
      1 N          -1.5401    4.8067   19.7605 N.ar    1  UNL1       -0.2562
      2 C          -0.5051    5.5889   19.0077 C.ar    1  UNL1        0.1851
      3 N           0.7449    4.9120   18.5286 N.ar    1  UNL1       -0.2244
      4 C           0.9597    3.4529   18.8024 C.ar    1  UNL1        0.0941
      5 C           2.0839    2.5218   18.4570 C.ar    1  UNL1        0.0263
      6 C           1.7435    1.1642   18.9964 C.ar    1  UNL1        0.0312
      7 S           0.4091    1.2562   19.6751 S.2     1  UNL1       -0.0807
      8 C          -0.0754    2.6708   19.5552 C.ar    1  UNL1        0.1036
      9 C          -1.3253    3.3477   20.0343 C.ar    1  UNL1        0.2733
     10 O          -2.3604    2.5655   20.7872 O.2     1  UNL1       -0.2660
     11 C           2.5892   -0.0690   18.8778 C.ar    1  UNL1        0.0061
     12 C           2.4776   -1.1566   19.9049 C.ar    1  UNL1        0.0014
     13 C           3.3233   -2.3898   19.7863 C.ar    1  UNL1        0.0114
     14 C           4.2806   -2.5355   18.6407 C.ar    1  UNL1        0.0577
     15 CL          5.1262   -3.7687   18.5222 Cl      1  UNL1       -0.0822
     16 C           4.3922   -1.4480   17.6137 C.ar    1  UNL1        0.0114
     17 C           3.5465   -0.2147   17.7323 C.ar    1  UNL1        0.0014
     18 C          -5.2785    6.1338   19.8730 C.ar    1  UNL1        0.1738
     19 C          -4.0286    5.4570   19.3939 C.ar    1  UNL1        0.0577
     20 C          -2.7901    5.4836   20.2397 C.ar    1  UNL1        0.0715
     21 C          -2.8014    6.1870   21.5644 C.ar    1  UNL1        0.0210
     22 C          -4.0514    6.8638   22.0435 C.ar    1  UNL1        0.0415
     23 C          -5.2900    6.8372   21.1978 C.ar    1  UNL1        0.1724
     24 C          -7.3074    4.8393   18.8942 C.3     1  UNL1        0.2526
     25 O          -6.5172    6.1072   19.0272 O.3     1  UNL1       -0.4683
     26 O          -6.5399    7.5141   21.6768 O.3     1  UNL1       -0.4709
     27 C          -7.4811    6.7896   22.5930 C.3     1  UNL1        0.2228
     28 C          -7.4986    5.2899   22.6172 C.3     1  UNL1        0.1200
     29 N          -6.4216    4.5390   23.3427 N.3     1  UNL1       -0.2696
     30 C          -6.0824    4.6700   24.7979 C.3     1  UNL1        0.0722
     31 C          -4.9459    3.7372   25.0948 C.3     1  UNL1        0.0188
     32 C          -4.5827    3.0296   23.8231 C.3     1  UNL1        0.0188
     33 C          -5.4947    3.5252   22.7402 C.3     1  UNL1        0.0722
@<TRIPOS>BOND
     1    24    25    1
     2    25    18    1
     3    18    19   ar
     4    19    20   ar
     5    20     1    1
     6     1     2   ar
     7     2     3   ar
     8     3     4   ar
     9     4     5   ar
    10     5     6   ar
    11     6    11    1
    12    11    12   ar
    13    12    13   ar
    14    13    14   ar
    15    14    15    1
    16    14    16   ar
    17    16    17   ar
    18     6     7   ar
    19     7     8   ar
    20     8     9   ar
    21     9    10    2
    22    20    21   ar
    23    21    22   ar
    24    22    23   ar
    25    23    26    1
    26    26    27    1
    27    27    28    1
    28    28    29    1
    29    29    30    1
    30    30    31    1
    31    31    32    1
    32    32    33    1
    33    23    18   ar
    34    33    29    1
    35     9     1   ar
    36     8     4   ar
    37    17    11   ar
@<TRIPOS>MOLECULE
*****
 33 37 0 0 0
SMALL
GASTEIGER

@<TRIPOS>ATOM
      1 N           2.5450    1.2913   29.6564 N.ar    1  UNL1       -0.2562
      2 C           2.8829    2.7490   29.7590 C.ar    1  UNL1        0.1851
      3 N           2.0057    3.7707   29.0980 N.ar    1  UNL1       -0.2244
      4 C           0.7905    3.3345   28.3345 C.ar    1  UNL1        0.0941
      5 C          -0.2539    4.1064   27.5840 C.ar    1  UNL1        0.0263
      6 C          -1.2374    3.1256   27.0177 C.ar    1  UNL1        0.0312
      7 S          -0.8008    1.7475   27.4181 S.2     1  UNL1       -0.0807
      8 C           0.4526    1.8766   28.2320 C.ar    1  UNL1        0.1036
      9 C           1.3298    0.8551   28.8929 C.ar    1  UNL1        0.2733
     10 O           0.9918   -0.6028   28.7904 O.2     1  UNL1       -0.2660
     11 C          -2.4455    3.4635   26.1952 C.ar    1  UNL1        0.0061
     12 C          -3.6785    4.0009   26.8592 C.ar    1  UNL1        0.0014
     13 C          -4.8865    4.3388   26.0367 C.ar    1  UNL1        0.0114
     14 C          -4.8616    4.1394   24.5503 C.ar    1  UNL1        0.0577
     15 CL         -6.0697    4.4773   23.7278 Cl      1  UNL1       -0.0822
     16 C          -3.6286    3.6020   23.8862 C.ar    1  UNL1        0.0114
     17 C          -2.4206    3.2641   24.7088 C.ar    1  UNL1        0.0014
     18 C           4.0649   -1.1270   32.4117 C.ar    1  UNL1        0.1738
     19 C           3.1878   -0.1054   31.7507 C.ar    1  UNL1        0.0577
     20 C           3.4222    0.2696   30.3174 C.ar    1  UNL1        0.0715
     21 C           4.5336   -0.3769   29.5451 C.ar    1  UNL1        0.0210
     22 C           5.4108   -1.3986   30.2061 C.ar    1  UNL1        0.0415
     23 C           5.1764   -1.7736   31.6394 C.ar    1  UNL1        0.1724
     24 C           4.6618   -0.8813   34.9283 C.3     1  UNL1        0.2526
     25 O           3.8305   -1.5021   33.8451 O.3     1  UNL1       -0.4683
     26 O           6.0536   -2.7952   32.3004 O.3     1  UNL1       -0.4709
     27 C           7.5350   -2.7761   32.0661 C.3     1  UNL1        0.2228
     28 C           8.1889   -3.8930   31.3078 C.3     1  UNL1        0.1200
     29 N           7.6876   -4.2682   29.9447 N.3     1  UNL1       -0.2696
     30 C           8.0163   -3.5665   28.6604 C.3     1  UNL1        0.0722
     31 C           7.3014   -4.2757   27.5486 C.3     1  UNL1        0.0188
     32 C           6.5309   -5.4156   28.1458 C.3     1  UNL1        0.0188
     33 C           6.7696   -5.4110   29.6267 C.3     1  UNL1        0.0722
@<TRIPOS>BOND
     1    24    25    1
     2    25    18    1
     3    18    19   ar
     4    19    20   ar
     5    20     1    1
     6     1     2   ar
     7     2     3   ar
     8     3     4   ar
     9     4     5   ar
    10     5     6   ar
    11     6    11    1
    12    11    12   ar
    13    12    13   ar
    14    13    14   ar
    15    14    15    1
    16    14    16   ar
    17    16    17   ar
    18     6     7   ar
    19     7     8   ar
    20     8     9   ar
    21     9    10    2
    22    20    21   ar
    23    21    22   ar
    24    22    23   ar
    25    23    26    1
    26    26    27    1
    27    27    28    1
    28    28    29    1
    29    29    30    1
    30    30    31    1
    31    31    32    1
    32    32    33    1
    33    23    18   ar
    34    33    29    1
    35     9     1   ar
    36     8     4   ar
    37    17    11   ar
@<TRIPOS>MOLECULE
*****
 33 37 0 0 0
SMALL
GASTEIGER

@<TRIPOS>ATOM
      1 N           6.4723   -3.8116   25.2692 N.ar    1  UNL1       -0.2562
      2 C           6.9142   -5.1211   25.8519 C.ar    1  UNL1        0.1851
      3 N           7.0172   -5.2834   27.3396 N.ar    1  UNL1       -0.2244
      4 C           6.6783   -4.1361   28.2444 C.ar    1  UNL1        0.0941
      5 C           6.6853   -3.9999   29.7382 C.ar    1  UNL1        0.0263
      6 C           6.2478   -2.6061   30.0786 C.ar    1  UNL1        0.0312
      7 S           5.9704   -1.8809   28.7952 S.2     1  UNL1       -0.0807
      8 C           6.2364   -2.8265   27.6616 C.ar    1  UNL1        0.1036
      9 C           6.1335   -2.6642   26.1740 C.ar    1  UNL1        0.2733
     10 O           5.6916   -1.3546   25.5911 O.2     1  UNL1       -0.2660
     11 C           6.1116   -2.0373   31.4599 C.ar    1  UNL1        0.0061
     12 C           7.1828   -1.1443   32.0123 C.ar    1  UNL1        0.0014
     13 C           7.0465   -0.5756   33.3936 C.ar    1  UNL1        0.0114
     14 C           5.8391   -0.8998   34.2225 C.ar    1  UNL1        0.0577
     15 CL          5.7029   -0.3310   35.6038 Cl      1  UNL1       -0.0822
     16 C           4.7679   -1.7927   33.6701 C.ar    1  UNL1        0.0114
     17 C           4.9042   -2.3615   32.2887 C.ar    1  UNL1        0.0014
     18 C           7.5105   -3.4300   21.4578 C.ar    1  UNL1        0.1738
     19 C           7.6134   -3.5923   22.9454 C.ar    1  UNL1        0.0577
     20 C           6.3693   -3.6493   23.7815 C.ar    1  UNL1        0.0715
     21 C           5.0224   -3.5440   23.1300 C.ar    1  UNL1        0.0210
     22 C           4.9194   -3.3817   21.6423 C.ar    1  UNL1        0.0415
     23 C           6.1635   -3.3247   20.8062 C.ar    1  UNL1        0.1724
     24 C           9.2783   -2.0505   20.1455 C.3     1  UNL1        0.2526
     25 O           8.7546   -3.3730   20.6216 O.3     1  UNL1       -0.4683
     26 O           6.0605   -3.1624   19.3186 O.3     1  UNL1       -0.4709
     27 C           4.7392   -2.8327   18.6897 C.3     1  UNL1        0.2228
     28 C           4.3884   -1.4064   18.3856 C.3     1  UNL1        0.1200
     29 N           3.0880   -0.8348   18.8677 N.3     1  UNL1       -0.2696
     30 C           2.3523    0.3207   18.2566 C.3     1  UNL1        0.0722
     31 C           1.1047    0.5512   19.0568 C.3     1  UNL1        0.0188
     32 C           1.0694   -0.4618   20.1624 C.3     1  UNL1        0.0188
     33 C           2.2951   -1.3184   20.0456 C.3     1  UNL1        0.0722
@<TRIPOS>BOND
     1    24    25    1
     2    25    18    1
     3    18    19   ar
     4    19    20   ar
     5    20     1    1
     6     1     2   ar
     7     2     3   ar
     8     3     4   ar
     9     4     5   ar
    10     5     6   ar
    11     6    11    1
    12    11    12   ar
    13    12    13   ar
    14    13    14   ar
    15    14    15    1
    16    14    16   ar
    17    16    17   ar
    18     6     7   ar
    19     7     8   ar
    20     8     9   ar
    21     9    10    2
    22    20    21   ar
    23    21    22   ar
    24    22    23   ar
    25    23    26    1
    26    26    27    1
    27    27    28    1
    28    28    29    1
    29    29    30    1
    30    30    31    1
    31    31    32    1
    32    32    33    1
    33    23    18   ar
    34    33    29    1
    35     9     1   ar
    36     8     4   ar
    37    17    11   ar
@<TRIPOS>MOLECULE
*****
 33 37 0 0 0
SMALL
GASTEIGER

@<TRIPOS>ATOM
      1 N           7.1526   -4.2787   27.3299 N.ar    1  UNL1       -0.2562
      2 C           7.2213   -5.5597   28.1072 C.ar    1  UNL1        0.1851
      3 N           7.0632   -5.5413   29.5988 N.ar    1  UNL1       -0.2244
      4 C           6.8364   -4.2418   30.3129 C.ar    1  UNL1        0.0941
      5 C           6.6464   -3.9140   31.7642 C.ar    1  UNL1        0.0263
      6 C           6.4602   -2.4305   31.8838 C.ar    1  UNL1        0.0312
      7 S           6.5352   -1.8413   30.5064 S.2     1  UNL1       -0.0807
      8 C           6.7677   -2.9608   29.5355 C.ar    1  UNL1        0.1036
      9 C           6.9258   -2.9793   28.0440 C.ar    1  UNL1        0.2733
     10 O           6.8571   -1.6983   27.2665 O.2     1  UNL1       -0.2660
     11 C           6.2380   -1.6695   33.1573 C.ar    1  UNL1        0.0061
     12 C           7.3705   -0.9140   33.7868 C.ar    1  UNL1        0.0014
     13 C           7.1482   -0.1531   35.0603 C.ar    1  UNL1        0.0114
     14 C           5.7935   -0.1477   35.7042 C.ar    1  UNL1        0.0577
     15 CL          5.5713    0.6132   36.9776 Cl      1  UNL1       -0.0822
     16 C           4.6609   -0.9033   35.0746 C.ar    1  UNL1        0.0114
     17 C           4.8832   -1.6642   33.8011 C.ar    1  UNL1        0.0014
     18 C           6.3189   -3.9253   23.4659 C.ar    1  UNL1        0.1738
     19 C           6.1609   -3.9069   24.9574 C.ar    1  UNL1        0.0577
     20 C           7.3106   -4.2971   25.8383 C.ar    1  UNL1        0.0715
     21 C           8.6183   -4.7058   25.2276 C.ar    1  UNL1        0.0210
     22 C           8.7763   -4.7242   23.7360 C.ar    1  UNL1        0.0415
     23 C           7.6266   -4.3339   22.8552 C.ar    1  UNL1        0.1724
     24 C           4.2756   -2.3964   22.9786 C.3     1  UNL1        0.2526
     25 O           5.1691   -3.5350   22.5850 O.3     1  UNL1       -0.4683
     26 O           7.7846   -4.3523   21.3637 O.3     1  UNL1       -0.4709
     27 C           7.9909   -3.0687   20.6154 C.3     1  UNL1        0.2228
     28 C           7.2268   -2.8061   19.3516 C.3     1  UNL1        0.1200
     29 N           5.7377   -2.9851   19.3246 N.3     1  UNL1       -0.2696
     30 C           4.7163   -1.8916   19.4285 C.3     1  UNL1        0.0722
     31 C           3.3560   -2.5197   19.3571 C.3     1  UNL1        0.0188
     32 C           3.5368   -4.0013   19.2091 C.3     1  UNL1        0.0188
     33 C           5.0088   -4.2890   19.1890 C.3     1  UNL1        0.0722
@<TRIPOS>BOND
     1    24    25    1
     2    25    18    1
     3    18    19   ar
     4    19    20   ar
     5    20     1    1
     6     1     2   ar
     7     2     3   ar
     8     3     4   ar
     9     4     5   ar
    10     5     6   ar
    11     6    11    1
    12    11    12   ar
    13    12    13   ar
    14    13    14   ar
    15    14    15    1
    16    14    16   ar
    17    16    17   ar
    18     6     7   ar
    19     7     8   ar
    20     8     9   ar
    21     9    10    2
    22    20    21   ar
    23    21    22   ar
    24    22    23   ar
    25    23    26    1
    26    26    27    1
    27    27    28    1
    28    28    29    1
    29    29    30    1
    30    30    31    1
    31    31    32    1
    32    32    33    1
    33    23    18   ar
    34    33    29    1
    35     9     1   ar
    36     8     4   ar
    37    17    11   ar
@<TRIPOS>MOLECULE
*****
 33 37 0 0 0
SMALL
GASTEIGER

@<TRIPOS>ATOM
      1 N           1.8418    1.2893   30.6583 N.ar    1  UNL1       -0.2562
      2 C           1.7724   -0.0800   30.0501 C.ar    1  UNL1        0.1851
      3 N           1.0990   -0.2787   28.7245 N.ar    1  UNL1       -0.2244
      4 C           0.4950    0.8920   28.0072 C.ar    1  UNL1        0.0941
      5 C          -0.2278    1.0026   26.6976 C.ar    1  UNL1        0.0263
      6 C          -0.6052    2.4403   26.4964 C.ar    1  UNL1        0.0312
      7 S          -0.1156    3.2183   27.6817 S.2     1  UNL1       -0.0807
      8 C           0.5644    2.2614   28.6155 C.ar    1  UNL1        0.1036
      9 C           1.2378    2.4601   29.9410 C.ar    1  UNL1        0.2733
     10 O           1.3072    3.8295   30.5493 O.2     1  UNL1       -0.2660
     11 C          -1.3427    3.0015   25.3169 C.ar    1  UNL1        0.0061
     12 C          -2.7497    3.4957   25.4781 C.ar    1  UNL1        0.0014
     13 C          -3.4872    4.0569   24.2985 C.ar    1  UNL1        0.0114
     14 C          -2.8176    4.1240   22.9579 C.ar    1  UNL1        0.0577
     15 CL         -3.5551    4.6853   21.7785 Cl      1  UNL1       -0.0822
     16 C          -1.4106    3.6299   22.7968 C.ar    1  UNL1        0.0114
     17 C          -0.6731    3.0686   23.9763 C.ar    1  UNL1        0.0014
     18 C           2.4596    2.3751   34.4252 C.ar    1  UNL1        0.1738
     19 C           1.7863    2.1764   33.0996 C.ar    1  UNL1        0.0577
     20 C           2.5152    1.4880   31.9839 C.ar    1  UNL1        0.0715
     21 C           3.9174    0.9985   32.1937 C.ar    1  UNL1        0.0210
     22 C           4.5908    1.1972   33.5193 C.ar    1  UNL1        0.0415
     23 C           3.8618    1.8856   34.6350 C.ar    1  UNL1        0.1724
     24 C           1.6787    4.5617   35.5910 C.3     1  UNL1        0.2526
     25 O           1.7306    3.0635   35.5410 O.3     1  UNL1       -0.4683
     26 O           4.5352    2.0843   35.9606 O.3     1  UNL1       -0.4709
     27 C           4.5356    0.9791   36.9748 C.3     1  UNL1        0.2228
     28 C           4.2057    1.2759   38.4076 C.3     1  UNL1        0.1200
     29 N           2.7755    1.4385   38.8298 N.3     1  UNL1       -0.2696
     30 C           1.8440    0.3339   39.2321 C.3     1  UNL1        0.0722
     31 C           0.5186    0.9470   39.5747 C.3     1  UNL1        0.0188
     32 C           0.6310    2.4305   39.3840 C.3     1  UNL1        0.0188
     33 C           2.0259    2.7343   38.9236 C.3     1  UNL1        0.0722
@<TRIPOS>BOND
     1    24    25    1
     2    25    18    1
     3    18    19   ar
     4    19    20   ar
     5    20     1    1
     6     1     2   ar
     7     2     3   ar
     8     3     4   ar
     9     4     5   ar
    10     5     6   ar
    11     6    11    1
    12    11    12   ar
    13    12    13   ar
    14    13    14   ar
    15    14    15    1
    16    14    16   ar
    17    16    17   ar
    18     6     7   ar
    19     7     8   ar
    20     8     9   ar
    21     9    10    2
    22    20    21   ar
    23    21    22   ar
    24    22    23   ar
    25    23    26    1
    26    26    27    1
    27    27    28    1
    28    28    29    1
    29    29    30    1
    30    30    31    1
    31    31    32    1
    32    32    33    1
    33    23    18   ar
    34    33    29    1
    35     9     1   ar
    36     8     4   ar
    37    17    11   ar
