@<TRIPOS>MOLECULE
*****
 27 31 0 0 0
SMALL
GASTEIGER

@<TRIPOS>ATOM
      1 O           8.9220   -5.4205   20.8463 O.2     1  UNL1       -0.2638
      2 C           7.8041   -4.6597   21.4956 C.2     1  UNL1        0.3160
      3 N           6.8529   -3.8610   20.6546 N.am    1  UNL1       -0.1720
      4 C           5.7350   -3.1001   21.3039 C.ar    1  UNL1        0.0775
      5 C           4.7838   -2.3015   20.4630 C.ar    1  UNL1        0.0167
      6 C           3.6660   -1.5406   21.1123 C.ar    1  UNL1        0.0014
      7 C           3.4994   -1.5785   22.6025 C.ar    1  UNL1        0.0002
      8 C           4.4507   -2.3771   23.4435 C.ar    1  UNL1        0.0051
      9 C           5.5684   -3.1380   22.7942 C.ar    1  UNL1        0.0623
     10 C           6.5198   -3.9367   23.6351 C.2     1  UNL1        0.2419
     11 N           6.6052   -4.1608   25.1158 N.2     1  UNL1       -0.0302
     12 C           7.7758   -5.0603   25.3816 C.2     1  UNL1        0.3765
     13 N           8.4139   -5.3919   24.0652 N.2     1  UNL1       -0.0256
     14 C           7.6376   -4.6975   22.9858 C.2     1  UNL1        0.2907
     15 C           8.2289   -5.5432   26.7276 C.ar    1  UNL1        0.0989
     16 C           8.9175   -4.6009   27.6697 C.ar    1  UNL1        0.0085
     17 C           9.3705   -5.0839   29.0156 C.ar    1  UNL1        0.0003
     18 C           9.1349   -6.5092   29.4193 C.ar    1  UNL1        0.0009
     19 C           8.4462   -7.4515   28.4772 C.ar    1  UNL1        0.0116
     20 C           7.9932   -6.9685   27.1313 C.ar    1  UNL1        0.0651
     21 CL          7.3045   -7.9109   26.1890 Cl      1  UNL1       -0.0820
     22 C           2.7146   -0.7419   20.2713 C.ar    1  UNL1        0.0031
     23 C           1.3556   -0.3934   20.8019 C.ar    1  UNL1        0.0207
     24 C           0.4043    0.4053   19.9611 C.ar    1  UNL1        0.0989
     25 N           0.8120    0.8555   18.5895 N.ar    1  UNL1       -0.2423
     26 C           2.1711    0.5069   18.0588 C.ar    1  UNL1        0.0989
     27 C           3.1224   -0.2918   18.8998 C.ar    1  UNL1        0.0207
@<TRIPOS>BOND
     1     1     2    2
     2     2     3    1
     3     3     4    2
     4     4     5   ar
     5     5     6   ar
     6     6    22    1
     7    22    23   ar
     8    23    24   ar
     9    24    25   ar
    10    25    26   ar
    11    26    27   ar
    12     6     7   ar
    13     7     8   ar
    14     8     9   ar
    15     9    10    2
    16    10    11    1
    17    11    12    2
    18    12    15    1
    19    15    16   ar
    20    16    17   ar
    21    17    18   ar
    22    18    19   ar
    23    19    20   ar
    24    20    21    1
    25    12    13    1
    26    13    14    2
    27    14     2    1
    28     9     4   ar
    29    14    10    1
    30    27    22   ar
    31    20    15   ar
@<TRIPOS>MOLECULE
*****
 27 31 0 0 0
SMALL
GASTEIGER

@<TRIPOS>ATOM
      1 O           0.2014    6.1195   18.1237 O.2     1  UNL1       -0.2638
      2 C           0.2806    4.7069   18.6223 C.2     1  UNL1        0.3160
      3 N           1.4543    3.8474   18.2570 N.am    1  UNL1       -0.1720
      4 C           1.5335    2.4348   18.7556 C.ar    1  UNL1        0.0775
      5 C           2.7072    1.5752   18.3904 C.ar    1  UNL1        0.0167
      6 C           2.7864    0.1628   18.8890 C.ar    1  UNL1        0.0014
      7 C           1.6918   -0.3901   19.7528 C.ar    1  UNL1        0.0002
      8 C           0.5180    0.4694   20.1180 C.ar    1  UNL1        0.0051
      9 C           0.4389    1.8819   19.6194 C.ar    1  UNL1        0.0623
     10 C          -0.7349    2.7416   19.9847 C.2     1  UNL1        0.2419
     11 N          -1.9559    2.4734   20.8136 N.2     1  UNL1       -0.0302
     12 C          -2.7898    3.7203   20.8273 C.2     1  UNL1        0.3765
     13 N          -2.0840    4.7589   20.0069 N.2     1  UNL1       -0.0256
     14 C          -0.8140    4.1540   19.4861 C.2     1  UNL1        0.2907
     15 C          -4.0994    3.8973   21.5369 C.ar    1  UNL1        0.0989
     16 C          -5.3507    4.1511   20.7496 C.ar    1  UNL1        0.0085
     17 C          -6.6603    4.3281   21.4592 C.ar    1  UNL1        0.0003
     18 C          -6.7186    4.2514   22.9561 C.ar    1  UNL1        0.0009
     19 C          -5.4673    3.9977   23.7434 C.ar    1  UNL1        0.0116
     20 C          -4.1577    3.8206   23.0338 C.ar    1  UNL1        0.0651
     21 CL         -2.9064    3.5669   23.8211 Cl      1  UNL1       -0.0820
     22 C           3.9601   -0.6969   18.5238 C.ar    1  UNL1        0.0031
     23 C           5.2044   -0.0704   17.9676 C.ar    1  UNL1        0.0207
     24 C           6.3781   -0.9299   17.6024 C.ar    1  UNL1        0.0989
     25 N           6.3077   -2.4161   17.7934 N.ar    1  UNL1       -0.2423
     26 C           5.0634   -3.0426   18.3495 C.ar    1  UNL1        0.0989
     27 C           3.8896   -2.1830   18.7147 C.ar    1  UNL1        0.0207
@<TRIPOS>BOND
     1     1     2    2
     2     2     3    1
     3     3     4    2
     4     4     5   ar
     5     5     6   ar
     6     6    22    1
     7    22    23   ar
     8    23    24   ar
     9    24    25   ar
    10    25    26   ar
    11    26    27   ar
    12     6     7   ar
    13     7     8   ar
    14     8     9   ar
    15     9    10    2
    16    10    11    1
    17    11    12    2
    18    12    15    1
    19    15    16   ar
    20    16    17   ar
    21    17    18   ar
    22    18    19   ar
    23    19    20   ar
    24    20    21    1
    25    12    13    1
    26    13    14    2
    27    14     2    1
    28     9     4   ar
    29    14    10    1
    30    27    22   ar
    31    20    15   ar
@<TRIPOS>MOLECULE
*****
 27 31 0 0 0
SMALL
GASTEIGER

@<TRIPOS>ATOM
      1 O           8.2904   -6.0332   22.7573 O.2     1  UNL1       -0.2638
      2 C           7.2978   -4.9612   23.0974 C.2     1  UNL1        0.3160
      3 N           6.5051   -4.3003   22.0090 N.am    1  UNL1       -0.1720
      4 C           5.5126   -3.2283   22.3491 C.ar    1  UNL1        0.0775
      5 C           4.7199   -2.5673   21.2607 C.ar    1  UNL1        0.0167
      6 C           3.7274   -1.4954   21.6009 C.ar    1  UNL1        0.0014
      7 C           3.5275   -1.0844   23.0295 C.ar    1  UNL1        0.0002
      8 C           4.3202   -1.7453   24.1180 C.ar    1  UNL1        0.0051
      9 C           5.3127   -2.8172   23.7778 C.ar    1  UNL1        0.0623
     10 C           6.1054   -3.4782   24.8663 C.2     1  UNL1        0.2419
     11 N           6.1242   -3.2842   26.3535 N.2     1  UNL1       -0.0302
     12 C           7.1284   -4.2362   26.9326 C.2     1  UNL1        0.3765
     13 N           7.7302   -5.0187   25.8031 N.2     1  UNL1       -0.0256
     14 C           7.0979   -4.5502   24.5261 C.2     1  UNL1        0.2907
     15 C           7.4706   -4.3805   28.3859 C.ar    1  UNL1        0.0989
     16 C           6.7401   -5.3800   29.2328 C.ar    1  UNL1        0.0085
     17 C           7.0824   -5.5242   30.6861 C.ar    1  UNL1        0.0003
     18 C           8.1552   -4.6689   31.2924 C.ar    1  UNL1        0.0009
     19 C           8.8857   -3.6695   30.4455 C.ar    1  UNL1        0.0116
     20 C           8.5435   -3.5253   28.9922 C.ar    1  UNL1        0.0651
     21 CL          9.2740   -2.5257   28.1452 Cl      1  UNL1       -0.0820
     22 C           2.9347   -0.8344   20.5124 C.ar    1  UNL1        0.0031
     23 C           3.5852   -0.5148   19.1991 C.ar    1  UNL1        0.0207
     24 C           2.7926    0.1461   18.1106 C.ar    1  UNL1        0.0989
     25 N           1.3493    0.4875   18.3354 N.ar    1  UNL1       -0.2423
     26 C           0.6987    0.1680   19.6486 C.ar    1  UNL1        0.0989
     27 C           1.4915   -0.4930   20.7371 C.ar    1  UNL1        0.0207
@<TRIPOS>BOND
     1     1     2    2
     2     2     3    1
     3     3     4    2
     4     4     5   ar
     5     5     6   ar
     6     6    22    1
     7    22    23   ar
     8    23    24   ar
     9    24    25   ar
    10    25    26   ar
    11    26    27   ar
    12     6     7   ar
    13     7     8   ar
    14     8     9   ar
    15     9    10    2
    16    10    11    1
    17    11    12    2
    18    12    15    1
    19    15    16   ar
    20    16    17   ar
    21    17    18   ar
    22    18    19   ar
    23    19    20   ar
    24    20    21    1
    25    12    13    1
    26    13    14    2
    27    14     2    1
    28     9     4   ar
    29    14    10    1
    30    27    22   ar
    31    20    15   ar
@<TRIPOS>MOLECULE
*****
 27 31 0 0 0
SMALL
GASTEIGER

@<TRIPOS>ATOM
      1 O           0.9618    3.4121   25.1214 O.2     1  UNL1       -0.2638
      2 C           0.8742    2.5875   23.8714 C.2     1  UNL1        0.3160
      3 N           1.8795    1.5040   23.6157 N.am    1  UNL1       -0.1720
      4 C           1.7918    0.6794   22.3657 C.ar    1  UNL1        0.0775
      5 C           2.7971   -0.4041   22.1099 C.ar    1  UNL1        0.0167
      6 C           2.7095   -1.2286   20.8600 C.ar    1  UNL1        0.0014
      7 C           1.6165   -0.9696   19.8657 C.ar    1  UNL1        0.0002
      8 C           0.6113    0.1138   20.1215 C.ar    1  UNL1        0.0051
      9 C           0.6989    0.9384   21.3715 C.ar    1  UNL1        0.0623
     10 C          -0.3064    2.0219   21.6273 C.2     1  UNL1        0.2419
     11 N          -1.4856    2.5042   20.8355 N.2     1  UNL1       -0.0302
     12 C          -2.1267    3.6269   21.5962 C.2     1  UNL1        0.3765
     13 N          -1.3438    3.8384   22.8580 N.2     1  UNL1       -0.0256
     14 C          -0.2187    2.8464   22.8772 C.2     1  UNL1        0.2907
     15 C          -3.3382    4.4019   21.1698 C.ar    1  UNL1        0.0989
     16 C          -3.2001    5.5321   20.1933 C.ar    1  UNL1        0.0085
     17 C          -4.4115    6.3071   19.7669 C.ar    1  UNL1        0.0003
     18 C          -5.7610    5.9520   20.3172 C.ar    1  UNL1        0.0009
     19 C          -5.8991    4.8218   21.2937 C.ar    1  UNL1        0.0116
     20 C          -4.6877    4.0468   21.7200 C.ar    1  UNL1        0.0651
     21 CL         -4.8257    2.9166   22.6966 Cl      1  UNL1       -0.0820
     22 C           3.7148   -2.3121   20.6041 C.ar    1  UNL1        0.0031
     23 C           4.8601   -2.5116   21.5520 C.ar    1  UNL1        0.0207
     24 C           5.8653   -3.5951   21.2963 C.ar    1  UNL1        0.0989
     25 N           5.7253   -4.4792   20.0926 N.ar    1  UNL1       -0.2423
     26 C           4.5800   -4.2797   19.1447 C.ar    1  UNL1        0.0989
     27 C           3.5747   -3.1962   19.4005 C.ar    1  UNL1        0.0207
@<TRIPOS>BOND
     1     1     2    2
     2     2     3    1
     3     3     4    2
     4     4     5   ar
     5     5     6   ar
     6     6    22    1
     7    22    23   ar
     8    23    24   ar
     9    24    25   ar
    10    25    26   ar
    11    26    27   ar
    12     6     7   ar
    13     7     8   ar
    14     8     9   ar
    15     9    10    2
    16    10    11    1
    17    11    12    2
    18    12    15    1
    19    15    16   ar
    20    16    17   ar
    21    17    18   ar
    22    18    19   ar
    23    19    20   ar
    24    20    21    1
    25    12    13    1
    26    13    14    2
    27    14     2    1
    28     9     4   ar
    29    14    10    1
    30    27    22   ar
    31    20    15   ar
@<TRIPOS>MOLECULE
*****
 27 31 0 0 0
SMALL
GASTEIGER

@<TRIPOS>ATOM
      1 O          -5.2667  -14.6087   25.7670 O.2     1  UNL1       -0.2638
      2 C          -6.0329  -15.5615   24.8979 C.2     1  UNL1        0.3160
      3 N          -7.5002  -15.7717   25.1274 N.am    1  UNL1       -0.1720
      4 C          -8.2664  -16.7245   24.2583 C.ar    1  UNL1        0.0775
      5 C          -9.7337  -16.9346   24.4877 C.ar    1  UNL1        0.0167
      6 C         -10.4998  -17.8874   23.6186 C.ar    1  UNL1        0.0014
      7 C          -9.7985  -18.6300   22.5201 C.ar    1  UNL1        0.0002
      8 C          -8.3311  -18.4199   22.2907 C.ar    1  UNL1        0.0051
      9 C          -7.5651  -17.4671   23.1598 C.ar    1  UNL1        0.0623
     10 C          -6.0976  -17.2569   22.9304 C.2     1  UNL1        0.2419
     11 N          -5.1437  -17.8437   21.9326 N.2     1  UNL1       -0.0302
     12 C          -3.7879  -17.2536   22.1851 C.2     1  UNL1        0.3765
     13 N          -3.9041  -16.3021   23.3388 N.2     1  UNL1       -0.0256
     14 C          -5.3316  -16.3042   23.7994 C.2     1  UNL1        0.2907
     15 C          -2.5358  -17.5611   21.4184 C.ar    1  UNL1        0.0989
     16 C          -1.5733  -16.4610   21.0817 C.ar    1  UNL1        0.0085
     17 C          -0.3213  -16.7685   20.3151 C.ar    1  UNL1        0.0003
     18 C          -0.0318  -18.1760   19.8850 C.ar    1  UNL1        0.0009
     19 C          -0.9943  -19.2761   20.2216 C.ar    1  UNL1        0.0116
     20 C          -2.2463  -18.9686   20.9883 C.ar    1  UNL1        0.0651
     21 CL         -3.2089  -20.0687   21.3250 Cl      1  UNL1       -0.0820
     22 C         -11.9672  -18.0976   23.8480 C.ar    1  UNL1        0.0031
     23 C         -12.4654  -18.4869   25.2082 C.ar    1  UNL1        0.0207
     24 C         -13.9328  -18.6971   25.4377 C.ar    1  UNL1        0.0989
     25 N         -14.9020  -18.5179   24.3069 N.ar    1  UNL1       -0.2423
     26 C         -14.4037  -18.1285   22.9467 C.ar    1  UNL1        0.0989
     27 C         -12.9363  -17.9184   22.7173 C.ar    1  UNL1        0.0207
@<TRIPOS>BOND
     1     1     2    2
     2     2     3    1
     3     3     4    2
     4     4     5   ar
     5     5     6   ar
     6     6    22    1
     7    22    23   ar
     8    23    24   ar
     9    24    25   ar
    10    25    26   ar
    11    26    27   ar
    12     6     7   ar
    13     7     8   ar
    14     8     9   ar
    15     9    10    2
    16    10    11    1
    17    11    12    2
    18    12    15    1
    19    15    16   ar
    20    16    17   ar
    21    17    18   ar
    22    18    19   ar
    23    19    20   ar
    24    20    21    1
    25    12    13    1
    26    13    14    2
    27    14     2    1
    28     9     4   ar
    29    14    10    1
    30    27    22   ar
    31    20    15   ar
@<TRIPOS>MOLECULE
*****
 27 31 0 0 0
SMALL
GASTEIGER

@<TRIPOS>ATOM
      1 O           6.8797   -2.4009   17.4816 O.2     1  UNL1       -0.2638
      2 C           6.4046   -2.4007   18.9045 C.2     1  UNL1        0.3160
      3 N           7.0124   -3.3456   19.8982 N.am    1  UNL1       -0.1720
      4 C           6.5373   -3.3454   21.3211 C.ar    1  UNL1        0.0775
      5 C           7.1451   -4.2904   22.3148 C.ar    1  UNL1        0.0167
      6 C           6.6701   -4.2901   23.7376 C.ar    1  UNL1        0.0014
      7 C           5.5872   -3.3449   24.1666 C.ar    1  UNL1        0.0002
      8 C           4.9794   -2.4000   23.1728 C.ar    1  UNL1        0.0051
      9 C           5.4545   -2.4002   21.7500 C.ar    1  UNL1        0.0623
     10 C           4.8467   -1.4552   20.7562 C.2     1  UNL1        0.2419
     11 N           3.7716   -0.4173   20.8858 N.2     1  UNL1       -0.0302
     12 C           3.5822    0.2239   19.5430 C.2     1  UNL1        0.3765
     13 N           4.5402   -0.4177   18.5837 N.2     1  UNL1       -0.0256
     14 C           5.3218   -1.4555   19.3334 C.2     1  UNL1        0.2907
     15 C           2.6060    1.3152   19.2170 C.ar    1  UNL1        0.0989
     16 C           3.0914    2.6003   18.6146 C.ar    1  UNL1        0.0085
     17 C           2.1153    3.6916   18.2886 C.ar    1  UNL1        0.0003
     18 C           0.6538    3.4977   18.5649 C.ar    1  UNL1        0.0009
     19 C           0.1684    2.2126   19.1672 C.ar    1  UNL1        0.0116
     20 C           1.1445    1.1214   19.4933 C.ar    1  UNL1        0.0651
     21 CL          0.6591   -0.1638   20.0956 Cl      1  UNL1       -0.0820
     22 C           7.2779   -5.2351   24.7314 C.ar    1  UNL1        0.0031
     23 C           7.1199   -4.9813   26.2013 C.ar    1  UNL1        0.0207
     24 C           7.7277   -5.9262   27.1952 C.ar    1  UNL1        0.0989
     25 N           8.4934   -7.1250   26.7191 N.ar    1  UNL1       -0.2423
     26 C           8.6513   -7.3788   25.2492 C.ar    1  UNL1        0.0989
     27 C           8.0435   -6.4339   24.2554 C.ar    1  UNL1        0.0207
@<TRIPOS>BOND
     1     1     2    2
     2     2     3    1
     3     3     4    2
     4     4     5   ar
     5     5     6   ar
     6     6    22    1
     7    22    23   ar
     8    23    24   ar
     9    24    25   ar
    10    25    26   ar
    11    26    27   ar
    12     6     7   ar
    13     7     8   ar
    14     8     9   ar
    15     9    10    2
    16    10    11    1
    17    11    12    2
    18    12    15    1
    19    15    16   ar
    20    16    17   ar
    21    17    18   ar
    22    18    19   ar
    23    19    20   ar
    24    20    21    1
    25    12    13    1
    26    13    14    2
    27    14     2    1
    28     9     4   ar
    29    14    10    1
    30    27    22   ar
    31    20    15   ar
@<TRIPOS>MOLECULE
*****
 27 31 0 0 0
SMALL
GASTEIGER

@<TRIPOS>ATOM
      1 O           8.4182   -6.3772   21.9251 O.2     1  UNL1       -0.2638
      2 C           7.7665   -5.3792   22.8358 C.2     1  UNL1        0.3160
      3 N           7.8235   -5.5712   24.3224 N.am    1  UNL1       -0.1720
      4 C           7.1718   -4.5732   25.2331 C.ar    1  UNL1        0.0775
      5 C           7.2288   -4.7651   26.7196 C.ar    1  UNL1        0.0167
      6 C           6.5771   -3.7672   27.6302 C.ar    1  UNL1        0.0014
      7 C           5.8683   -2.5772   27.0543 C.ar    1  UNL1        0.0002
      8 C           5.8113   -2.3853   25.5678 C.ar    1  UNL1        0.0051
      9 C           6.4630   -3.3832   24.6571 C.ar    1  UNL1        0.0623
     10 C           6.4060   -3.1913   23.1705 C.2     1  UNL1        0.2419
     11 N           5.7841   -2.1241   22.3195 N.2     1  UNL1       -0.0302
     12 C           6.0514   -2.4625   20.8828 C.2     1  UNL1        0.3765
     13 N           6.8386   -3.7388   20.8460 N.2     1  UNL1       -0.0256
     14 C           7.0577   -4.1892   22.2599 C.2     1  UNL1        0.2907
     15 C           5.6093   -1.6646   19.6920 C.ar    1  UNL1        0.0989
     16 C           6.3751   -0.4418   19.2822 C.ar    1  UNL1        0.0085
     17 C           5.9329    0.3561   18.0915 C.ar    1  UNL1        0.0003
     18 C           4.7249   -0.0690   17.3105 C.ar    1  UNL1        0.0009
     19 C           3.9590   -1.2919   17.7203 C.ar    1  UNL1        0.0116
     20 C           4.4012   -2.0897   18.9111 C.ar    1  UNL1        0.0651
     21 CL          3.6353   -3.3126   19.3209 Cl      1  UNL1       -0.0820
     22 C           6.6342   -3.9591   29.1168 C.ar    1  UNL1        0.0031
     23 C           6.4458   -2.7859   30.0323 C.ar    1  UNL1        0.0207
     24 C           6.5028   -2.9778   31.5188 C.ar    1  UNL1        0.0989
     25 N           6.7482   -4.3429   32.0900 N.ar    1  UNL1       -0.2423
     26 C           6.9366   -5.5162   31.1746 C.ar    1  UNL1        0.0989
     27 C           6.8795   -5.3242   29.6879 C.ar    1  UNL1        0.0207
@<TRIPOS>BOND
     1     1     2    2
     2     2     3    1
     3     3     4    2
     4     4     5   ar
     5     5     6   ar
     6     6    22    1
     7    22    23   ar
     8    23    24   ar
     9    24    25   ar
    10    25    26   ar
    11    26    27   ar
    12     6     7   ar
    13     7     8   ar
    14     8     9   ar
    15     9    10    2
    16    10    11    1
    17    11    12    2
    18    12    15    1
    19    15    16   ar
    20    16    17   ar
    21    17    18   ar
    22    18    19   ar
    23    19    20   ar
    24    20    21    1
    25    12    13    1
    26    13    14    2
    27    14     2    1
    28     9     4   ar
    29    14    10    1
    30    27    22   ar
    31    20    15   ar
@<TRIPOS>MOLECULE
*****
 27 31 0 0 0
SMALL
GASTEIGER

@<TRIPOS>ATOM
      1 O           1.5362    4.5423   24.0121 O.2     1  UNL1       -0.2638
      2 C           1.3084    3.6334   22.8407 C.2     1  UNL1        0.3160
      3 N           2.4601    2.8867   22.2358 N.am    1  UNL1       -0.1720
      4 C           2.2324    1.9778   21.0644 C.ar    1  UNL1        0.0775
      5 C           3.3841    1.2311   20.4595 C.ar    1  UNL1        0.0167
      6 C           3.1563    0.3222   19.2882 C.ar    1  UNL1        0.0014
      7 C           1.7769    0.1600   18.7218 C.ar    1  UNL1        0.0002
      8 C           0.6252    0.9067   19.3267 C.ar    1  UNL1        0.0051
      9 C           0.8529    1.8156   20.4980 C.ar    1  UNL1        0.0623
     10 C          -0.2988    2.5623   21.1030 C.2     1  UNL1        0.2419
     11 N          -1.7590    2.6024   20.7622 N.2     1  UNL1       -0.0302
     12 C          -2.4337    3.5361   21.7229 C.2     1  UNL1        0.3765
     13 N          -1.3905    4.0730   22.6575 N.2     1  UNL1       -0.0256
     14 C          -0.0710    3.4712   22.2743 C.2     1  UNL1        0.2907
     15 C          -3.8951    3.8736   21.7452 C.ar    1  UNL1        0.0989
     16 C          -4.7459    3.4464   22.9043 C.ar    1  UNL1        0.0085
     17 C          -6.2073    3.7839   22.9265 C.ar    1  UNL1        0.0003
     18 C          -6.8178    4.5485   21.7896 C.ar    1  UNL1        0.0009
     19 C          -5.9670    4.9756   20.6304 C.ar    1  UNL1        0.0116
     20 C          -4.5057    4.6382   20.6082 C.ar    1  UNL1        0.0651
     21 CL         -3.6548    5.0653   19.4490 Cl      1  UNL1       -0.0820
     22 C           4.3081   -0.4246   18.6832 C.ar    1  UNL1        0.0031
     23 C           4.3542   -1.9219   18.7596 C.ar    1  UNL1        0.0207
     24 C           5.5058   -2.6687   18.1546 C.ar    1  UNL1        0.0989
     25 N           6.6115   -1.9181   17.4732 N.ar    1  UNL1       -0.2423
     26 C           6.5654   -0.4207   17.3968 C.ar    1  UNL1        0.0989
     27 C           5.4136    0.3260   18.0018 C.ar    1  UNL1        0.0207
@<TRIPOS>BOND
     1     1     2    2
     2     2     3    1
     3     3     4    2
     4     4     5   ar
     5     5     6   ar
     6     6    22    1
     7    22    23   ar
     8    23    24   ar
     9    24    25   ar
    10    25    26   ar
    11    26    27   ar
    12     6     7   ar
    13     7     8   ar
    14     8     9   ar
    15     9    10    2
    16    10    11    1
    17    11    12    2
    18    12    15    1
    19    15    16   ar
    20    16    17   ar
    21    17    18   ar
    22    18    19   ar
    23    19    20   ar
    24    20    21    1
    25    12    13    1
    26    13    14    2
    27    14     2    1
    28     9     4   ar
    29    14    10    1
    30    27    22   ar
    31    20    15   ar
@<TRIPOS>MOLECULE
*****
 27 31 0 0 0
SMALL
GASTEIGER

@<TRIPOS>ATOM
      1 O           2.8512    0.4991   27.8283 O.2     1  UNL1       -0.2638
      2 C           2.3793    0.5938   26.4076 C.2     1  UNL1        0.3160
      3 N           3.0911   -0.1672   25.3286 N.am    1  UNL1       -0.1720
      4 C           2.6193   -0.0724   23.9078 C.ar    1  UNL1        0.0775
      5 C           3.3311   -0.8334   22.8288 C.ar    1  UNL1        0.0167
      6 C           2.8592   -0.7387   21.4082 C.ar    1  UNL1        0.0014
      7 C           1.6756    0.1171   21.0665 C.ar    1  UNL1        0.0002
      8 C           0.9639    0.8781   22.1455 C.ar    1  UNL1        0.0051
      9 C           1.4357    0.7833   23.5661 C.ar    1  UNL1        0.0623
     10 C           0.7239    1.5443   24.6452 C.2     1  UNL1        0.2419
     11 N          -0.4626    2.4613   24.6110 N.2     1  UNL1       -0.0302
     12 C          -0.7241    2.9333   26.0106 C.2     1  UNL1        0.3765
     13 N           0.3008    2.3080   26.9097 N.2     1  UNL1       -0.0256
     14 C           1.1957    1.4496   26.0659 C.2     1  UNL1        0.2907
     15 C          -1.8185    3.8668   26.4362 C.ar    1  UNL1        0.0989
     16 C          -3.2447    3.4022   26.4314 C.ar    1  UNL1        0.0085
     17 C          -4.3389    4.3356   26.8571 C.ar    1  UNL1        0.0003
     18 C          -4.0070    5.7337   27.2875 C.ar    1  UNL1        0.0009
     19 C          -2.5808    6.1983   27.2923 C.ar    1  UNL1        0.0116
     20 C          -1.4865    5.2648   26.8667 C.ar    1  UNL1        0.0651
     21 CL         -0.0602    5.7294   26.8714 Cl      1  UNL1       -0.0820
     22 C           3.5710   -1.4997   20.3291 C.ar    1  UNL1        0.0031
     23 C           4.1397   -2.8571   20.6190 C.ar    1  UNL1        0.0207
     24 C           4.8514   -3.6181   19.5400 C.ar    1  UNL1        0.0989
     25 N           4.9946   -3.0217   18.1711 N.ar    1  UNL1       -0.2423
     26 C           4.4259   -1.6643   17.8812 C.ar    1  UNL1        0.0989
     27 C           3.7141   -0.9033   18.9603 C.ar    1  UNL1        0.0207
@<TRIPOS>BOND
     1     1     2    2
     2     2     3    1
     3     3     4    2
     4     4     5   ar
     5     5     6   ar
     6     6    22    1
     7    22    23   ar
     8    23    24   ar
     9    24    25   ar
    10    25    26   ar
    11    26    27   ar
    12     6     7   ar
    13     7     8   ar
    14     8     9   ar
    15     9    10    2
    16    10    11    1
    17    11    12    2
    18    12    15    1
    19    15    16   ar
    20    16    17   ar
    21    17    18   ar
    22    18    19   ar
    23    19    20   ar
    24    20    21    1
    25    12    13    1
    26    13    14    2
    27    14     2    1
    28     9     4   ar
    29    14    10    1
    30    27    22   ar
    31    20    15   ar
