@<TRIPOS>MOLECULE
*****
 32 35 0 0 0
SMALL
GASTEIGER

@<TRIPOS>ATOM
      1 N          -2.7415    2.4610   20.4821 N.am    1  UNL1       -0.2681
      2 C          -1.3990    3.0555   20.7892 C.2     1  UNL1        0.3077
      3 O          -1.2918    4.4953   21.1962 O.2     1  UNL1       -0.2522
      4 N          -0.1638    2.2103   20.6895 N.am    1  UNL1       -0.2640
      5 C          -0.1150    0.7633   20.2972 C.3     1  UNL1        0.0950
      6 C           1.3184    0.3225   20.3298 C.3     1  UNL1        0.0219
      7 C           2.2345   -0.8443   20.1075 C.3     1  UNL1        0.0061
      8 C           3.6377   -0.3910   20.3824 C.3     1  UNL1        0.0224
      9 C           3.5888    1.0561   20.7746 C.3     1  UNL1        0.0061
     10 C           2.1554    1.4970   20.7421 C.3     1  UNL1        0.0219
     11 C           1.2393    2.6637   20.9644 C.3     1  UNL1        0.0950
     12 H          -2.8118    1.5160   20.2149 H       1  UNL1        0.1564
     13 C          -4.4713    4.0562   19.3807 C.ar    1  UNL1        0.0297
     14 C          -5.7066    4.9013   19.4805 C.ar    1  UNL1        0.0320
     15 C          -6.4471    4.9964   20.7815 C.ar    1  UNL1        0.1403
     16 F          -7.6824    5.8415   20.8813 F       1  UNL1       -0.2042
     17 C          -5.9525    4.2464   21.9826 C.ar    1  UNL1        0.0309
     18 C          -4.7173    3.4012   21.8828 C.ar    1  UNL1        0.0171
     19 C          -3.9767    3.3062   20.5818 C.ar    1  UNL1        0.0528
     20 O          -4.3394    3.2264   16.9222 O.co2   1  UNL1       -0.5446
     21 C          -3.7308    3.9611   18.0797 C.2     1  UNL1        0.0741
     22 O          -2.3816    4.6007   17.9363 O.co2   1  UNL1       -0.5446
     23 C           4.8728   -1.2361   20.2826 C.ar    1  UNL1       -0.0186
     24 C           5.5324   -1.7502   21.5278 C.ar    1  UNL1       -0.0043
     25 C           6.7677   -2.5954   21.4281 C.ar    1  UNL1       -0.0003
     26 C           7.3432   -2.9265   20.0831 C.ar    1  UNL1       -0.0001
     27 C           6.6836   -2.4124   18.8378 C.ar    1  UNL1        0.0035
     28 C           5.4485   -1.5672   18.9376 C.ar    1  UNL1        0.0675
     29 C           4.7889   -1.0531   17.6924 C.3     1  UNL1        0.4183
     30 F           4.1292   -0.5390   16.4472 F       1  UNL1       -0.1659
     31 F           3.9271   -2.2799   17.6424 F       1  UNL1       -0.1659
     32 F           5.6506    0.1736   17.7424 F       1  UNL1       -0.1659
@<TRIPOS>UNITY_ATOM_ATTR
20 1
charge -1
@<TRIPOS>BOND
     1    20    21   ar
     2    21    22   ar
     3    21    13    1
     4    13    14   ar
     5    14    15   ar
     6    15    16    1
     7    15    17   ar
     8    17    18   ar
     9    18    19   ar
    10    19     1    1
    11     1     2   am
    12     2     3    2
    13     2     4   am
    14     4     5    1
    15     6     5    1
    16     6     7    1
    17     7     8    1
    18     8    23    1
    19    23    24   ar
    20    24    25   ar
    21    25    26   ar
    22    26    27   ar
    23    27    28   ar
    24    28    29    1
    25    29    30    1
    26    29    31    1
    27    29    32    1
    28     8     9    1
    29    10     9    1
    30    10    11    1
    31    19    13   ar
    32    11     4    1
    33    10     6    1
    34    28    23   ar
    35     1    12    1
@<TRIPOS>MOLECULE
*****
 32 35 0 0 0
SMALL
GASTEIGER

@<TRIPOS>ATOM
      1 N           2.0873    1.3598   27.8710 N.am    1  UNL1       -0.2681
      2 C           2.9985    0.1763   27.7329 C.2     1  UNL1        0.3077
      3 O           3.6008   -0.4530   28.9540 O.2     1  UNL1       -0.2522
      4 N           3.3073   -0.3778   26.3736 N.am    1  UNL1       -0.2640
      5 C           2.7819    0.1433   25.0689 C.3     1  UNL1        0.0950
      6 C           3.3457   -0.7072   23.9694 C.3     1  UNL1        0.0219
      7 C           3.3694   -0.9108   22.4834 C.3     1  UNL1        0.0061
      8 C           4.2579   -2.0833   22.1903 C.3     1  UNL1        0.0224
      9 C           4.7833   -2.6043   23.4951 C.3     1  UNL1        0.0061
     10 C           4.2196   -1.7538   24.5946 C.3     1  UNL1        0.0219
     11 C           4.1958   -1.5503   26.0805 C.3     1  UNL1        0.0950
     12 H           1.6920    1.7729   27.0696 H       1  UNL1        0.1564
     13 C           0.4408    1.6572   29.8587 C.ar    1  UNL1        0.0297
     14 C           0.1320    2.2115   31.2179 C.ar    1  UNL1        0.0320
     15 C           1.1608    3.0224   31.9486 C.ar    1  UNL1        0.1403
     16 F           0.8520    3.5766   33.3079 F       1  UNL1       -0.2042
     17 C           2.4983    3.2792   31.3203 C.ar    1  UNL1        0.0309
     18 C           2.8072    2.7250   29.9610 C.ar    1  UNL1        0.0171
     19 C           1.7784    1.9140   29.2303 C.ar    1  UNL1        0.0528
     20 O          -0.8833    1.1334   27.6856 O.co2   1  UNL1       -0.5446
     21 C          -0.5879    0.8463   29.1279 C.2     1  UNL1        0.0741
     22 O          -1.3213   -0.2517   29.8395 O.co2   1  UNL1       -0.5446
     23 C           4.5668   -2.6374   20.8311 C.ar    1  UNL1       -0.0186
     24 C           3.9743   -3.9471   20.4027 C.ar    1  UNL1       -0.0043
     25 C           4.2831   -4.5013   19.0435 C.ar    1  UNL1       -0.0003
     26 C           5.1845   -3.7457   18.1126 C.ar    1  UNL1       -0.0001
     27 C           5.7770   -2.4359   18.5410 C.ar    1  UNL1        0.0035
     28 C           5.4682   -1.8818   19.9001 C.ar    1  UNL1        0.0675
     29 C           6.0607   -0.5720   20.3285 C.3     1  UNL1        0.4183
     30 F           6.6532    0.7377   20.7569 F       1  UNL1       -0.1659
     31 F           4.9203    0.1558   19.6806 F       1  UNL1       -0.1659
     32 F           7.2011   -1.2998   20.9764 F       1  UNL1       -0.1659
@<TRIPOS>UNITY_ATOM_ATTR
20 1
charge -1
@<TRIPOS>BOND
     1    20    21   ar
     2    21    22   ar
     3    21    13    1
     4    13    14   ar
     5    14    15   ar
     6    15    16    1
     7    15    17   ar
     8    17    18   ar
     9    18    19   ar
    10    19     1    1
    11     1     2   am
    12     2     3    2
    13     2     4   am
    14     4     5    1
    15     6     5    1
    16     6     7    1
    17     7     8    1
    18     8    23    1
    19    23    24   ar
    20    24    25   ar
    21    25    26   ar
    22    26    27   ar
    23    27    28   ar
    24    28    29    1
    25    29    30    1
    26    29    31    1
    27    29    32    1
    28     8     9    1
    29    10     9    1
    30    10    11    1
    31    19    13   ar
    32    11     4    1
    33    10     6    1
    34    28    23   ar
    35     1    12    1
@<TRIPOS>MOLECULE
*****
 32 35 0 0 0
SMALL
GASTEIGER

@<TRIPOS>ATOM
      1 N          -2.8842    2.5186   20.4826 N.am    1  UNL1       -0.2681
      2 C          -1.5642    3.1698   20.1934 C.2     1  UNL1        0.3077
      3 O          -1.5014    4.6393   19.8990 O.2     1  UNL1       -0.2522
      4 N          -0.3071    2.3515   20.1987 N.am    1  UNL1       -0.2640
      5 C          -0.2140    0.8800   20.4743 C.3     1  UNL1        0.0950
      6 C           1.2283    0.4802   20.3752 C.3     1  UNL1        0.0219
      7 C           2.1772   -0.6764   20.4842 C.3     1  UNL1        0.0061
      8 C           3.5621   -0.1668   20.2148 C.3     1  UNL1        0.0224
      9 C           3.4690    1.3048   19.9391 C.3     1  UNL1        0.0061
     10 C           2.0266    1.7046   20.0383 C.3     1  UNL1        0.0219
     11 C           1.0777    2.8611   19.9292 C.3     1  UNL1        0.0950
     12 H          -2.9254    1.5541   20.6758 H       1  UNL1        0.1564
     13 C          -4.6978    3.8651   21.7662 C.ar    1  UNL1        0.0297
     14 C          -5.9550    4.6832   21.7609 C.ar    1  UNL1        0.0320
     15 C          -6.6557    4.9731   20.4667 C.ar    1  UNL1        0.1403
     16 F          -7.9129    5.7913   20.4614 F       1  UNL1       -0.2042
     17 C          -6.0994    4.4448   19.1778 C.ar    1  UNL1        0.0309
     18 C          -4.8421    3.6267   19.1832 C.ar    1  UNL1        0.0171
     19 C          -4.1414    3.3368   20.4773 C.ar    1  UNL1        0.0528
     20 O          -4.7140    2.8387   24.1529 O.co2   1  UNL1       -0.5446
     21 C          -3.9971    3.5752   23.0604 C.2     1  UNL1        0.0741
     22 O          -2.5794    4.0218   23.2621 O.co2   1  UNL1       -0.5446
     23 C           4.8192   -0.9850   20.2200 C.ar    1  UNL1       -0.0186
     24 C           5.5410   -1.2427   21.5094 C.ar    1  UNL1       -0.0043
     25 C           6.7982   -2.0610   21.5147 C.ar    1  UNL1       -0.0003
     26 C           7.3335   -2.6215   20.2305 C.ar    1  UNL1       -0.0001
     27 C           6.6117   -2.3638   18.9410 C.ar    1  UNL1        0.0035
     28 C           5.3546   -1.5456   18.9358 C.ar    1  UNL1        0.0675
     29 C           4.6328   -1.2879   17.6464 C.3     1  UNL1        0.4183
     30 F           3.9110   -1.0302   16.3570 F       1  UNL1       -0.1659
     31 F           5.5340   -0.1198   17.3754 F       1  UNL1       -0.1659
     32 F           3.7316   -2.4560   17.9174 F       1  UNL1       -0.1659
@<TRIPOS>UNITY_ATOM_ATTR
20 1
charge -1
@<TRIPOS>BOND
     1    20    21   ar
     2    21    22   ar
     3    21    13    1
     4    13    14   ar
     5    14    15   ar
     6    15    16    1
     7    15    17   ar
     8    17    18   ar
     9    18    19   ar
    10    19     1    1
    11     1     2   am
    12     2     3    2
    13     2     4   am
    14     4     5    1
    15     6     5    1
    16     6     7    1
    17     7     8    1
    18     8    23    1
    19    23    24   ar
    20    24    25   ar
    21    25    26   ar
    22    26    27   ar
    23    27    28   ar
    24    28    29    1
    25    29    30    1
    26    29    31    1
    27    29    32    1
    28     8     9    1
    29    10     9    1
    30    10    11    1
    31    19    13   ar
    32    11     4    1
    33    10     6    1
    34    28    23   ar
    35     1    12    1
@<TRIPOS>MOLECULE
*****
 32 35 0 0 0
SMALL
GASTEIGER

@<TRIPOS>ATOM
      1 N          -2.9614    2.7037   20.8214 N.am    1  UNL1       -0.2681
      2 C          -1.6254    3.1646   21.3241 C.2     1  UNL1        0.3077
      3 O          -1.5369    4.3471   22.2426 O.2     1  UNL1       -0.2522
      4 N          -0.3779    2.4429   20.9082 N.am    1  UNL1       -0.2640
      5 C          -0.3101    1.2511   20.0000 C.3     1  UNL1        0.0950
      6 C           1.1305    0.8580   19.8581 C.3     1  UNL1        0.0219
      7 C           2.0628   -0.1216   19.2090 C.3     1  UNL1        0.0061
      8 C           3.4615    0.2218   19.6284 C.3     1  UNL1        0.0224
      9 C           3.3936    1.4137   20.5367 C.3     1  UNL1        0.0061
     10 C           1.9530    1.8068   20.6786 C.3     1  UNL1        0.0219
     11 C           1.0207    2.7864   21.3277 C.3     1  UNL1        0.0950
     12 H          -3.0195    1.9276   20.2185 H       1  UNL1        0.1564
     13 C          -4.8000    4.4766   20.3452 C.ar    1  UNL1        0.0297
     14 C          -6.0476    5.1981   20.7611 C.ar    1  UNL1        0.0320
     15 C          -6.7040    4.8685   22.0689 C.ar    1  UNL1        0.1403
     16 F          -7.9516    5.5901   22.4848 F       1  UNL1       -0.2042
     17 C          -6.1130    3.8173   22.9609 C.ar    1  UNL1        0.0309
     18 C          -4.8655    3.0958   22.5450 C.ar    1  UNL1        0.0171
     19 C          -4.2090    3.4254   21.2372 C.ar    1  UNL1        0.0528
     20 O          -3.7864    6.2268   18.7145 O.co2   1  UNL1       -0.5446
     21 C          -4.1435    4.8062   19.0374 C.2     1  UNL1        0.0741
     22 O          -3.8442    3.7152   18.0525 O.co2   1  UNL1       -0.5446
     23 C           4.7089   -0.4998   19.2126 C.ar    1  UNL1       -0.0186
     24 C           5.4647   -0.0518   17.9969 C.ar    1  UNL1       -0.0043
     25 C           6.7123   -0.7734   17.5810 C.ar    1  UNL1       -0.0003
     26 C           7.2040   -1.9432   18.3809 C.ar    1  UNL1       -0.0001
     27 C           6.4482   -2.3913   19.5967 C.ar    1  UNL1        0.0035
     28 C           5.2007   -1.6696   20.0125 C.ar    1  UNL1        0.0675
     29 C           4.4450   -2.1177   21.2282 C.3     1  UNL1        0.4183
     30 F           3.6892   -2.5657   22.4440 F       1  UNL1       -0.1659
     31 F           5.2899   -1.2211   22.0839 F       1  UNL1       -0.1659
     32 F           3.6000   -3.0143   20.3725 F       1  UNL1       -0.1659
@<TRIPOS>UNITY_ATOM_ATTR
20 1
charge -1
@<TRIPOS>BOND
     1    20    21   ar
     2    21    22   ar
     3    21    13    1
     4    13    14   ar
     5    14    15   ar
     6    15    16    1
     7    15    17   ar
     8    17    18   ar
     9    18    19   ar
    10    19     1    1
    11     1     2   am
    12     2     3    2
    13     2     4   am
    14     4     5    1
    15     6     5    1
    16     6     7    1
    17     7     8    1
    18     8    23    1
    19    23    24   ar
    20    24    25   ar
    21    25    26   ar
    22    26    27   ar
    23    27    28   ar
    24    28    29    1
    25    29    30    1
    26    29    31    1
    27    29    32    1
    28     8     9    1
    29    10     9    1
    30    10    11    1
    31    19    13   ar
    32    11     4    1
    33    10     6    1
    34    28    23   ar
    35     1    12    1
@<TRIPOS>MOLECULE
*****
 32 35 0 0 0
SMALL
GASTEIGER

@<TRIPOS>ATOM
      1 N           7.0123   -4.7271   27.2107 N.am    1  UNL1       -0.2681
      2 C           7.8633   -4.0346   26.1879 C.2     1  UNL1        0.3077
      3 O           9.3453   -3.9277   26.3935 O.2     1  UNL1       -0.2522
      4 N           7.2324   -3.4491   24.9594 N.am    1  UNL1       -0.2640
      5 C           5.7718   -3.4784   24.6191 C.3     1  UNL1        0.0950
      6 C           5.5881   -2.7788   23.3049 C.3     1  UNL1        0.0219
      7 C           4.5718   -2.3646   22.2824 C.3     1  UNL1        0.0061
      8 C           5.2906   -1.6470   21.1786 C.3     1  UNL1        0.0224
      9 C           6.7513   -1.6177   21.5190 C.3     1  UNL1        0.0061
     10 C           6.9350   -2.3173   22.8332 C.3     1  UNL1        0.0219
     11 C           7.9513   -2.7315   23.8557 C.3     1  UNL1        0.0950
     12 H           6.0396   -4.7974   27.0757 H       1  UNL1        0.1564
     13 C           7.6276   -4.5461   29.7283 C.ar    1  UNL1        0.0297
     14 C           8.2585   -5.1317   30.9568 C.ar    1  UNL1        0.0320
     15 C           8.9048   -6.4839   30.8960 C.ar    1  UNL1        0.1403
     16 F           9.5357   -7.0696   32.1244 F       1  UNL1       -0.2042
     17 C           8.9204   -7.2506   29.6068 C.ar    1  UNL1        0.0309
     18 C           8.2895   -6.6649   28.3784 C.ar    1  UNL1        0.0171
     19 C           7.6431   -5.3127   28.4392 C.ar    1  UNL1        0.0528
     20 O           7.4013   -2.1181   28.8319 O.co2   1  UNL1       -0.5446
     21 C           6.9813   -3.1939   29.7891 C.2     1  UNL1        0.0741
     22 O           5.9149   -2.9174   30.8071 O.co2   1  UNL1       -0.5446
     23 C           4.6598   -1.0615   19.9502 C.ar    1  UNL1       -0.0186
     24 C           4.2890    0.3916   19.9174 C.ar    1  UNL1       -0.0043
     25 C           3.6581    0.9772   18.6890 C.ar    1  UNL1       -0.0003
     26 C           3.3979    0.1097   17.4933 C.ar    1  UNL1       -0.0001
     27 C           3.7687   -1.3435   17.5261 C.ar    1  UNL1        0.0035
     28 C           4.3996   -1.9290   18.7545 C.ar    1  UNL1        0.0675
     29 C           4.7703   -3.3821   18.7873 C.3     1  UNL1        0.4183
     30 F           5.1411   -4.8352   18.8201 F       1  UNL1       -0.1659
     31 F           6.1304   -3.0472   18.2507 F       1  UNL1       -0.1659
     32 F           3.4102   -3.7170   19.3239 F       1  UNL1       -0.1659
@<TRIPOS>UNITY_ATOM_ATTR
20 1
charge -1
@<TRIPOS>BOND
     1    20    21   ar
     2    21    22   ar
     3    21    13    1
     4    13    14   ar
     5    14    15   ar
     6    15    16    1
     7    15    17   ar
     8    17    18   ar
     9    18    19   ar
    10    19     1    1
    11     1     2   am
    12     2     3    2
    13     2     4   am
    14     4     5    1
    15     6     5    1
    16     6     7    1
    17     7     8    1
    18     8    23    1
    19    23    24   ar
    20    24    25   ar
    21    25    26   ar
    22    26    27   ar
    23    27    28   ar
    24    28    29    1
    25    29    30    1
    26    29    31    1
    27    29    32    1
    28     8     9    1
    29    10     9    1
    30    10    11    1
    31    19    13   ar
    32    11     4    1
    33    10     6    1
    34    28    23   ar
    35     1    12    1
@<TRIPOS>MOLECULE
*****
 32 35 0 0 0
SMALL
GASTEIGER

@<TRIPOS>ATOM
      1 N           6.5570   -4.6473   30.2816 N.am    1  UNL1       -0.2681
      2 C           6.8992   -3.1886   30.2091 C.2     1  UNL1        0.3077
      3 O           7.8026   -2.6833   29.1235 O.2     1  UNL1       -0.2522
      4 N           6.3380   -2.2354   31.2222 N.am    1  UNL1       -0.2640
      5 C           5.4264   -2.5924   32.3586 C.3     1  UNL1        0.0950
      6 C           5.1149   -1.3354   33.1155 C.3     1  UNL1        0.0219
      7 C           4.3590   -0.7791   34.2856 C.3     1  UNL1        0.0061
      8 C           4.6109    0.6986   34.3401 C.3     1  UNL1        0.0224
      9 C           5.5226    1.0556   33.2037 C.3     1  UNL1        0.0061
     10 C           5.8340   -0.2014   32.4468 C.3     1  UNL1        0.0219
     11 C           6.5900   -0.7577   31.2767 C.3     1  UNL1        0.0950
     12 H           5.9641   -4.9790   30.9942 H       1  UNL1        0.1564
     13 C           8.3236   -6.4278   29.6042 C.ar    1  UNL1        0.0297
     14 C           8.8847   -7.3812   28.5911 C.ar    1  UNL1        0.0320
     15 C           8.2403   -7.5073   27.2425 C.ar    1  UNL1        0.1403
     16 F           8.8014   -8.4606   26.2293 F       1  UNL1       -0.2042
     17 C           7.0349   -6.6801   26.9068 C.ar    1  UNL1        0.0309
     18 C           6.4738   -5.7268   27.9199 C.ar    1  UNL1        0.0171
     19 C           7.1182   -5.6007   29.2686 C.ar    1  UNL1        0.0528
     20 O           9.0948   -7.5054   31.8390 O.co2   1  UNL1       -0.5446
     21 C           8.9680   -6.3017   30.9529 C.2     1  UNL1        0.0741
     22 O           9.4855   -4.9720   31.4154 O.co2   1  UNL1       -0.5446
     23 C           4.0497    1.6518   35.3532 C.ar    1  UNL1       -0.0186
     24 C           2.7727    2.3846   35.0667 C.ar    1  UNL1       -0.0043
     25 C           2.2114    3.3380   36.0798 C.ar    1  UNL1       -0.0003
     26 C           2.9274    3.5585   37.3793 C.ar    1  UNL1       -0.0001
     27 C           4.2045    2.8256   37.6658 C.ar    1  UNL1        0.0035
     28 C           4.7657    1.8724   36.6528 C.ar    1  UNL1        0.0675
     29 C           6.0427    1.1396   36.9392 C.3     1  UNL1        0.4183
     30 F           7.3198    0.4068   37.2257 F       1  UNL1       -0.1659
     31 F           5.2560   -0.0546   37.3917 F       1  UNL1       -0.1659
     32 F           6.8295    2.3339   36.4867 F       1  UNL1       -0.1659
@<TRIPOS>UNITY_ATOM_ATTR
20 1
charge -1
@<TRIPOS>BOND
     1    20    21   ar
     2    21    22   ar
     3    21    13    1
     4    13    14   ar
     5    14    15   ar
     6    15    16    1
     7    15    17   ar
     8    17    18   ar
     9    18    19   ar
    10    19     1    1
    11     1     2   am
    12     2     3    2
    13     2     4   am
    14     4     5    1
    15     6     5    1
    16     6     7    1
    17     7     8    1
    18     8    23    1
    19    23    24   ar
    20    24    25   ar
    21    25    26   ar
    22    26    27   ar
    23    27    28   ar
    24    28    29    1
    25    29    30    1
    26    29    31    1
    27    29    32    1
    28     8     9    1
    29    10     9    1
    30    10    11    1
    31    19    13   ar
    32    11     4    1
    33    10     6    1
    34    28    23   ar
    35     1    12    1
@<TRIPOS>MOLECULE
*****
 32 35 0 0 0
SMALL
GASTEIGER

@<TRIPOS>ATOM
      1 N           3.7164    1.4127   32.7519 N.am    1  UNL1       -0.2681
      2 C           3.0056    0.4337   31.8651 C.2     1  UNL1        0.3077
      3 O           3.1729   -1.0399   32.0893 O.2     1  UNL1       -0.2522
      4 N           2.1276    0.9285   30.7541 N.am    1  UNL1       -0.2640
      5 C           1.8654    2.3648   30.4106 C.3     1  UNL1        0.0950
      6 C           0.9334    2.3977   29.2357 C.3     1  UNL1        0.0219
      7 C           0.1954    3.3058   28.2973 C.3     1  UNL1        0.0061
      8 C          -0.5746    2.4510   27.3347 C.3     1  UNL1        0.0224
      9 C          -0.3124    1.0145   27.6783 C.3     1  UNL1        0.0061
     10 C           0.6196    0.9817   28.8532 C.3     1  UNL1        0.0219
     11 C           1.3577    0.0736   29.7916 C.3     1  UNL1        0.0950
     12 H           3.6066    2.3799   32.6047 H       1  UNL1        0.1564
     13 C           4.2716    1.2663   35.2858 C.ar    1  UNL1        0.0297
     14 C           5.1496    0.7717   36.3968 C.ar    1  UNL1        0.0320
     15 C           6.3506   -0.0713   36.0849 C.ar    1  UNL1        0.1403
     16 F           7.2286   -0.5660   37.1959 F       1  UNL1       -0.2042
     17 C           6.6735   -0.4196   34.6621 C.ar    1  UNL1        0.0309
     18 C           5.7954    0.0751   33.5511 C.ar    1  UNL1        0.0171
     19 C           4.5945    0.9180   33.8630 C.ar    1  UNL1        0.0528
     20 O           2.6323    3.1747   34.6371 O.co2   1  UNL1       -0.5446
     21 C           3.0707    2.1093   35.5976 C.2     1  UNL1        0.0741
     22 O           2.3081    1.8868   36.8700 O.co2   1  UNL1       -0.5446
     23 C          -1.4526    2.9456   26.2237 C.ar    1  UNL1       -0.0186
     24 C          -2.8585    3.3795   26.5154 C.ar    1  UNL1       -0.0043
     25 C          -3.7366    3.8743   25.4044 C.ar    1  UNL1       -0.0003
     26 C          -3.2086    3.9350   24.0017 C.ar    1  UNL1       -0.0001
     27 C          -1.8026    3.5011   23.7100 C.ar    1  UNL1        0.0035
     28 C          -0.9247    3.0065   24.8209 C.ar    1  UNL1        0.0675
     29 C           0.4813    2.5725   24.5293 C.3     1  UNL1        0.4183
     30 F           1.8872    2.1386   24.2377 F       1  UNL1       -0.1659
     31 F           0.9588    3.9789   24.7392 F       1  UNL1       -0.1659
     32 F           0.0037    1.1662   24.3194 F       1  UNL1       -0.1659
@<TRIPOS>UNITY_ATOM_ATTR
20 1
charge -1
@<TRIPOS>BOND
     1    20    21   ar
     2    21    22   ar
     3    21    13    1
     4    13    14   ar
     5    14    15   ar
     6    15    16    1
     7    15    17   ar
     8    17    18   ar
     9    18    19   ar
    10    19     1    1
    11     1     2   am
    12     2     3    2
    13     2     4   am
    14     4     5    1
    15     6     5    1
    16     6     7    1
    17     7     8    1
    18     8    23    1
    19    23    24   ar
    20    24    25   ar
    21    25    26   ar
    22    26    27   ar
    23    27    28   ar
    24    28    29    1
    25    29    30    1
    26    29    31    1
    27    29    32    1
    28     8     9    1
    29    10     9    1
    30    10    11    1
    31    19    13   ar
    32    11     4    1
    33    10     6    1
    34    28    23   ar
    35     1    12    1
@<TRIPOS>MOLECULE
*****
 32 35 0 0 0
SMALL
GASTEIGER

@<TRIPOS>ATOM
      1 N           5.6820   -3.3271   27.4833 N.am    1  UNL1       -0.2681
      2 C           6.4596   -2.7125   26.3574 C.2     1  UNL1        0.3077
      3 O           7.9518   -2.8574   26.3098 O.2     1  UNL1       -0.2522
      4 N           5.7450   -1.9530   25.2792 N.am    1  UNL1       -0.2640
      5 C           4.2648   -1.7260   25.1936 C.3     1  UNL1        0.0950
      6 C           3.9902   -0.9199   23.9588 C.3     1  UNL1        0.0219
      7 C           2.9056   -0.2814   23.1427 C.3     1  UNL1        0.0061
      8 C           3.5457    0.3844   21.9607 C.3     1  UNL1        0.0224
      9 C           5.0260    0.1573   22.0464 C.3     1  UNL1        0.0061
     10 C           5.3006   -0.6487   23.2812 C.3     1  UNL1        0.0219
     11 C           6.3852   -1.2872   24.0973 C.3     1  UNL1        0.0950
     12 H           4.7026   -3.2320   27.5145 H       1  UNL1        0.1564
     13 C           6.6052   -3.4597   29.9082 C.ar    1  UNL1        0.0297
     14 C           7.3197   -4.2193   30.9864 C.ar    1  UNL1        0.0320
     15 C           7.8256   -5.6056   30.7179 C.ar    1  UNL1        0.1403
     16 F           8.5402   -6.3652   31.7961 F       1  UNL1       -0.2042
     17 C           7.6171   -6.2325   29.3713 C.ar    1  UNL1        0.0309
     18 C           6.9025   -5.4729   28.2931 C.ar    1  UNL1        0.0171
     19 C           6.3966   -4.0866   28.5616 C.ar    1  UNL1        0.0528
     20 O           6.5155   -0.9381   29.2891 O.co2   1  UNL1       -0.5446
     21 C           6.0992   -2.0734   30.1767 C.2     1  UNL1        0.0741
     22 O           5.1771   -1.8223   31.3328 O.co2   1  UNL1       -0.5446
     23 C           2.8312    1.1438   20.8826 C.ar    1  UNL1       -0.0186
     24 C           2.6057    2.6196   21.0281 C.ar    1  UNL1       -0.0043
     25 C           1.8911    3.3791   19.9498 C.ar    1  UNL1       -0.0003
     26 C           1.4020    2.6628   18.7261 C.ar    1  UNL1       -0.0001
     27 C           1.6274    1.1869   18.5806 C.ar    1  UNL1        0.0035
     28 C           2.3420    0.4275   19.6587 C.ar    1  UNL1        0.0675
     29 C           2.5674   -1.0483   19.5133 C.3     1  UNL1        0.4183
     30 F           2.7928   -2.5241   19.3678 F       1  UNL1       -0.1659
     31 F           3.8887   -0.7816   18.8553 F       1  UNL1       -0.1659
     32 F           1.2461   -1.3150   20.1712 F       1  UNL1       -0.1659
@<TRIPOS>UNITY_ATOM_ATTR
20 1
charge -1
@<TRIPOS>BOND
     1    20    21   ar
     2    21    22   ar
     3    21    13    1
     4    13    14   ar
     5    14    15   ar
     6    15    16    1
     7    15    17   ar
     8    17    18   ar
     9    18    19   ar
    10    19     1    1
    11     1     2   am
    12     2     3    2
    13     2     4   am
    14     4     5    1
    15     6     5    1
    16     6     7    1
    17     7     8    1
    18     8    23    1
    19    23    24   ar
    20    24    25   ar
    21    25    26   ar
    22    26    27   ar
    23    27    28   ar
    24    28    29    1
    25    29    30    1
    26    29    31    1
    27    29    32    1
    28     8     9    1
    29    10     9    1
    30    10    11    1
    31    19    13   ar
    32    11     4    1
    33    10     6    1
    34    28    23   ar
    35     1    12    1
@<TRIPOS>MOLECULE
*****
 32 35 0 0 0
SMALL
GASTEIGER

@<TRIPOS>ATOM
      1 N           3.8925   -1.9398   24.4156 N.am    1  UNL1       -0.2681
      2 C           5.1169   -1.4992   25.1616 C.2     1  UNL1        0.3077
      3 O           6.4257   -1.3634   24.4414 O.2     1  UNL1       -0.2522
      4 N           5.0327   -1.1943   26.6279 N.am    1  UNL1       -0.2640
      5 C           3.7999   -1.2844   27.4777 C.3     1  UNL1        0.0950
      6 C           4.1718   -0.8916   28.8768 C.3     1  UNL1        0.0219
      7 C           3.6397   -0.7044   30.2667 C.3     1  UNL1        0.0061
      8 C           4.7734   -0.2560   31.1407 C.3     1  UNL1        0.0224
      9 C           6.0062   -0.1660   30.2907 C.3     1  UNL1        0.0061
     10 C           5.6343   -0.5588   28.8917 C.3     1  UNL1        0.0219
     11 C           6.1664   -0.7459   27.5017 C.3     1  UNL1        0.0950
     12 H           3.0335   -2.0289   24.8884 H       1  UNL1        0.1564
     13 C           3.4515   -1.2599   21.9472 C.ar    1  UNL1        0.0297
     14 C           3.5357   -1.5649   20.4809 C.ar    1  UNL1        0.0320
     15 C           4.1451   -2.8546   20.0169 C.ar    1  UNL1        0.1403
     16 F           4.2293   -3.1596   18.5506 F       1  UNL1       -0.2042
     17 C           4.6703   -3.8394   21.0190 C.ar    1  UNL1        0.0309
     18 C           4.5860   -3.5344   22.4853 C.ar    1  UNL1        0.0171
     19 C           3.9767   -2.2447   22.9493 C.ar    1  UNL1        0.0528
     20 O           1.4732    0.4242   21.9416 O.co2   1  UNL1       -0.5446
     21 C           2.8422    0.0298   22.4112 C.2     1  UNL1        0.0741
     22 O           3.6017    0.9250   23.3447 O.co2   1  UNL1       -0.5446
     23 C           4.6891    0.0489   32.6068 C.ar    1  UNL1       -0.0186
     24 C           4.2534    1.4086   33.0664 C.ar    1  UNL1       -0.0043
     25 C           4.1691    1.7135   34.5327 C.ar    1  UNL1       -0.0003
     26 C           4.5207    0.6586   35.5394 C.ar    1  UNL1       -0.0001
     27 C           4.9564   -0.7012   35.0799 C.ar    1  UNL1        0.0035
     28 C           5.0407   -1.0061   33.6137 C.ar    1  UNL1        0.0675
     29 C           5.4764   -2.3658   33.1542 C.3     1  UNL1        0.4183
     30 F           5.9122   -3.7256   32.6947 F       1  UNL1       -0.1659
     31 F           6.8984   -1.8914   33.0989 F       1  UNL1       -0.1659
     32 F           4.0545   -2.8402   33.2095 F       1  UNL1       -0.1659
@<TRIPOS>UNITY_ATOM_ATTR
20 1
charge -1
@<TRIPOS>BOND
     1    20    21   ar
     2    21    22   ar
     3    21    13    1
     4    13    14   ar
     5    14    15   ar
     6    15    16    1
     7    15    17   ar
     8    17    18   ar
     9    18    19   ar
    10    19     1    1
    11     1     2   am
    12     2     3    2
    13     2     4   am
    14     4     5    1
    15     6     5    1
    16     6     7    1
    17     7     8    1
    18     8    23    1
    19    23    24   ar
    20    24    25   ar
    21    25    26   ar
    22    26    27   ar
    23    27    28   ar
    24    28    29    1
    25    29    30    1
    26    29    31    1
    27    29    32    1
    28     8     9    1
    29    10     9    1
    30    10    11    1
    31    19    13   ar
    32    11     4    1
    33    10     6    1
    34    28    23   ar
    35     1    12    1
