@<TRIPOS>MOLECULE
*****
 23 25 0 0 0
SMALL
GASTEIGER

@<TRIPOS>ATOM
      1 N          -8.8190  -18.0339   21.7915 N.ar    1  UNL1       -0.2341
      2 N          -9.5937  -17.1866   20.8262 N.ar    1  UNL1       -0.1617
      3 C         -11.0106  -17.1078   21.3124 C.ar    1  UNL1        0.1696
      4 C         -11.1115  -17.9063   22.5781 C.ar    1  UNL1        0.0148
      5 C          -9.7570  -18.4787   22.8742 C.ar    1  UNL1        0.0579
      6 C          -9.5527  -19.3311   24.0915 C.3     1  UNL1        0.0456
      7 C         -10.7030  -19.6110   25.0127 C.3     1  UNL1        0.0066
      8 C         -12.0575  -19.0386   24.7165 C.3     1  UNL1        0.0052
      9 C         -12.2617  -18.1863   23.4992 C.3     1  UNL1        0.0291
     10 C          -4.4480  -19.0611   21.4919 C.ar    1  UNL1        0.1058
     11 C          -5.4079  -19.5566   20.4512 C.ar    1  UNL1        0.0199
     12 C          -6.8649  -19.2142   20.5510 C.ar    1  UNL1        0.0205
     13 C          -7.3620  -18.3763   21.6917 C.ar    1  UNL1        0.0825
     14 C          -6.4021  -17.8809   22.7323 C.ar    1  UNL1        0.0205
     15 C          -4.9451  -18.2233   22.6324 C.ar    1  UNL1        0.0199
     16 C          -1.5341  -19.7458   21.2922 C.3     1  UNL1        0.1816
     17 S          -2.9910  -19.4035   21.3920 S.O2    1  UNL1        0.0105
     18 O          -3.3291  -20.5957   20.5468 O.2     1  UNL1       -0.1686
     19 O          -2.6530  -18.2112   22.2372 O.2     1  UNL1       -0.1686
     20 C         -12.1300  -16.3614   20.6492 C.3     1  UNL1        0.4362
     21 F         -13.2495  -15.6150   19.9860 F       1  UNL1       -0.1644
     22 F         -11.8228  -17.0518   19.3535 F       1  UNL1       -0.1644
     23 F         -12.4373  -15.6710   21.9449 F       1  UNL1       -0.1644
@<TRIPOS>BOND
     1    16    17    1
     2    17    18    2
     3    17    19    2
     4    17    10    1
     5    10    11   ar
     6    11    12   ar
     7    12    13   ar
     8    13     1    1
     9     1     2   ar
    10     2     3   ar
    11     3    20    1
    12    20    21    1
    13    20    22    1
    14    20    23    1
    15     3     4   ar
    16     4     5   ar
    17     5     6    1
    18     6     7    1
    19     7     8    1
    20     8     9    1
    21    13    14   ar
    22    14    15   ar
    23    15    10   ar
    24     5     1   ar
    25     9     4    1
@<TRIPOS>MOLECULE
*****
 23 25 0 0 0
SMALL
GASTEIGER

@<TRIPOS>ATOM
      1 N          -6.8746  -18.6122   21.9777 N.ar    1  UNL1       -0.2341
      2 N          -7.8810  -19.6785   21.6611 N.ar    1  UNL1       -0.1617
      3 C          -9.1652  -19.3228   22.3498 C.ar    1  UNL1        0.1696
      4 C          -8.9525  -18.0367   23.0920 C.ar    1  UNL1        0.0148
      5 C          -7.5367  -17.5976   22.8620 C.ar    1  UNL1        0.0579
      6 C          -7.0335  -16.3305   23.4876 C.3     1  UNL1        0.0456
      7 C          -7.9460  -15.5027   24.3431 C.3     1  UNL1        0.0066
      8 C          -9.3617  -15.9418   24.5731 C.3     1  UNL1        0.0052
      9 C          -9.8649  -17.2088   23.9475 C.3     1  UNL1        0.0291
     10 C          -2.6162  -18.4805   20.5287 C.ar    1  UNL1        0.1058
     11 C          -3.7273  -18.7768   19.5656 C.ar    1  UNL1        0.0199
     12 C          -5.1468  -18.8207   20.0486 C.ar    1  UNL1        0.0205
     13 C          -5.4551  -18.5683   21.4948 C.ar    1  UNL1        0.0825
     14 C          -4.3440  -18.2720   22.4578 C.ar    1  UNL1        0.0205
     15 C          -2.9246  -18.2281   21.9748 C.ar    1  UNL1        0.0199
     16 C           0.2227  -18.3927   19.5629 C.3     1  UNL1        0.1816
     17 S          -1.1968  -18.4366   20.0458 S.O2    1  UNL1        0.0105
     18 O          -1.6816  -18.3399   18.6296 O.2     1  UNL1       -0.1686
     19 O          -0.7120  -18.5334   21.4620 O.2     1  UNL1       -0.1686
     20 C         -10.4386  -20.1142   22.3043 C.3     1  UNL1        0.4362
     21 F         -11.7121  -20.9055   22.2588 F       1  UNL1       -0.1644
     22 F         -10.6489  -19.6939   20.8798 F       1  UNL1       -0.1644
     23 F         -10.2284  -20.5344   23.7288 F       1  UNL1       -0.1644
@<TRIPOS>BOND
     1    16    17    1
     2    17    18    2
     3    17    19    2
     4    17    10    1
     5    10    11   ar
     6    11    12   ar
     7    12    13   ar
     8    13     1    1
     9     1     2   ar
    10     2     3   ar
    11     3    20    1
    12    20    21    1
    13    20    22    1
    14    20    23    1
    15     3     4   ar
    16     4     5   ar
    17     5     6    1
    18     6     7    1
    19     7     8    1
    20     8     9    1
    21    13    14   ar
    22    14    15   ar
    23    15    10   ar
    24     5     1   ar
    25     9     4    1
@<TRIPOS>MOLECULE
*****
 23 25 0 0 0
SMALL
GASTEIGER

@<TRIPOS>ATOM
      1 N          -6.6198  -18.4164   22.3197 N.ar    1  UNL1       -0.2341
      2 N          -5.5518  -17.5007   22.8404 N.ar    1  UNL1       -0.1617
      3 C          -4.2386  -17.9497   22.2713 C.ar    1  UNL1        0.1696
      4 C          -4.4948  -19.1428   21.3991 C.ar    1  UNL1        0.0148
      5 C          -5.9665  -19.4312   21.4290 C.ar    1  UNL1        0.0579
      6 C          -6.5217  -20.5807   20.6413 C.3     1  UNL1        0.0456
      7 C          -5.6051  -21.4417   19.8236 C.3     1  UNL1        0.0066
      8 C          -4.1334  -21.1532   19.7937 C.3     1  UNL1        0.0052
      9 C          -3.5783  -20.0037   20.5814 C.3     1  UNL1        0.0291
     10 C         -11.0123  -18.1635   23.2644 C.ar    1  UNL1        0.1058
     11 C         -10.2890  -19.4701   23.4047 C.ar    1  UNL1        0.0199
     12 C          -8.8248  -19.5544   23.0898 C.ar    1  UNL1        0.0205
     13 C          -8.0839  -18.3321   22.6346 C.ar    1  UNL1        0.0825
     14 C          -8.8072  -17.0256   22.4943 C.ar    1  UNL1        0.0205
     15 C         -10.2714  -16.9413   22.8092 C.ar    1  UNL1        0.0199
     16 C         -13.9406  -17.9948   23.8940 C.3     1  UNL1        0.1816
     17 S         -12.4764  -18.0792   23.5792 S.O2    1  UNL1        0.0105
     18 O         -12.2403  -18.8035   24.8714 O.2     1  UNL1       -0.1686
     19 O         -12.7125  -17.3549   22.2870 O.2     1  UNL1       -0.1686
     20 C          -2.9033  -17.3166   22.5293 C.3     1  UNL1        0.4362
     21 F          -1.5681  -16.6836   22.7873 F       1  UNL1       -0.1644
     22 F          -2.9751  -17.7497   23.9636 F       1  UNL1       -0.1644
     23 F          -2.8316  -16.8836   21.0950 F       1  UNL1       -0.1644
@<TRIPOS>BOND
     1    16    17    1
     2    17    18    2
     3    17    19    2
     4    17    10    1
     5    10    11   ar
     6    11    12   ar
     7    12    13   ar
     8    13     1    1
     9     1     2   ar
    10     2     3   ar
    11     3    20    1
    12    20    21    1
    13    20    22    1
    14    20    23    1
    15     3     4   ar
    16     4     5   ar
    17     5     6    1
    18     6     7    1
    19     7     8    1
    20     8     9    1
    21    13    14   ar
    22    14    15   ar
    23    15    10   ar
    24     5     1   ar
    25     9     4    1
@<TRIPOS>MOLECULE
*****
 23 25 0 0 0
SMALL
GASTEIGER

@<TRIPOS>ATOM
      1 N          -7.0345  -18.8979   21.7377 N.ar    1  UNL1       -0.2341
      2 N          -7.6022  -18.6652   23.1065 N.ar    1  UNL1       -0.1617
      3 C          -9.0842  -18.8863   23.0373 C.ar    1  UNL1        0.1696
      4 C          -9.4324  -19.2557   21.6258 C.ar    1  UNL1        0.0148
      5 C          -8.1656  -19.2629   20.8226 C.ar    1  UNL1        0.0579
      6 C          -8.2057  -19.6009   19.3618 C.3     1  UNL1        0.0456
      7 C          -9.5126  -19.9317   18.7041 C.3     1  UNL1        0.0066
      8 C         -10.7794  -19.9245   19.5073 C.3     1  UNL1        0.0052
      9 C         -10.7393  -19.5865   20.9681 C.3     1  UNL1        0.0291
     10 C          -2.6990  -18.5605   20.5800 C.ar    1  UNL1        0.1058
     11 C          -3.1066  -18.4026   22.0149 C.ar    1  UNL1        0.0199
     12 C          -4.5517  -18.5151   22.4008 C.ar    1  UNL1        0.0205
     13 C          -5.5894  -18.7855   21.3518 C.ar    1  UNL1        0.0825
     14 C          -5.1817  -18.9433   19.9170 C.ar    1  UNL1        0.0205
     15 C          -3.7366  -18.8309   19.5310 C.ar    1  UNL1        0.0199
     16 C           0.1912  -18.3356   19.8083 C.3     1  UNL1        0.1816
     17 S          -1.2539  -18.4481   20.1941 S.O2    1  UNL1        0.0105
     18 O          -1.6513  -18.2649   18.7593 O.2     1  UNL1       -0.1686
     19 O          -0.8565  -18.6313   21.6289 O.2     1  UNL1       -0.1686
     20 C         -10.0487  -18.7602   24.1791 C.3     1  UNL1        0.4362
     21 F         -11.0133  -18.6339   25.3210 F       1  UNL1       -0.1644
     22 F         -10.1595  -17.2864   23.9227 F       1  UNL1       -0.1644
     23 F          -9.9380  -20.2338   24.4355 F       1  UNL1       -0.1644
@<TRIPOS>BOND
     1    16    17    1
     2    17    18    2
     3    17    19    2
     4    17    10    1
     5    10    11   ar
     6    11    12   ar
     7    12    13   ar
     8    13     1    1
     9     1     2   ar
    10     2     3   ar
    11     3    20    1
    12    20    21    1
    13    20    22    1
    14    20    23    1
    15     3     4   ar
    16     4     5   ar
    17     5     6    1
    18     6     7    1
    19     7     8    1
    20     8     9    1
    21    13    14   ar
    22    14    15   ar
    23    15    10   ar
    24     5     1   ar
    25     9     4    1
@<TRIPOS>MOLECULE
*****
 23 25 0 0 0
SMALL
GASTEIGER

@<TRIPOS>ATOM
      1 N          -6.0969  -16.7105   23.7133 N.ar    1  UNL1       -0.2341
      2 N          -6.1864  -16.0705   25.0669 N.ar    1  UNL1       -0.1617
      3 C          -7.6369  -15.9629   25.4338 C.ar    1  UNL1        0.1696
      4 C          -8.4438  -16.5365   24.3068 C.ar    1  UNL1        0.0148
      5 C          -7.4920  -16.9985   23.2435 C.ar    1  UNL1        0.0579
      6 C          -8.0187  -17.6217   21.9849 C.3     1  UNL1        0.0456
      7 C          -9.4971  -17.7830   21.7896 C.3     1  UNL1        0.0066
      8 C         -10.4489  -17.3210   22.8529 C.3     1  UNL1        0.0052
      9 C          -9.9222  -16.6977   24.1116 C.3     1  UNL1        0.0291
     10 C          -2.3081  -17.6089   21.4575 C.ar    1  UNL1        0.1058
     11 C          -3.3420  -18.6797   21.6437 C.ar    1  UNL1        0.0199
     12 C          -4.6049  -18.3802   22.3957 C.ar    1  UNL1        0.0205
     13 C          -4.8340  -17.0099   22.9614 C.ar    1  UNL1        0.0825
     14 C          -3.8002  -15.9393   22.7751 C.ar    1  UNL1        0.0205
     15 C          -2.5372  -16.2387   22.0232 C.ar    1  UNL1        0.0199
     16 C           0.2177  -18.2077   19.9537 C.3     1  UNL1        0.1816
     17 S          -1.0452  -17.9084   20.7056 S.O2    1  UNL1        0.0105
     18 O          -1.2798  -19.3776   20.8967 O.2     1  UNL1       -0.1686
     19 O          -0.8107  -16.4392   20.5146 O.2     1  UNL1       -0.1686
     20 C          -8.1843  -15.3836   26.7044 C.3     1  UNL1        0.4362
     21 F          -8.7318  -14.8043   27.9752 F       1  UNL1       -0.1644
     22 F          -7.1503  -16.1328   27.4915 F       1  UNL1       -0.1644
     23 F          -9.2183  -14.6344   25.9174 F       1  UNL1       -0.1644
@<TRIPOS>BOND
     1    16    17    1
     2    17    18    2
     3    17    19    2
     4    17    10    1
     5    10    11   ar
     6    11    12   ar
     7    12    13   ar
     8    13     1    1
     9     1     2   ar
    10     2     3   ar
    11     3    20    1
    12    20    21    1
    13    20    22    1
    14    20    23    1
    15     3     4   ar
    16     4     5   ar
    17     5     6    1
    18     6     7    1
    19     7     8    1
    20     8     9    1
    21    13    14   ar
    22    14    15   ar
    23    15    10   ar
    24     5     1   ar
    25     9     4    1
@<TRIPOS>MOLECULE
*****
 23 25 0 0 0
SMALL
GASTEIGER

@<TRIPOS>ATOM
      1 N         -13.6635   -5.6703   18.5465 N.ar    1  UNL1       -0.2341
      2 N         -13.7861   -4.1764   18.6034 N.ar    1  UNL1       -0.1617
      3 C         -12.4108   -3.6051   18.7826 C.ar    1  UNL1        0.1696
      4 C         -11.4383   -4.7458   18.8365 C.ar    1  UNL1        0.0148
      5 C         -12.2125   -6.0222   18.6905 C.ar    1  UNL1        0.0579
      6 C         -11.4962   -7.3400   18.7076 C.3     1  UNL1        0.0456
      7 C         -10.0057   -7.3814   18.8707 C.3     1  UNL1        0.0066
      8 C          -9.2315   -6.1049   19.0166 C.3     1  UNL1        0.0052
      9 C          -9.9478   -4.7872   18.9995 C.3     1  UNL1        0.0291
     10 C         -17.0537   -8.5848   18.0336 C.ar    1  UNL1        0.1058
     11 C         -16.8936   -7.8404   19.3260 C.ar    1  UNL1        0.0199
     12 C         -15.7636   -6.8689   19.4970 C.ar    1  UNL1        0.0205
     13 C         -14.7935   -6.6418   18.3755 C.ar    1  UNL1        0.0825
     14 C         -14.9537   -7.3862   17.0832 C.ar    1  UNL1        0.0205
     15 C         -16.0837   -8.3577   16.9122 C.ar    1  UNL1        0.0199
     16 C         -19.3138  -10.5276   17.6917 C.3     1  UNL1        0.1816
     17 S         -18.1837   -9.5563   17.8627 S.O2    1  UNL1        0.0105
     18 O         -17.2624  -10.6886   18.2076 O.2     1  UNL1       -0.1686
     19 O         -19.1050   -8.4238   17.5177 O.2     1  UNL1       -0.1686
     20 C         -12.0682   -2.1486   18.8893 C.3     1  UNL1        0.4362
     21 F         -11.7256   -0.6921   18.9961 F       1  UNL1       -0.1644
     22 F         -12.9174   -2.0391   20.1209 F       1  UNL1       -0.1644
     23 F         -11.2190   -2.2581   17.6578 F       1  UNL1       -0.1644
@<TRIPOS>BOND
     1    16    17    1
     2    17    18    2
     3    17    19    2
     4    17    10    1
     5    10    11   ar
     6    11    12   ar
     7    12    13   ar
     8    13     1    1
     9     1     2   ar
    10     2     3   ar
    11     3    20    1
    12    20    21    1
    13    20    22    1
    14    20    23    1
    15     3     4   ar
    16     4     5   ar
    17     5     6    1
    18     6     7    1
    19     7     8    1
    20     8     9    1
    21    13    14   ar
    22    14    15   ar
    23    15    10   ar
    24     5     1   ar
    25     9     4    1
@<TRIPOS>MOLECULE
*****
 23 25 0 0 0
SMALL
GASTEIGER

@<TRIPOS>ATOM
      1 N           2.7919   -1.5318   20.0108 N.ar    1  UNL1       -0.2341
      2 N           3.0680   -2.6138   19.0092 N.ar    1  UNL1       -0.1617
      3 C           3.9242   -3.6517   19.6723 C.ar    1  UNL1        0.1696
      4 C           4.1771   -3.2112   21.0837 C.ar    1  UNL1        0.0148
      5 C           3.4773   -1.9011   21.2929 C.ar    1  UNL1        0.0579
      6 C           3.5547   -1.2136   22.6238 C.3     1  UNL1        0.0456
      7 C           4.3318   -1.8362   23.7455 C.3     1  UNL1        0.0066
      8 C           5.0316   -3.1464   23.5363 C.3     1  UNL1        0.0052
      9 C           4.9543   -3.8339   22.2054 C.3     1  UNL1        0.0291
     10 C           0.3378    2.1716   19.2949 C.ar    1  UNL1        0.1058
     11 C          -0.1302    1.1403   20.2785 C.ar    1  UNL1        0.0199
     12 C           0.6878   -0.0942   20.5171 C.ar    1  UNL1        0.0205
     13 C           1.9739   -0.2974   19.7721 C.ar    1  UNL1        0.0825
     14 C           2.4418    0.7339   18.7886 C.ar    1  UNL1        0.0205
     15 C           1.6238    1.9684   18.5500 C.ar    1  UNL1        0.0199
     16 C          -1.2982    4.6405   18.8178 C.3     1  UNL1        0.1816
     17 S          -0.4802    3.4061   19.0563 S.O2    1  UNL1        0.0105
     18 O           0.2614    3.6499   17.7754 O.2     1  UNL1       -0.1686
     19 O          -1.2218    3.1622   20.3372 O.2     1  UNL1       -0.1686
     20 C           4.4373   -4.9093   19.0358 C.3     1  UNL1        0.4362
     21 F           4.9505   -6.1669   18.3993 F       1  UNL1       -0.1644
     22 F           5.4328   -4.1065   18.2521 F       1  UNL1       -0.1644
     23 F           3.4418   -5.7122   19.8196 F       1  UNL1       -0.1644
@<TRIPOS>BOND
     1    16    17    1
     2    17    18    2
     3    17    19    2
     4    17    10    1
     5    10    11   ar
     6    11    12   ar
     7    12    13   ar
     8    13     1    1
     9     1     2   ar
    10     2     3   ar
    11     3    20    1
    12    20    21    1
    13    20    22    1
    14    20    23    1
    15     3     4   ar
    16     4     5   ar
    17     5     6    1
    18     6     7    1
    19     7     8    1
    20     8     9    1
    21    13    14   ar
    22    14    15   ar
    23    15    10   ar
    24     5     1   ar
    25     9     4    1
@<TRIPOS>MOLECULE
*****
 23 25 0 0 0
SMALL
GASTEIGER

@<TRIPOS>ATOM
      1 N         -14.1161   -1.9084   19.2299 N.ar    1  UNL1       -0.2341
      2 N         -15.4286   -1.9182   19.9560 N.ar    1  UNL1       -0.1617
      3 C         -16.0702   -0.5749   19.7718 C.ar    1  UNL1        0.1696
      4 C         -15.1543    0.2651   18.9318 C.ar    1  UNL1        0.0148
      5 C         -13.9466   -0.5591   18.5969 C.ar    1  UNL1        0.0579
      6 C         -12.8485    0.0256   17.7588 C.3     1  UNL1        0.0456
      7 C         -12.9582    1.4344   17.2556 C.3     1  UNL1        0.0066
      8 C         -14.1659    2.2585   17.5905 C.3     1  UNL1        0.0052
      9 C         -15.2640    1.6739   18.4286 C.3     1  UNL1        0.0291
     10 C         -11.1992   -5.3268   18.9923 C.ar    1  UNL1        0.1058
     11 C         -12.6249   -5.5831   19.3820 C.ar    1  UNL1        0.0199
     12 C         -13.5972   -4.4436   19.4612 C.ar    1  UNL1        0.0205
     13 C         -13.1438   -3.0478   19.1507 C.ar    1  UNL1        0.0825
     14 C         -11.7182   -2.7916   18.7611 C.ar    1  UNL1        0.0205
     15 C         -10.7459   -3.9311   18.6819 C.ar    1  UNL1        0.0199
     16 C          -9.2545   -7.6056   18.8339 C.3     1  UNL1        0.1816
     17 S         -10.2269   -6.4663   18.9131 S.O2    1  UNL1        0.0105
     18 O         -11.2883   -7.3292   18.2977 O.2     1  UNL1       -0.1686
     19 O          -9.1655   -5.6032   19.5285 O.2     1  UNL1       -0.1686
     20 C         -17.3952   -0.1467   20.3296 C.3     1  UNL1        0.4362
     21 F         -18.7203    0.2814   20.8873 F       1  UNL1       -0.1644
     22 F         -18.0984   -0.9648   19.2873 F       1  UNL1       -0.1644
     23 F         -16.6921    0.6713   21.3718 F       1  UNL1       -0.1644
@<TRIPOS>BOND
     1    16    17    1
     2    17    18    2
     3    17    19    2
     4    17    10    1
     5    10    11   ar
     6    11    12   ar
     7    12    13   ar
     8    13     1    1
     9     1     2   ar
    10     2     3   ar
    11     3    20    1
    12    20    21    1
    13    20    22    1
    14    20    23    1
    15     3     4   ar
    16     4     5   ar
    17     5     6    1
    18     6     7    1
    19     7     8    1
    20     8     9    1
    21    13    14   ar
    22    14    15   ar
    23    15    10   ar
    24     5     1   ar
    25     9     4    1
@<TRIPOS>MOLECULE
*****
 23 25 0 0 0
SMALL
GASTEIGER

@<TRIPOS>ATOM
      1 N           3.7382   -1.6537   21.8735 N.ar    1  UNL1       -0.2341
      2 N           4.0668   -3.0457   21.4212 N.ar    1  UNL1       -0.1617
      3 C           4.1037   -3.0492   19.9217 C.ar    1  UNL1        0.1696
      4 C           3.7979   -1.6595   19.4472 C.ar    1  UNL1        0.0148
      5 C           3.5721   -0.7970   20.6535 C.ar    1  UNL1        0.0579
      6 C           3.2443    0.6570   20.4851 C.3     1  UNL1        0.0456
      7 C           3.1423    1.2485   19.1105 C.3     1  UNL1        0.0066
      8 C           3.3682    0.3861   17.9042 C.3     1  UNL1        0.0052
      9 C           3.6960   -1.0679   18.0725 C.3     1  UNL1        0.0291
     10 C           3.3238   -0.2878   26.1411 C.ar    1  UNL1        0.1058
     11 C           4.2855   -1.3857   25.7951 C.ar    1  UNL1        0.0199
     12 C           4.4237   -1.8410   24.3726 C.ar    1  UNL1        0.0205
     13 C           3.6001   -1.1984   23.2960 C.ar    1  UNL1        0.0825
     14 C           2.6384   -0.1006   23.6421 C.ar    1  UNL1        0.0205
     15 C           2.5003    0.3547   25.0646 C.ar    1  UNL1        0.0199
     16 C           3.0475    0.6229   28.9861 C.3     1  UNL1        0.1816
     17 S           3.1856    0.1675   27.5637 S.O2    1  UNL1        0.0105
     18 O           2.8991   -1.2427   27.9872 O.2     1  UNL1       -0.1686
     19 O           3.4722    1.5777   27.1400 O.2     1  UNL1       -0.1686
     20 C           4.3952   -4.2344   19.0497 C.3     1  UNL1        0.4362
     21 F           4.6866   -5.4196   18.1777 F       1  UNL1       -0.1644
     22 F           2.9271   -4.5286   18.9588 F       1  UNL1       -0.1644
     23 F           5.8632   -3.9402   19.1406 F       1  UNL1       -0.1644
@<TRIPOS>BOND
     1    16    17    1
     2    17    18    2
     3    17    19    2
     4    17    10    1
     5    10    11   ar
     6    11    12   ar
     7    12    13   ar
     8    13     1    1
     9     1     2   ar
    10     2     3   ar
    11     3    20    1
    12    20    21    1
    13    20    22    1
    14    20    23    1
    15     3     4   ar
    16     4     5   ar
    17     5     6    1
    18     6     7    1
    19     7     8    1
    20     8     9    1
    21    13    14   ar
    22    14    15   ar
    23    15    10   ar
    24     5     1   ar
    25     9     4    1
