@<TRIPOS>MOLECULE
*****
 42 47 0 0 0
SMALL
GASTEIGER

@<TRIPOS>ATOM
      1 C           6.9536   -3.2431   27.7575 C.ar    1  UNL1        0.0040
      2 C           6.9914   -4.4058   26.8107 C.ar    1  UNL1        0.0719
      3 C           6.9787   -5.6662   27.6238 C.ar    1  UNL1        0.1049
      4 N           6.9330   -5.2825   29.0731 N.ar    1  UNL1       -0.2242
      5 N           6.9036   -6.1032   30.3283 N.ar    1  UNL1       -0.1422
      6 C           6.8586   -5.4264   31.6661 C.ar    1  UNL1        0.2211
      7 N           6.8431   -3.9287   31.7487 N.ar    1  UNL1       -0.2060
      8 C           6.8726   -3.1080   30.4936 C.ar    1  UNL1        0.1515
      9 C           6.9175   -3.7848   29.1558 C.ar    1  UNL1        0.1107
     10 C           7.0344   -4.3228   25.3136 C.ar    1  UNL1        0.2543
     11 N           7.4051   -5.4359   24.3790 N.ar    1  UNL1       -0.1042
     12 N           7.3140   -4.9131   22.9760 N.ar    1  UNL1       -0.0714
     13 C           6.8869   -3.4768   23.0435 C.ar    1  UNL1        0.4171
     14 O           6.7141   -3.1119   24.4882 O.2     1  UNL1       -0.3888
     15 O           6.6706   -2.5653   21.8720 O.3     1  UNL1       -0.4363
     16 C           5.8364   -3.0205   20.7115 C.3     1  UNL1        0.1734
     17 C           4.6395   -3.8939   20.9451 C.3     1  UNL1        0.0608
     18 C           3.8052   -4.3491   19.7847 C.3     1  UNL1        0.0723
     19 N           4.1678   -3.9309   18.3905 N.3     1  UNL1       -0.2973
     20 C           5.3647   -3.0575   18.1569 C.3     1  UNL1        0.0723
     21 C           6.1990   -2.6023   19.3174 C.3     1  UNL1        0.0608
     22 H           3.3616   -3.4327   18.0135 H       1  UNL1        0.1233
     23 C           8.2490   -1.0510   27.2409 C.3     1  UNL1        0.0047
     24 C           6.9521   -1.7930   27.3735 C.3     1  UNL1        0.0241
     25 C           5.6539   -1.0850   27.1222 C.3     1  UNL1        0.0047
     26 N           6.8571   -1.6103   30.5762 N.pl3   1  UNL1       -0.2949
     27 H           7.5799   -1.0869   30.1607 H       1  UNL1        0.1537
     28 C           5.7402   -0.9102   31.2921 C.ar    1  UNL1        0.0775
     29 C           4.4822   -0.5569   30.5554 C.ar    1  UNL1        0.0237
     30 C           3.3653    0.1432   31.2712 C.ar    1  UNL1        0.0821
     31 C           3.5064    0.4900   32.7237 C.ar    1  UNL1        0.1468
     32 F           2.3895    1.1902   33.4395 F       1  UNL1       -0.2039
     33 C           4.7643    0.1368   33.4604 C.ar    1  UNL1        0.0607
     34 C           5.8813   -0.5633   32.7446 C.ar    1  UNL1        0.1557
     35 F           7.1392   -0.9166   33.4813 F       1  UNL1       -0.2028
     36 C           2.1073    0.4964   30.5345 C.2     1  UNL1        0.2480
     37 O           1.5339    1.8778   30.6489 O.2     1  UNL1       -0.2701
     38 N           1.4228   -0.5316   29.6833 N.am    1  UNL1       -0.3024
     39 H           1.7991   -1.4383   29.6082 H       1  UNL1        0.1497
     40 C           0.1648   -0.1784   28.9467 C.3     1  UNL1        0.0720
     41 C          -0.5340    0.5853   27.8612 C.3     1  UNL1        0.0213
     42 C          -1.3152   -0.3304   28.7562 C.3     1  UNL1        0.0213
@<TRIPOS>BOND
     1    23    24    1
     2    24    25    1
     3    24     1    1
     4     1     2   ar
     5     2    10    1
     6    10    11   ar
     7    11    12   ar
     8    12    13   ar
     9    13    15    1
    10    15    16    1
    11    16    17    1
    12    17    18    1
    13    18    19    1
    14    19    20    1
    15    20    21    1
    16    13    14   ar
    17     2     3   ar
    18     3     4   ar
    19     4     5   ar
    20     5     6   ar
    21     6     7   ar
    22     7     8   ar
    23     8    26    1
    24    26    28    1
    25    28    29   ar
    26    29    30   ar
    27    30    36    1
    28    36    37    2
    29    36    38   am
    30    38    40    1
    31    40    41    1
    32    41    42    1
    33    30    31   ar
    34    31    32    1
    35    31    33   ar
    36    33    34   ar
    37    34    35    1
    38     8     9   ar
    39     9     1   ar
    40    14    10   ar
    41     9     4   ar
    42    21    16    1
    43    34    28   ar
    44    42    40    1
    45    19    22    1
    46    26    27    1
    47    38    39    1
@<TRIPOS>MOLECULE
*****
 42 47 0 0 0
SMALL
GASTEIGER

@<TRIPOS>ATOM
      1 C           6.5542   -3.0358   25.9041 C.ar    1  UNL1        0.0040
      2 C           6.5310   -4.0708   24.8186 C.ar    1  UNL1        0.0719
      3 C           6.8498   -5.3992   25.4380 C.ar    1  UNL1        0.1049
      4 N           7.0700   -5.1852   26.9063 N.ar    1  UNL1       -0.2242
      5 N           7.4133   -6.1317   28.0181 N.ar    1  UNL1       -0.1422
      6 C           7.5740   -5.6175   29.4180 C.ar    1  UNL1        0.2211
      7 N           7.3913   -4.1568   29.7060 N.ar    1  UNL1       -0.2060
      8 C           7.0480   -3.2103   28.5942 C.ar    1  UNL1        0.1515
      9 C           6.8874   -3.7245   27.1943 C.ar    1  UNL1        0.1107
     10 C           6.2400   -3.8212   23.3684 C.ar    1  UNL1        0.2543
     11 N           7.2362   -3.4000   22.3291 N.ar    1  UNL1       -0.1042
     12 N           6.5137   -3.2675   21.0213 N.ar    1  UNL1       -0.0714
     13 C           5.0710   -3.6068   21.2523 C.ar    1  UNL1        0.4171
     14 O           4.9019   -3.9490   22.7029 O.2     1  UNL1       -0.3888
     15 O           3.9875   -3.6043   20.2149 O.3     1  UNL1       -0.4363
     16 C           3.6835   -2.3497   19.4509 C.3     1  UNL1        0.1734
     17 C           2.6799   -1.3711   19.9848 C.3     1  UNL1        0.0608
     18 C           2.3759   -0.1166   19.2208 C.3     1  UNL1        0.0723
     19 N           3.0755    0.1593   17.9229 N.3     1  UNL1       -0.2973
     20 C           4.0791   -0.8194   17.3891 C.3     1  UNL1        0.0723
     21 C           4.3831   -2.0739   18.1531 C.3     1  UNL1        0.0608
     22 H           3.5620    1.0489   18.0340 H       1  UNL1        0.1233
     23 C           4.8929   -1.0388   25.8536 C.3     1  UNL1        0.0047
     24 C           6.2905   -1.5694   25.7299 C.3     1  UNL1        0.0241
     25 C           7.4243   -0.6337   25.4321 C.3     1  UNL1        0.0047
     26 N           6.8653   -1.7496   28.8822 N.pl3   1  UNL1       -0.2949
     27 H           7.3625   -1.0790   28.3604 H       1  UNL1        0.1537
     28 C           5.9250   -1.3106   29.9653 C.ar    1  UNL1        0.0775
     29 C           4.5271   -0.8901   29.6200 C.ar    1  UNL1        0.0237
     30 C           3.5868   -0.4511   30.7031 C.ar    1  UNL1        0.0821
     31 C           4.0443   -0.4326   32.1315 C.ar    1  UNL1        0.1468
     32 F           3.1040    0.0064   33.2146 F       1  UNL1       -0.2039
     33 C           5.4421   -0.8530   32.4768 C.ar    1  UNL1        0.0607
     34 C           6.3825   -1.2921   31.3937 C.ar    1  UNL1        0.1557
     35 F           7.7803   -1.7125   31.7390 F       1  UNL1       -0.2028
     36 C           2.1889   -0.0307   30.3578 C.2     1  UNL1        0.2480
     37 O           1.4967    1.0173   31.1779 O.2     1  UNL1       -0.2701
     38 N           1.4832   -0.6582   29.1924 N.am    1  UNL1       -0.3024
     39 H           1.9375   -1.3461   28.6541 H       1  UNL1        0.1497
     40 C           0.0854   -0.2378   28.8471 C.3     1  UNL1        0.0720
     41 C          -1.3931   -0.4882   28.8844 C.3     1  UNL1        0.0213
     42 C          -0.8573    0.7407   28.2117 C.3     1  UNL1        0.0213
@<TRIPOS>BOND
     1    23    24    1
     2    24    25    1
     3    24     1    1
     4     1     2   ar
     5     2    10    1
     6    10    11   ar
     7    11    12   ar
     8    12    13   ar
     9    13    15    1
    10    15    16    1
    11    16    17    1
    12    17    18    1
    13    18    19    1
    14    19    20    1
    15    20    21    1
    16    13    14   ar
    17     2     3   ar
    18     3     4   ar
    19     4     5   ar
    20     5     6   ar
    21     6     7   ar
    22     7     8   ar
    23     8    26    1
    24    26    28    1
    25    28    29   ar
    26    29    30   ar
    27    30    36    1
    28    36    37    2
    29    36    38   am
    30    38    40    1
    31    40    41    1
    32    41    42    1
    33    30    31   ar
    34    31    32    1
    35    31    33   ar
    36    33    34   ar
    37    34    35    1
    38     8     9   ar
    39     9     1   ar
    40    14    10   ar
    41     9     4   ar
    42    21    16    1
    43    34    28   ar
    44    42    40    1
    45    19    22    1
    46    26    27    1
    47    38    39    1
@<TRIPOS>MOLECULE
*****
 42 47 0 0 0
SMALL
GASTEIGER

@<TRIPOS>ATOM
      1 C           4.5246   -1.2525   22.3471 C.ar    1  UNL1        0.0040
      2 C           3.1727   -0.6577   22.0857 C.ar    1  UNL1        0.0719
      3 C           2.5575   -1.3938   20.9327 C.ar    1  UNL1        0.1049
      4 N           3.5293   -2.4437   20.4814 N.ar    1  UNL1       -0.2242
      5 N           3.4642   -3.4678   19.3875 N.ar    1  UNL1       -0.1422
      6 C           4.6148   -4.4046   19.1677 C.ar    1  UNL1        0.2211
      7 N           5.8306   -4.3173   20.0420 N.ar    1  UNL1       -0.2060
      8 C           5.8957   -3.2931   21.1359 C.ar    1  UNL1        0.1515
      9 C           4.7451   -2.3563   21.3557 C.ar    1  UNL1        0.1107
     10 C           2.5459    0.4745   22.8442 C.ar    1  UNL1        0.2543
     11 N           1.9600    1.7190   22.2460 N.ar    1  UNL1       -0.1042
     12 N           1.4470    2.5747   23.3662 N.ar    1  UNL1       -0.0714
     13 C           1.7159    1.8590   24.6567 C.ar    1  UNL1        0.4171
     14 O           2.3951    0.5611   24.3341 O.2     1  UNL1       -0.3888
     15 O           1.3669    2.3543   26.0289 O.3     1  UNL1       -0.4363
     16 C           0.9453    1.3836   27.0919 C.3     1  UNL1        0.1734
     17 C           1.9809    0.6305   27.8732 C.3     1  UNL1        0.0608
     18 C           1.5593   -0.3402   28.9362 C.3     1  UNL1        0.0723
     19 N           0.1022   -0.5578   29.2179 N.3     1  UNL1       -0.2973
     20 C          -0.9334    0.1953   28.4366 C.3     1  UNL1        0.0723
     21 C          -0.5118    1.1660   27.3736 C.3     1  UNL1        0.0608
     22 H          -0.0453   -0.3276   30.2006 H       1  UNL1        0.1233
     23 C           5.4425   -1.4595   24.7690 C.3     1  UNL1        0.0047
     24 C           5.4873   -0.8195   23.4130 C.3     1  UNL1        0.0241
     25 C           6.4947    0.2532   23.1229 C.3     1  UNL1        0.0047
     26 N           7.1115   -3.2057   22.0101 N.pl3   1  UNL1       -0.2949
     27 H           7.5590   -2.3394   22.1458 H       1  UNL1        0.1537
     28 C           7.6455   -4.4383   22.6775 C.ar    1  UNL1        0.0775
     29 C           7.3102   -4.7194   24.1123 C.ar    1  UNL1        0.0237
     30 C           7.8442   -5.9520   24.7798 C.ar    1  UNL1        0.0821
     31 C           8.7135   -6.9036   24.0124 C.ar    1  UNL1        0.1468
     32 F           9.2475   -8.1362   24.6799 F       1  UNL1       -0.2039
     33 C           9.0489   -6.6225   22.5777 C.ar    1  UNL1        0.0607
     34 C           8.5149   -5.3899   21.9102 C.ar    1  UNL1        0.1557
     35 F           8.8502   -5.1088   20.4755 F       1  UNL1       -0.2028
     36 C           7.5088   -6.2331   26.2146 C.2     1  UNL1        0.2480
     37 O           6.6657   -7.4221   26.5687 O.2     1  UNL1       -0.2701
     38 N           8.0166   -5.3252   27.2952 N.am    1  UNL1       -0.3024
     39 H           8.5699   -4.5448   27.0628 H       1  UNL1        0.1497
     40 C           7.6813   -5.6063   28.7300 C.3     1  UNL1        0.0720
     41 C           8.0481   -6.2011   30.0572 C.3     1  UNL1        0.0213
     42 C           6.7338   -5.4983   29.8878 C.3     1  UNL1        0.0213
@<TRIPOS>BOND
     1    23    24    1
     2    24    25    1
     3    24     1    1
     4     1     2   ar
     5     2    10    1
     6    10    11   ar
     7    11    12   ar
     8    12    13   ar
     9    13    15    1
    10    15    16    1
    11    16    17    1
    12    17    18    1
    13    18    19    1
    14    19    20    1
    15    20    21    1
    16    13    14   ar
    17     2     3   ar
    18     3     4   ar
    19     4     5   ar
    20     5     6   ar
    21     6     7   ar
    22     7     8   ar
    23     8    26    1
    24    26    28    1
    25    28    29   ar
    26    29    30   ar
    27    30    36    1
    28    36    37    2
    29    36    38   am
    30    38    40    1
    31    40    41    1
    32    41    42    1
    33    30    31   ar
    34    31    32    1
    35    31    33   ar
    36    33    34   ar
    37    34    35    1
    38     8     9   ar
    39     9     1   ar
    40    14    10   ar
    41     9     4   ar
    42    21    16    1
    43    34    28   ar
    44    42    40    1
    45    19    22    1
    46    26    27    1
    47    38    39    1
@<TRIPOS>MOLECULE
*****
 42 47 0 0 0
SMALL
GASTEIGER

@<TRIPOS>ATOM
      1 C           4.5654   -0.3347   27.0546 C.ar    1  UNL1        0.0040
      2 C           3.4854    0.0107   26.0726 C.ar    1  UNL1        0.0719
      3 C           2.2837    0.4659   26.8464 C.ar    1  UNL1        0.1049
      4 N           2.6210    0.4017   28.3066 N.ar    1  UNL1       -0.2242
      5 N           1.8263    0.7300   29.5357 N.ar    1  UNL1       -0.1422
      6 C           2.4418    0.5634   30.8934 C.ar    1  UNL1        0.2211
      7 N           3.8520    0.0686   31.0220 N.ar    1  UNL1       -0.2060
      8 C           4.6467   -0.2596   29.7930 C.ar    1  UNL1        0.1515
      9 C           4.0312   -0.0931   28.4353 C.ar    1  UNL1        0.1107
     10 C           3.5889   -0.0826   24.5791 C.ar    1  UNL1        0.2543
     11 N           4.7608    0.3481   23.7479 N.ar    1  UNL1       -0.1042
     12 N           4.4349    0.0739   22.3096 N.ar    1  UNL1       -0.0714
     13 C           3.0614   -0.5263   22.2520 C.ar    1  UNL1        0.4171
     14 O           2.5386   -0.6231   23.6546 O.2     1  UNL1       -0.3888
     15 O           2.3378   -0.9547   21.0098 O.3     1  UNL1       -0.4363
     16 C           3.1134   -1.3356   19.7837 C.3     1  UNL1        0.1734
     17 C           3.9066   -2.6085   19.7633 C.3     1  UNL1        0.0608
     18 C           4.6821   -2.9895   18.5372 C.3     1  UNL1        0.0723
     19 N           4.6644   -2.0974   17.3314 N.3     1  UNL1       -0.2973
     20 C           3.8713   -0.8245   17.3518 C.3     1  UNL1        0.0723
     21 C           3.0957   -0.4436   18.5779 C.3     1  UNL1        0.0608
     22 H           4.3051   -2.6559   16.5572 H       1  UNL1        0.1233
     23 C           6.1342   -2.2587   26.2882 C.3     1  UNL1        0.0047
     24 C           5.9386   -0.8341   26.7154 C.3     1  UNL1        0.0241
     25 C           7.1160    0.0908   26.8034 C.3     1  UNL1        0.0047
     26 N           6.0569   -0.7544   29.9216 N.pl3   1  UNL1       -0.2949
     27 H           6.8084   -0.1704   29.6698 H       1  UNL1        0.1537
     28 C           6.3221   -2.1390   30.4339 C.ar    1  UNL1        0.0775
     29 C           6.8185   -3.2023   29.4993 C.ar    1  UNL1        0.0237
     30 C           7.0837   -4.5869   30.0116 C.ar    1  UNL1        0.0821
     31 C           6.8526   -4.9084   31.4584 C.ar    1  UNL1        0.1468
     32 F           7.1178   -6.2931   31.9706 F       1  UNL1       -0.2039
     33 C           6.3562   -3.8453   32.3929 C.ar    1  UNL1        0.0607
     34 C           6.0910   -2.4605   31.8807 C.ar    1  UNL1        0.1557
     35 F           5.5946   -1.3974   32.8152 F       1  UNL1       -0.2028
     36 C           7.5800   -5.6501   29.0770 C.2     1  UNL1        0.2480
     37 O           8.8465   -6.3909   29.3887 O.2     1  UNL1       -0.2701
     38 N           6.8099   -5.9723   27.8308 N.am    1  UNL1       -0.3024
     39 H           5.9787   -5.4860   27.6263 H       1  UNL1        0.1497
     40 C           7.3062   -7.0355   26.8963 C.3     1  UNL1        0.0720
     41 C           7.7832   -8.4378   26.6599 C.3     1  UNL1        0.0213
     42 C           7.6888   -7.4746   25.5140 C.3     1  UNL1        0.0213
@<TRIPOS>BOND
     1    23    24    1
     2    24    25    1
     3    24     1    1
     4     1     2   ar
     5     2    10    1
     6    10    11   ar
     7    11    12   ar
     8    12    13   ar
     9    13    15    1
    10    15    16    1
    11    16    17    1
    12    17    18    1
    13    18    19    1
    14    19    20    1
    15    20    21    1
    16    13    14   ar
    17     2     3   ar
    18     3     4   ar
    19     4     5   ar
    20     5     6   ar
    21     6     7   ar
    22     7     8   ar
    23     8    26    1
    24    26    28    1
    25    28    29   ar
    26    29    30   ar
    27    30    36    1
    28    36    37    2
    29    36    38   am
    30    38    40    1
    31    40    41    1
    32    41    42    1
    33    30    31   ar
    34    31    32    1
    35    31    33   ar
    36    33    34   ar
    37    34    35    1
    38     8     9   ar
    39     9     1   ar
    40    14    10   ar
    41     9     4   ar
    42    21    16    1
    43    34    28   ar
    44    42    40    1
    45    19    22    1
    46    26    27    1
    47    38    39    1
@<TRIPOS>MOLECULE
*****
 42 47 0 0 0
SMALL
GASTEIGER

@<TRIPOS>ATOM
      1 C           3.0907    0.6766   19.6456 C.ar    1  UNL1        0.0040
      2 C           3.0931    1.9711   18.8878 C.ar    1  UNL1        0.0719
      3 C           4.3274    2.0074   18.0363 C.ar    1  UNL1        0.1049
      4 N           5.0879    0.7353   18.2679 N.ar    1  UNL1       -0.2242
      5 N           6.3776    0.2197   17.7015 N.ar    1  UNL1       -0.1422
      6 C           6.9030   -1.1183   18.1299 C.ar    1  UNL1        0.2211
      7 N           6.1386   -1.9408   19.1245 N.ar    1  UNL1       -0.2060
      8 C           4.8489   -1.4252   19.6908 C.ar    1  UNL1        0.1515
      9 C           4.3236   -0.0871   19.2625 C.ar    1  UNL1        0.1107
     10 C           2.0451    3.0413   18.9675 C.ar    1  UNL1        0.2543
     11 N           2.1120    4.2798   19.8111 N.ar    1  UNL1       -0.1042
     12 N           0.8545    5.0649   19.5826 N.ar    1  UNL1       -0.0714
     13 C           0.0104    4.3117   18.5976 C.ar    1  UNL1        0.4171
     14 O           0.7462    3.0610   18.2175 O.2     1  UNL1       -0.3888
     15 O          -1.3336    4.7348   18.0831 O.3     1  UNL1       -0.4363
     16 C          -2.5825    4.1938   18.7139 C.3     1  UNL1        0.1734
     17 C          -3.8701    4.1898   17.9445 C.3     1  UNL1        0.0608
     18 C          -5.1189    3.6488   18.5752 C.3     1  UNL1        0.0723
     19 N          -5.0800    3.1118   19.9752 N.3     1  UNL1       -0.2973
     20 C          -3.7924    3.1158   20.7445 C.3     1  UNL1        0.0723
     21 C          -2.5436    3.6568   20.1138 C.3     1  UNL1        0.0608
     22 H          -5.3914    2.1417   19.9272 H       1  UNL1        0.1233
     23 C           0.9905   -0.7555   20.1831 C.3     1  UNL1        0.0047
     24 C           2.0399    0.2251   20.6162 C.3     1  UNL1        0.0241
     25 C           2.0384    0.7540   22.0198 C.3     1  UNL1        0.0047
     26 N           4.0846   -2.2477   20.6855 N.pl3   1  UNL1       -0.2949
     27 H           3.2196   -2.6453   20.4344 H       1  UNL1        0.1537
     28 C           4.6380   -2.4644   22.0626 C.ar    1  UNL1        0.0775
     29 C           4.1191   -1.6566   23.2152 C.ar    1  UNL1        0.0237
     30 C           4.6726   -1.8733   24.5924 C.ar    1  UNL1        0.0821
     31 C           5.7449   -2.8978   24.8171 C.ar    1  UNL1        0.1468
     32 F           6.2984   -3.1145   26.1944 F       1  UNL1       -0.2039
     33 C           6.2638   -3.7055   23.6646 C.ar    1  UNL1        0.0607
     34 C           5.7104   -3.4889   22.2874 C.ar    1  UNL1        0.1557
     35 F           6.2293   -4.2966   21.1349 F       1  UNL1       -0.2028
     36 C           4.1537   -1.0655   25.7449 C.2     1  UNL1        0.2480
     37 O           4.2877    0.4284   25.7343 O.2     1  UNL1       -0.2701
     38 N           3.5007   -1.7517   26.9080 N.am    1  UNL1       -0.3024
     39 H           3.4128   -2.7323   26.9149 H       1  UNL1        0.1497
     40 C           2.9819   -0.9440   28.0605 C.3     1  UNL1        0.0720
     41 C           1.8303   -0.3532   28.8186 C.3     1  UNL1        0.0213
     42 C           3.2346   -0.1359   29.2986 C.3     1  UNL1        0.0213
@<TRIPOS>BOND
     1    23    24    1
     2    24    25    1
     3    24     1    1
     4     1     2   ar
     5     2    10    1
     6    10    11   ar
     7    11    12   ar
     8    12    13   ar
     9    13    15    1
    10    15    16    1
    11    16    17    1
    12    17    18    1
    13    18    19    1
    14    19    20    1
    15    20    21    1
    16    13    14   ar
    17     2     3   ar
    18     3     4   ar
    19     4     5   ar
    20     5     6   ar
    21     6     7   ar
    22     7     8   ar
    23     8    26    1
    24    26    28    1
    25    28    29   ar
    26    29    30   ar
    27    30    36    1
    28    36    37    2
    29    36    38   am
    30    38    40    1
    31    40    41    1
    32    41    42    1
    33    30    31   ar
    34    31    32    1
    35    31    33   ar
    36    33    34   ar
    37    34    35    1
    38     8     9   ar
    39     9     1   ar
    40    14    10   ar
    41     9     4   ar
    42    21    16    1
    43    34    28   ar
    44    42    40    1
    45    19    22    1
    46    26    27    1
    47    38    39    1
@<TRIPOS>MOLECULE
*****
 42 47 0 0 0
SMALL
GASTEIGER

@<TRIPOS>ATOM
      1 C           3.2903    0.0444   29.6264 C.ar    1  UNL1        0.0040
      2 C           3.7169    0.2614   31.0480 C.ar    1  UNL1        0.0719
      3 C           4.9480   -0.5598   31.2929 C.ar    1  UNL1        0.1049
      4 N           5.2822   -1.2843   30.0227 N.ar    1  UNL1       -0.2242
      5 N           6.3872   -2.2358   29.6709 N.ar    1  UNL1       -0.1422
      6 C           6.4675   -2.8138   28.2891 C.ar    1  UNL1        0.2211
      7 N           5.4430   -2.4403   27.2591 N.ar    1  UNL1       -0.2060
      8 C           4.3381   -1.4888   27.6109 C.ar    1  UNL1        0.1515
      9 C           4.2577   -0.9108   28.9927 C.ar    1  UNL1        0.1107
     10 C           3.0325    1.1444   32.0489 C.ar    1  UNL1        0.2543
     11 N           1.5754    1.5003   32.0600 N.ar    1  UNL1       -0.1042
     12 N           1.3274    2.4025   33.2325 N.ar    1  UNL1       -0.0714
     13 C           2.6314    2.6042   33.9460 C.ar    1  UNL1        0.4171
     14 O           3.6851    1.8267   33.2145 O.2     1  UNL1       -0.3888
     15 O           2.8442    3.4372   35.1752 O.3     1  UNL1       -0.4363
     16 C           2.8416    2.7909   36.5288 C.3     1  UNL1        0.1734
     17 C           3.7002    1.5885   36.7875 C.3     1  UNL1        0.0608
     18 C           3.6977    0.9423   38.1411 C.3     1  UNL1        0.0723
     19 N           2.8365    1.4985   39.2361 N.3     1  UNL1       -0.2973
     20 C           1.9779    2.7009   38.9774 C.3     1  UNL1        0.0723
     21 C           1.9804    3.3472   37.6237 C.3     1  UNL1        0.0608
     22 H           3.4597    1.7418   40.0060 H       1  UNL1        0.1233
     23 C           2.2059    2.0620   28.4001 C.3     1  UNL1        0.0047
     24 C           2.1044    0.6725   28.9561 C.3     1  UNL1        0.0241
     25 C           0.8171   -0.0888   28.8418 C.3     1  UNL1        0.0047
     26 N           3.3135   -1.1154   26.5810 N.pl3   1  UNL1       -0.2949
     27 H           2.3546   -1.1983   26.7879 H       1  UNL1        0.1537
     28 C           3.7500   -0.6156   25.2357 C.ar    1  UNL1        0.0775
     29 C           3.5398   -1.4634   24.0162 C.ar    1  UNL1        0.0237
     30 C           3.9763   -0.9636   22.6710 C.ar    1  UNL1        0.0821
     31 C           4.6230    0.3839   22.5452 C.ar    1  UNL1        0.1468
     32 F           5.0594    0.8837   21.1999 F       1  UNL1       -0.2039
     33 C           4.8332    1.2317   23.7646 C.ar    1  UNL1        0.0607
     34 C           4.3967    0.7320   25.1099 C.ar    1  UNL1        0.1557
     35 F           4.6069    1.5798   26.3293 F       1  UNL1       -0.2028
     36 C           3.7660   -1.8114   21.4515 C.2     1  UNL1        0.2480
     37 O           2.8547   -1.3391   20.3577 O.2     1  UNL1       -0.2701
     38 N           4.4672   -3.1315   21.3259 N.am    1  UNL1       -0.3024
     39 H           5.0653   -3.4415   22.0438 H       1  UNL1        0.1497
     40 C           4.2570   -3.9793   20.1065 C.3     1  UNL1        0.0720
     41 C           4.6973   -4.4278   18.7445 C.3     1  UNL1        0.0213
     42 C           3.4527   -4.9993   19.3563 C.3     1  UNL1        0.0213
@<TRIPOS>BOND
     1    23    24    1
     2    24    25    1
     3    24     1    1
     4     1     2   ar
     5     2    10    1
     6    10    11   ar
     7    11    12   ar
     8    12    13   ar
     9    13    15    1
    10    15    16    1
    11    16    17    1
    12    17    18    1
    13    18    19    1
    14    19    20    1
    15    20    21    1
    16    13    14   ar
    17     2     3   ar
    18     3     4   ar
    19     4     5   ar
    20     5     6   ar
    21     6     7   ar
    22     7     8   ar
    23     8    26    1
    24    26    28    1
    25    28    29   ar
    26    29    30   ar
    27    30    36    1
    28    36    37    2
    29    36    38   am
    30    38    40    1
    31    40    41    1
    32    41    42    1
    33    30    31   ar
    34    31    32    1
    35    31    33   ar
    36    33    34   ar
    37    34    35    1
    38     8     9   ar
    39     9     1   ar
    40    14    10   ar
    41     9     4   ar
    42    21    16    1
    43    34    28   ar
    44    42    40    1
    45    19    22    1
    46    26    27    1
    47    38    39    1
@<TRIPOS>MOLECULE
*****
 42 47 0 0 0
SMALL
GASTEIGER

@<TRIPOS>ATOM
      1 C           6.4506   -3.0848   27.8728 C.ar    1  UNL1        0.0040
      2 C           6.9007   -3.9619   26.7423 C.ar    1  UNL1        0.0719
      3 C           7.4016   -5.2497   27.3260 C.ar    1  UNL1        0.1049
      4 N           7.2610   -5.1685   28.8172 N.ar    1  UNL1       -0.2242
      5 N           7.5922   -6.1400   29.9110 N.ar    1  UNL1       -0.1422
      6 C           7.3357   -5.7735   31.3427 C.ar    1  UNL1        0.2211
      7 N           6.7480   -4.4354   31.6806 N.ar    1  UNL1       -0.2060
      8 C           6.4167   -3.4639   30.5868 C.ar    1  UNL1        0.1515
      9 C           6.6732   -3.8304   29.1551 C.ar    1  UNL1        0.1107
     10 C           6.8576   -3.6126   25.2842 C.ar    1  UNL1        0.2543
     11 N           7.3303   -2.3280   24.6709 N.ar    1  UNL1       -0.1042
     12 N           7.0991   -2.4080   23.1910 N.ar    1  UNL1       -0.0714
     13 C           6.4834   -3.7422   22.8896 C.ar    1  UNL1        0.4171
     14 O           6.3342   -4.4867   24.1833 O.2     1  UNL1       -0.3888
     15 O           6.0866   -4.2439   21.5328 O.3     1  UNL1       -0.4363
     16 C           5.2730   -3.3748   20.6202 C.3     1  UNL1        0.1734
     17 C           4.1148   -2.5926   21.1649 C.3     1  UNL1        0.0608
     18 C           3.3013   -1.7236   20.2524 C.3     1  UNL1        0.0723
     19 N           3.6459   -1.6367   18.7951 N.3     1  UNL1       -0.2973
     20 C           4.8041   -2.4189   18.2504 C.3     1  UNL1        0.0723
     21 C           5.6177   -3.2880   19.1630 C.3     1  UNL1        0.0608
     22 H           3.8339   -0.6543   18.5950 H       1  UNL1        0.1233
     23 C           6.7862   -0.5104   27.7702 C.3     1  UNL1        0.0047
     24 C           5.8783   -1.7043   27.7436 C.3     1  UNL1        0.0241
     25 C           4.3982   -1.5175   27.5878 C.3     1  UNL1        0.0047
     26 N           5.8290   -2.1259   30.9247 N.pl3   1  UNL1       -0.2949
     27 H           5.0288   -1.8054   30.4491 H       1  UNL1        0.1537
     28 C           6.4604   -1.2761   31.9874 C.ar    1  UNL1        0.0775
     29 C           5.7127   -0.9801   33.2537 C.ar    1  UNL1        0.0237
     30 C           6.3441   -0.1303   34.3163 C.ar    1  UNL1        0.0821
     31 C           7.7231    0.4235   34.1127 C.ar    1  UNL1        0.1468
     32 F           8.3545    1.2733   35.1754 F       1  UNL1       -0.2039
     33 C           8.4708    0.1275   32.8465 C.ar    1  UNL1        0.0607
     34 C           7.8394   -0.7223   31.7838 C.ar    1  UNL1        0.1557
     35 F           8.5871   -1.0182   30.5175 F       1  UNL1       -0.2028
     36 C           5.5964    0.1656   35.5826 C.2     1  UNL1        0.2480
     37 O           5.9918   -0.5095   36.8623 O.2     1  UNL1       -0.2701
     38 N           4.4533    1.1368   35.5691 N.am    1  UNL1       -0.3024
     39 H           4.1938    1.5800   34.7291 H       1  UNL1        0.1497
     40 C           3.7056    1.4328   36.8353 C.3     1  UNL1        0.0720
     41 C           3.0910    0.9641   38.1207 C.3     1  UNL1        0.0213
     42 C           3.0253    2.4142   37.7430 C.3     1  UNL1        0.0213
@<TRIPOS>BOND
     1    23    24    1
     2    24    25    1
     3    24     1    1
     4     1     2   ar
     5     2    10    1
     6    10    11   ar
     7    11    12   ar
     8    12    13   ar
     9    13    15    1
    10    15    16    1
    11    16    17    1
    12    17    18    1
    13    18    19    1
    14    19    20    1
    15    20    21    1
    16    13    14   ar
    17     2     3   ar
    18     3     4   ar
    19     4     5   ar
    20     5     6   ar
    21     6     7   ar
    22     7     8   ar
    23     8    26    1
    24    26    28    1
    25    28    29   ar
    26    29    30   ar
    27    30    36    1
    28    36    37    2
    29    36    38   am
    30    38    40    1
    31    40    41    1
    32    41    42    1
    33    30    31   ar
    34    31    32    1
    35    31    33   ar
    36    33    34   ar
    37    34    35    1
    38     8     9   ar
    39     9     1   ar
    40    14    10   ar
    41     9     4   ar
    42    21    16    1
    43    34    28   ar
    44    42    40    1
    45    19    22    1
    46    26    27    1
    47    38    39    1
@<TRIPOS>MOLECULE
*****
 42 47 0 0 0
SMALL
GASTEIGER

@<TRIPOS>ATOM
      1 C           0.9930    3.3038   22.4812 C.ar    1  UNL1        0.0040
      2 C          -0.3057    3.1311   23.2117 C.ar    1  UNL1        0.0719
      3 C          -1.4166    3.2092   22.2069 C.ar    1  UNL1        0.1049
      4 N          -0.8046    3.4303   20.8554 N.ar    1  UNL1       -0.2242
      5 N          -1.4109    3.5858   19.4923 N.ar    1  UNL1       -0.1422
      6 C          -0.5280    3.7999   18.2987 C.ar    1  UNL1        0.2211
      7 N           0.9612    3.8584   18.4683 N.ar    1  UNL1       -0.2060
      8 C           1.5676    3.7028   19.8314 C.ar    1  UNL1        0.1515
      9 C           0.6847    3.4887   21.0249 C.ar    1  UNL1        0.1107
     10 C          -0.4654    2.9177   24.6878 C.ar    1  UNL1        0.2543
     11 N          -0.5705    3.9934   25.7280 N.ar    1  UNL1       -0.1042
     12 N          -0.7180    3.3316   27.0660 N.ar    1  UNL1       -0.0714
     13 C          -0.7042    1.8469   26.8528 C.ar    1  UNL1        0.4171
     14 O          -0.5480    1.5911   25.3831 O.2     1  UNL1       -0.3888
     15 O          -0.8252    0.8015   27.9217 O.3     1  UNL1       -0.4363
     16 C           0.2071    0.7151   29.0066 C.3     1  UNL1        0.1734
     17 C           0.2130    1.7222   30.1182 C.3     1  UNL1        0.0608
     18 C           1.2452    1.6358   31.2030 C.3     1  UNL1        0.0723
     19 N           2.2716    0.5422   31.1763 N.3     1  UNL1       -0.2973
     20 C           2.2657   -0.4649   30.0647 C.3     1  UNL1        0.0723
     21 C           1.2334   -0.3784   28.9798 C.3     1  UNL1        0.0608
     22 H           2.1688    0.0206   32.0468 H       1  UNL1        0.1233
     23 C           3.1444    2.0165   23.1626 C.3     1  UNL1        0.0047
     24 C           2.3600    3.2935   23.0986 C.3     1  UNL1        0.0241
     25 C           2.9427    4.5601   23.6519 C.3     1  UNL1        0.0047
     26 N           3.0568    3.7613   20.0009 N.pl3   1  UNL1       -0.2949
     27 H           3.4513    4.3428   20.6905 H       1  UNL1        0.1537
     28 C           3.9450    2.9338   19.1199 C.ar    1  UNL1        0.0775
     29 C           3.7037    1.4595   18.9843 C.ar    1  UNL1        0.0237
     30 C           4.5919    0.6320   18.1033 C.ar    1  UNL1        0.0821
     31 C           5.7215    1.2787   17.3578 C.ar    1  UNL1        0.1468
     32 F           6.6098    0.4512   16.4767 F       1  UNL1       -0.2039
     33 C           5.9629    2.7529   17.4933 C.ar    1  UNL1        0.0607
     34 C           5.0746    3.5805   18.3744 C.ar    1  UNL1        0.1557
     35 F           5.3160    5.0547   18.5099 F       1  UNL1       -0.2028
     36 C           4.3506   -0.8423   17.9677 C.2     1  UNL1        0.2480
     37 O           4.0493   -1.4323   16.6220 O.2     1  UNL1       -0.2701
     38 N           4.4105   -1.7264   19.1780 N.am    1  UNL1       -0.3024
     39 H           4.6083   -1.3392   20.0612 H       1  UNL1        0.1497
     40 C           4.1692   -3.2007   19.0425 C.3     1  UNL1        0.0720
     41 C           4.6745   -4.5753   18.7185 C.3     1  UNL1        0.0213
     42 C           3.2460   -4.3795   19.1317 C.3     1  UNL1        0.0213
@<TRIPOS>BOND
     1    23    24    1
     2    24    25    1
     3    24     1    1
     4     1     2   ar
     5     2    10    1
     6    10    11   ar
     7    11    12   ar
     8    12    13   ar
     9    13    15    1
    10    15    16    1
    11    16    17    1
    12    17    18    1
    13    18    19    1
    14    19    20    1
    15    20    21    1
    16    13    14   ar
    17     2     3   ar
    18     3     4   ar
    19     4     5   ar
    20     5     6   ar
    21     6     7   ar
    22     7     8   ar
    23     8    26    1
    24    26    28    1
    25    28    29   ar
    26    29    30   ar
    27    30    36    1
    28    36    37    2
    29    36    38   am
    30    38    40    1
    31    40    41    1
    32    41    42    1
    33    30    31   ar
    34    31    32    1
    35    31    33   ar
    36    33    34   ar
    37    34    35    1
    38     8     9   ar
    39     9     1   ar
    40    14    10   ar
    41     9     4   ar
    42    21    16    1
    43    34    28   ar
    44    42    40    1
    45    19    22    1
    46    26    27    1
    47    38    39    1
@<TRIPOS>MOLECULE
*****
 42 47 0 0 0
SMALL
GASTEIGER

@<TRIPOS>ATOM
      1 C           2.6959    1.6209   31.1381 C.ar    1  UNL1        0.0040
      2 C           2.0287    0.5290   30.3554 C.ar    1  UNL1        0.0719
      3 C           2.8124   -0.7335   30.5603 C.ar    1  UNL1        0.1049
      4 N           3.9639   -0.4219   31.4696 N.ar    1  UNL1       -0.2242
      5 N           5.0687   -1.2751   32.0185 N.ar    1  UNL1       -0.1422
      6 C           6.1016   -0.6732   32.9245 C.ar    1  UNL1        0.2211
      7 N           6.0296    0.7818   33.2817 N.ar    1  UNL1       -0.2060
      8 C           4.9248    1.6351   32.7327 C.ar    1  UNL1        0.1515
      9 C           3.8920    1.0332   31.8267 C.ar    1  UNL1        0.1107
     10 C           0.7945    0.6741   29.5154 C.ar    1  UNL1        0.2543
     11 N          -0.4026   -0.2294   29.5436 N.ar    1  UNL1       -0.1042
     12 N          -1.3963    0.2863   28.5453 N.ar    1  UNL1       -0.0714
     13 C          -0.8134    1.5086   27.9001 C.ar    1  UNL1        0.4171
     14 O           0.5406    1.7483   28.4996 O.2     1  UNL1       -0.3888
     15 O          -1.4692    2.3445   26.8412 O.3     1  UNL1       -0.4363
     16 C          -0.9343    2.3349   25.4399 C.3     1  UNL1        0.1734
     17 C          -1.4456    3.3244   24.4352 C.3     1  UNL1        0.0608
     18 C          -0.9107    3.3149   23.0339 C.3     1  UNL1        0.0723
     19 N           0.1355    2.3158   22.6372 N.3     1  UNL1       -0.2973
     20 C           0.6468    1.3264   23.6419 C.3     1  UNL1        0.0723
     21 C           0.1118    1.3359   25.0433 C.3     1  UNL1        0.0608
     22 H           0.9422    2.8480   22.3112 H       1  UNL1        0.1233
     23 C           1.2899    3.4758   32.2926 C.3     1  UNL1        0.0047
     24 C           2.2461    3.0496   31.2182 C.3     1  UNL1        0.0241
     25 C           2.7524    4.0522   30.2241 C.3     1  UNL1        0.0047
     26 N           4.8529    3.0902   33.0899 N.pl3   1  UNL1       -0.2949
     27 H           4.7129    3.7636   32.3855 H       1  UNL1        0.1537
     28 C           4.9942    3.5193   34.5202 C.ar    1  UNL1        0.0775
     29 C           4.2491    2.7905   35.5990 C.ar    1  UNL1        0.0237
     30 C           4.3905    3.2196   37.0293 C.ar    1  UNL1        0.0821
     31 C           5.2769    4.3775   37.3809 C.ar    1  UNL1        0.1468
     32 F           5.4182    4.8065   38.8113 F       1  UNL1       -0.2039
     33 C           6.0220    5.1062   36.3022 C.ar    1  UNL1        0.0607
     34 C           5.8807    4.6771   34.8717 C.ar    1  UNL1        0.1557
     35 F           6.6257    5.4059   33.7930 F       1  UNL1       -0.2028
     36 C           3.6454    2.4908   38.1081 C.2     1  UNL1        0.2480
     37 O           4.2470    2.3562   39.4755 O.2     1  UNL1       -0.2701
     38 N           2.2986    1.8968   37.8195 N.am    1  UNL1       -0.3024
     39 H           1.9037    1.9852   36.9220 H       1  UNL1        0.1497
     40 C           1.5535    1.1680   38.8982 C.3     1  UNL1        0.0720
     41 C           1.1222   -0.1186   39.5374 C.3     1  UNL1        0.0213
     42 C           0.6943    1.1924   40.1275 C.3     1  UNL1        0.0213
@<TRIPOS>BOND
     1    23    24    1
     2    24    25    1
     3    24     1    1
     4     1     2   ar
     5     2    10    1
     6    10    11   ar
     7    11    12   ar
     8    12    13   ar
     9    13    15    1
    10    15    16    1
    11    16    17    1
    12    17    18    1
    13    18    19    1
    14    19    20    1
    15    20    21    1
    16    13    14   ar
    17     2     3   ar
    18     3     4   ar
    19     4     5   ar
    20     5     6   ar
    21     6     7   ar
    22     7     8   ar
    23     8    26    1
    24    26    28    1
    25    28    29   ar
    26    29    30   ar
    27    30    36    1
    28    36    37    2
    29    36    38   am
    30    38    40    1
    31    40    41    1
    32    41    42    1
    33    30    31   ar
    34    31    32    1
    35    31    33   ar
    36    33    34   ar
    37    34    35    1
    38     8     9   ar
    39     9     1   ar
    40    14    10   ar
    41     9     4   ar
    42    21    16    1
    43    34    28   ar
    44    42    40    1
    45    19    22    1
    46    26    27    1
    47    38    39    1
