@<TRIPOS>MOLECULE
*****
 24 26 0 0 0
SMALL
GASTEIGER

@<TRIPOS>ATOM
      1 N          -9.5837  -16.7746   23.1528 N.am    1  UNL1       -0.2752
      2 C          -8.4840  -17.7274   22.7887 C.3     1  UNL1        0.1206
      3 C          -8.5070  -18.4279   21.4625 C.3     1  UNL1        0.1141
      4 C          -8.5300  -19.1283   20.1363 C.3     1  UNL1        0.0463
      5 C          -7.4303  -20.0812   19.7722 C.3     1  UNL1        0.0746
      6 N          -6.3075  -20.3336   20.7343 N.3     1  UNL1       -0.2722
      7 C          -6.2845  -19.6332   22.0605 C.3     1  UNL1        0.0746
      8 C          -7.3842  -18.6803   22.4246 C.3     1  UNL1        0.0463
      9 O          -9.6298  -18.1755   20.5004 O.3     1  UNL1       -0.3501
     10 C         -10.7295  -17.2225   20.8646 C.3     1  UNL1        0.1909
     11 C         -11.8523  -16.9701   19.9025 C.3     1  UNL1        0.0420
     12 C         -10.7065  -16.5221   22.1908 C.2     1  UNL1        0.2529
     13 O         -11.8063  -15.5692   22.5549 O.2     1  UNL1       -0.2722
     14 C          -8.2704  -15.5316   25.0184 C.3     1  UNL1        0.0233
     15 C          -9.5607  -16.0741   24.4791 C.3     1  UNL1        0.0936
     16 C          -5.2077  -21.2865   20.3701 C.3     1  UNL1        0.0768
     17 C          -3.9707  -20.7795   19.6899 C.3     1  UNL1        0.0437
     18 C          -3.3055  -19.5272   20.1791 C.ar    1  UNL1       -0.0206
     19 C          -3.0971  -18.3739   19.2430 C.ar    1  UNL1       -0.0019
     20 C          -2.4319  -17.1216   19.7322 C.ar    1  UNL1        0.0293
     21 C          -1.9751  -17.0227   21.1576 C.ar    1  UNL1        0.1401
     22 F          -1.3099  -15.7704   21.6468 F       1  UNL1       -0.2042
     23 C          -2.1836  -18.1761   22.0937 C.ar    1  UNL1        0.0293
     24 C          -2.8488  -19.4283   21.6045 C.ar    1  UNL1       -0.0019
@<TRIPOS>BOND
     1    14    15    1
     2    15     1    1
     3     1     2    1
     4     2     3    1
     5     3     4    1
     6     4     5    1
     7     5     6    1
     8     6    16    1
     9    16    17    1
    10    17    18    1
    11    18    19   ar
    12    19    20   ar
    13    20    21   ar
    14    21    22    1
    15    21    23   ar
    16    23    24   ar
    17     6     7    1
    18     7     8    1
    19     3     9    1
    20     9    10    1
    21    10    11    1
    22    10    12    1
    23    12    13    2
    24    12     1   am
    25     8     3    1
    26    24    18   ar
@<TRIPOS>MOLECULE
*****
 24 26 0 0 0
SMALL
GASTEIGER

@<TRIPOS>ATOM
      1 N         -11.1370  -17.9327   21.5520 N.am    1  UNL1       -0.2752
      2 C          -9.8886  -18.4586   20.9081 C.3     1  UNL1        0.1206
      3 C          -8.8826  -19.2123   21.7267 C.3     1  UNL1        0.1141
      4 C          -7.8768  -19.9660   22.5453 C.3     1  UNL1        0.0463
      5 C          -6.6283  -20.4919   21.9014 C.3     1  UNL1        0.0746
      6 N          -6.3857  -20.2641   20.4388 N.3     1  UNL1       -0.2722
      7 C          -7.3916  -19.5104   19.6201 C.3     1  UNL1        0.0746
      8 C          -8.6400  -18.9845   20.2641 C.3     1  UNL1        0.0463
      9 O          -9.1253  -19.4401   23.1893 O.3     1  UNL1       -0.3501
     10 C         -10.3738  -18.9142   23.8333 C.3     1  UNL1        0.1909
     11 C         -10.6164  -19.1420   25.2959 C.3     1  UNL1        0.0420
     12 C         -11.3797  -18.1605   23.0146 C.2     1  UNL1        0.2529
     13 O         -12.6282  -17.6346   23.6586 O.2     1  UNL1       -0.2722
     14 C         -11.6883  -16.1086   19.7860 C.3     1  UNL1        0.0233
     15 C         -12.1429  -17.1790   20.7334 C.3     1  UNL1        0.0936
     16 C          -5.1372  -20.7900   19.7948 C.3     1  UNL1        0.0768
     17 C          -3.8243  -20.6925   20.5136 C.3     1  UNL1        0.0437
     18 C          -3.2386  -19.3475   20.8265 C.ar    1  UNL1       -0.0206
     19 C          -3.2360  -18.8406   22.2382 C.ar    1  UNL1       -0.0019
     20 C          -2.6503  -17.4956   22.5511 C.ar    1  UNL1        0.0293
     21 C          -2.0671  -16.6575   21.4522 C.ar    1  UNL1        0.1401
     22 F          -1.4814  -15.3124   21.7651 F       1  UNL1       -0.2042
     23 C          -2.0697  -17.1644   20.0405 C.ar    1  UNL1        0.0293
     24 C          -2.6554  -18.5094   19.7276 C.ar    1  UNL1       -0.0019
@<TRIPOS>BOND
     1    14    15    1
     2    15     1    1
     3     1     2    1
     4     2     3    1
     5     3     4    1
     6     4     5    1
     7     5     6    1
     8     6    16    1
     9    16    17    1
    10    17    18    1
    11    18    19   ar
    12    19    20   ar
    13    20    21   ar
    14    21    22    1
    15    21    23   ar
    16    23    24   ar
    17     6     7    1
    18     7     8    1
    19     3     9    1
    20     9    10    1
    21    10    11    1
    22    10    12    1
    23    12    13    2
    24    12     1   am
    25     8     3    1
    26    24    18   ar
@<TRIPOS>MOLECULE
*****
 24 26 0 0 0
SMALL
GASTEIGER

@<TRIPOS>ATOM
      1 N         -11.7332  -17.6846   23.0754 N.am    1  UNL1       -0.2752
      2 C         -10.3817  -17.3313   23.6216 C.3     1  UNL1        0.1206
      3 C          -9.4370  -16.4995   22.8056 C.3     1  UNL1        0.1141
      4 C          -8.4923  -15.6678   21.9897 C.3     1  UNL1        0.0463
      5 C          -7.1408  -15.3144   22.5359 C.3     1  UNL1        0.0746
      6 N          -6.7339  -15.7928   23.8981 N.3     1  UNL1       -0.2722
      7 C          -7.6785  -16.6245   24.7141 C.3     1  UNL1        0.0746
      8 C          -9.0300  -16.9778   24.1679 C.3     1  UNL1        0.0463
      9 O          -9.8439  -16.0212   21.4434 O.3     1  UNL1       -0.3501
     10 C         -11.1955  -16.3746   20.8972 C.3     1  UNL1        0.1909
     11 C         -11.6024  -15.8963   19.5350 C.3     1  UNL1        0.0420
     12 C         -12.1401  -17.2063   21.7132 C.2     1  UNL1        0.2529
     13 O         -13.4918  -17.5597   21.1670 O.2     1  UNL1       -0.2722
     14 C         -13.9914  -17.9429   24.3339 C.3     1  UNL1        0.0233
     15 C         -12.6779  -18.5164   23.8914 C.3     1  UNL1        0.0936
     16 C          -5.3822  -15.4393   24.4443 C.3     1  UNL1        0.0768
     17 C          -4.2977  -16.4745   24.4901 C.3     1  UNL1        0.0437
     18 C          -3.8438  -17.1417   23.2255 C.ar    1  UNL1       -0.0206
     19 C          -4.5321  -18.3847   22.7447 C.ar    1  UNL1       -0.0019
     20 C          -4.0782  -19.0518   21.4802 C.ar    1  UNL1        0.0293
     21 C          -2.9361  -18.4760   20.6966 C.ar    1  UNL1        0.1401
     22 F          -2.4823  -19.1432   19.4321 F       1  UNL1       -0.2042
     23 C          -2.2479  -17.2330   21.1775 C.ar    1  UNL1        0.0293
     24 C          -2.7018  -16.5659   22.4420 C.ar    1  UNL1       -0.0019
@<TRIPOS>BOND
     1    14    15    1
     2    15     1    1
     3     1     2    1
     4     2     3    1
     5     3     4    1
     6     4     5    1
     7     5     6    1
     8     6    16    1
     9    16    17    1
    10    17    18    1
    11    18    19   ar
    12    19    20   ar
    13    20    21   ar
    14    21    22    1
    15    21    23   ar
    16    23    24   ar
    17     6     7    1
    18     7     8    1
    19     3     9    1
    20     9    10    1
    21    10    11    1
    22    10    12    1
    23    12    13    2
    24    12     1   am
    25     8     3    1
    26    24    18   ar
@<TRIPOS>MOLECULE
*****
 24 26 0 0 0
SMALL
GASTEIGER

@<TRIPOS>ATOM
      1 N          -3.3698  -18.8248   20.4013 N.am    1  UNL1       -0.2752
      2 C          -4.8223  -19.0598   20.1100 C.3     1  UNL1        0.1206
      3 C          -5.8459  -18.8563   21.1876 C.3     1  UNL1        0.1141
      4 C          -6.8693  -18.6528   22.2651 C.3     1  UNL1        0.0463
      5 C          -8.3218  -18.8877   21.9738 C.3     1  UNL1        0.0746
      6 N          -8.7509  -19.3262   20.6050 N.3     1  UNL1       -0.2722
      7 C          -7.7275  -19.5297   19.5275 C.3     1  UNL1        0.0746
      8 C          -6.2750  -19.2947   19.8188 C.3     1  UNL1        0.0463
      9 O          -5.4168  -18.4178   22.5564 O.3     1  UNL1       -0.3501
     10 C          -3.9641  -18.1829   22.8476 C.3     1  UNL1        0.1909
     11 C          -3.5350  -17.7444   24.2164 C.3     1  UNL1        0.0420
     12 C          -2.9407  -18.3864   21.7701 C.2     1  UNL1        0.2529
     13 O          -1.4881  -18.1514   22.0613 O.2     1  UNL1       -0.2722
     14 C          -1.7917  -17.8474   18.5834 C.3     1  UNL1        0.0233
     15 C          -2.3463  -19.0283   19.3237 C.3     1  UNL1        0.0936
     16 C         -10.2036  -19.5612   20.3138 C.3     1  UNL1        0.0768
     17 C         -11.2148  -18.5028   20.6409 C.3     1  UNL1        0.0437
     18 C         -11.8832  -18.4935   21.9838 C.ar    1  UNL1       -0.0206
     19 C         -13.1474  -17.7122   22.1869 C.ar    1  UNL1       -0.0019
     20 C         -13.8158  -17.7030   23.5297 C.ar    1  UNL1        0.0293
     21 C         -13.2199  -18.4751   24.6694 C.ar    1  UNL1        0.1401
     22 F         -13.8883  -18.4658   26.0123 F       1  UNL1       -0.2042
     23 C         -11.9557  -19.2564   24.4663 C.ar    1  UNL1        0.0293
     24 C         -11.2874  -19.2656   23.1234 C.ar    1  UNL1       -0.0019
@<TRIPOS>BOND
     1    14    15    1
     2    15     1    1
     3     1     2    1
     4     2     3    1
     5     3     4    1
     6     4     5    1
     7     5     6    1
     8     6    16    1
     9    16    17    1
    10    17    18    1
    11    18    19   ar
    12    19    20   ar
    13    20    21   ar
    14    21    22    1
    15    21    23   ar
    16    23    24   ar
    17     6     7    1
    18     7     8    1
    19     3     9    1
    20     9    10    1
    21    10    11    1
    22    10    12    1
    23    12    13    2
    24    12     1   am
    25     8     3    1
    26    24    18   ar
@<TRIPOS>MOLECULE
*****
 24 26 0 0 0
SMALL
GASTEIGER

@<TRIPOS>ATOM
      1 N         -11.4116  -16.9941   21.2063 N.am    1  UNL1       -0.2752
      2 C         -10.0492  -16.5608   21.6603 C.3     1  UNL1        0.1206
      3 C          -9.6279  -16.7800   23.0832 C.3     1  UNL1        0.1141
      4 C          -9.2066  -16.9991   24.5060 C.3     1  UNL1        0.0463
      5 C          -7.8442  -16.5659   24.9600 C.3     1  UNL1        0.0746
      6 N          -6.9031  -15.9134   23.9911 N.3     1  UNL1       -0.2722
      7 C          -7.3244  -15.6943   22.5683 C.3     1  UNL1        0.0746
      8 C          -8.6868  -16.1276   22.1143 C.3     1  UNL1        0.0463
      9 O         -10.5690  -17.4324   24.0520 O.3     1  UNL1       -0.3501
     10 C         -11.9315  -17.8657   23.5980 C.3     1  UNL1        0.1909
     11 C         -12.8726  -18.5181   24.5668 C.3     1  UNL1        0.0420
     12 C         -12.3527  -17.6465   22.1752 C.2     1  UNL1        0.2529
     13 O         -13.7152  -18.0798   21.7211 O.2     1  UNL1       -0.2722
     14 C         -11.5015  -15.4851   19.0933 C.3     1  UNL1        0.0233
     15 C         -11.8329  -16.7750   19.7834 C.3     1  UNL1        0.0936
     16 C          -5.5407  -15.4802   24.4452 C.3     1  UNL1        0.0768
     17 C          -4.4226  -16.4773   24.5194 C.3     1  UNL1        0.0437
     18 C          -3.9149  -17.1296   23.2676 C.ar    1  UNL1       -0.0206
     19 C          -4.5502  -18.3940   22.7701 C.ar    1  UNL1       -0.0019
     20 C          -4.0426  -19.0462   21.5184 C.ar    1  UNL1        0.0293
     21 C          -2.8996  -18.4339   20.7642 C.ar    1  UNL1        0.1401
     22 F          -2.3920  -19.0862   19.5124 F       1  UNL1       -0.2042
     23 C          -2.2643  -17.1695   21.2617 C.ar    1  UNL1        0.0293
     24 C          -2.7720  -16.5174   22.5134 C.ar    1  UNL1       -0.0019
@<TRIPOS>BOND
     1    14    15    1
     2    15     1    1
     3     1     2    1
     4     2     3    1
     5     3     4    1
     6     4     5    1
     7     5     6    1
     8     6    16    1
     9    16    17    1
    10    17    18    1
    11    18    19   ar
    12    19    20   ar
    13    20    21   ar
    14    21    22    1
    15    21    23   ar
    16    23    24   ar
    17     6     7    1
    18     7     8    1
    19     3     9    1
    20     9    10    1
    21    10    11    1
    22    10    12    1
    23    12    13    2
    24    12     1   am
    25     8     3    1
    26    24    18   ar
@<TRIPOS>MOLECULE
*****
 24 26 0 0 0
SMALL
GASTEIGER

@<TRIPOS>ATOM
      1 N         -11.6135  -17.9249   22.6205 N.am    1  UNL1       -0.2752
      2 C         -10.3307  -18.7010   22.5740 C.3     1  UNL1        0.1206
      3 C          -9.4180  -18.5711   21.3907 C.3     1  UNL1        0.1141
      4 C          -8.5053  -18.4412   20.2075 C.3     1  UNL1        0.0463
      5 C          -7.2225  -19.2172   20.1610 C.3     1  UNL1        0.0746
      6 N          -6.8525  -20.1232   21.2978 N.3     1  UNL1       -0.2722
      7 C          -7.7651  -20.2532   22.4810 C.3     1  UNL1        0.0746
      8 C          -9.0479  -19.4771   22.5275 C.3     1  UNL1        0.0463
      9 O          -9.7881  -17.6651   20.2540 O.3     1  UNL1       -0.3501
     10 C         -11.0709  -16.8890   20.3005 C.3     1  UNL1        0.1909
     11 C         -11.4410  -15.9830   19.1637 C.3     1  UNL1        0.0420
     12 C         -11.9836  -17.0189   21.4837 C.2     1  UNL1        0.2529
     13 O         -13.2664  -16.2428   21.5303 O.2     1  UNL1       -0.2722
     14 C         -12.1383  -18.9314   24.9575 C.3     1  UNL1        0.0233
     15 C         -12.5262  -18.0548   23.8038 C.3     1  UNL1        0.0936
     16 C          -5.5696  -20.8993   21.2512 C.3     1  UNL1        0.0768
     17 C          -4.6117  -20.6973   20.1148 C.3     1  UNL1        0.0437
     18 C          -3.5795  -19.6113   20.1880 C.ar    1  UNL1       -0.0206
     19 C          -2.6389  -19.5480   21.3547 C.ar    1  UNL1       -0.0019
     20 C          -1.6068  -18.4620   21.4279 C.ar    1  UNL1        0.0293
     21 C          -1.5152  -17.4394   20.3343 C.ar    1  UNL1        0.1401
     22 F          -0.4830  -16.3534   20.4074 F       1  UNL1       -0.2042
     23 C          -2.4558  -17.5028   19.1675 C.ar    1  UNL1        0.0293
     24 C          -3.4879  -18.5888   19.0944 C.ar    1  UNL1       -0.0019
@<TRIPOS>BOND
     1    14    15    1
     2    15     1    1
     3     1     2    1
     4     2     3    1
     5     3     4    1
     6     4     5    1
     7     5     6    1
     8     6    16    1
     9    16    17    1
    10    17    18    1
    11    18    19   ar
    12    19    20   ar
    13    20    21   ar
    14    21    22    1
    15    21    23   ar
    16    23    24   ar
    17     6     7    1
    18     7     8    1
    19     3     9    1
    20     9    10    1
    21    10    11    1
    22    10    12    1
    23    12    13    2
    24    12     1   am
    25     8     3    1
    26    24    18   ar
@<TRIPOS>MOLECULE
*****
 24 26 0 0 0
SMALL
GASTEIGER

@<TRIPOS>ATOM
      1 N          -9.9513  -16.5651   23.0064 N.am    1  UNL1       -0.2752
      2 C          -9.2216  -17.5564   22.1492 C.3     1  UNL1        0.1206
      3 C          -7.7733  -17.8490   22.4080 C.3     1  UNL1        0.1141
      4 C          -6.3251  -18.1415   22.6667 C.3     1  UNL1        0.0463
      5 C          -5.5954  -19.1328   21.8095 C.3     1  UNL1        0.0746
      6 N          -6.3140  -19.8316   20.6936 N.3     1  UNL1       -0.2722
      7 C          -7.7622  -19.5391   20.4348 C.3     1  UNL1        0.0746
      8 C          -8.4919  -18.5478   21.2920 C.3     1  UNL1        0.0463
      9 O          -7.0547  -17.1501   23.5239 O.3     1  UNL1       -0.3501
     10 C          -7.7845  -16.1588   24.3811 C.3     1  UNL1        0.1909
     11 C          -7.0659  -15.4599   25.4970 C.3     1  UNL1        0.0420
     12 C          -9.2327  -15.8663   24.1224 C.2     1  UNL1        0.2529
     13 O          -9.9624  -14.8749   24.9796 O.2     1  UNL1       -0.2722
     14 C         -12.4040  -17.3865   22.7623 C.3     1  UNL1        0.0233
     15 C         -11.3996  -16.2725   22.7477 C.3     1  UNL1        0.0936
     16 C          -5.5843  -20.8230   19.8364 C.3     1  UNL1        0.0768
     17 C          -4.1041  -21.0062   19.9959 C.3     1  UNL1        0.0437
     18 C          -3.2037  -19.8087   20.0696 C.ar    1  UNL1       -0.0206
     19 C          -3.2191  -18.7899   18.9688 C.ar    1  UNL1       -0.0019
     20 C          -2.3188  -17.5925   19.0425 C.ar    1  UNL1        0.0293
     21 C          -1.4031  -17.4138   20.2170 C.ar    1  UNL1        0.1401
     22 F          -0.5027  -16.2163   20.2907 F       1  UNL1       -0.2042
     23 C          -1.3877  -18.4326   21.3179 C.ar    1  UNL1        0.0293
     24 C          -2.2880  -19.6300   21.2441 C.ar    1  UNL1       -0.0019
@<TRIPOS>BOND
     1    14    15    1
     2    15     1    1
     3     1     2    1
     4     2     3    1
     5     3     4    1
     6     4     5    1
     7     5     6    1
     8     6    16    1
     9    16    17    1
    10    17    18    1
    11    18    19   ar
    12    19    20   ar
    13    20    21   ar
    14    21    22    1
    15    21    23   ar
    16    23    24   ar
    17     6     7    1
    18     7     8    1
    19     3     9    1
    20     9    10    1
    21    10    11    1
    22    10    12    1
    23    12    13    2
    24    12     1   am
    25     8     3    1
    26    24    18   ar
@<TRIPOS>MOLECULE
*****
 24 26 0 0 0
SMALL
GASTEIGER

@<TRIPOS>ATOM
      1 N           4.5085   -2.2800   18.8286 N.am    1  UNL1       -0.2752
      2 C           3.3194   -1.5374   19.3620 C.3     1  UNL1        0.1206
      3 C           3.1159   -0.0940   19.0079 C.3     1  UNL1        0.1141
      4 C           2.9124    1.3493   18.6538 C.3     1  UNL1        0.0463
      5 C           1.7233    2.0919   19.1873 C.3     1  UNL1        0.0746
      6 N           0.7378    1.3913   20.0748 N.3     1  UNL1       -0.2722
      7 C           0.9412   -0.0520   20.4289 C.3     1  UNL1        0.0746
      8 C           2.1303   -0.7947   19.8955 C.3     1  UNL1        0.0463
      9 O           4.1015    0.6067   18.1204 O.3     1  UNL1       -0.3501
     10 C           5.2906   -0.1360   17.5870 C.3     1  UNL1        0.1909
     11 C           6.2761    0.5646   16.6994 C.3     1  UNL1        0.0420
     12 C           5.4940   -1.5793   17.9411 C.2     1  UNL1        0.2529
     13 O           6.6831   -2.3221   17.4076 O.2     1  UNL1       -0.2722
     14 C           3.5345   -4.6492   19.2627 C.3     1  UNL1        0.0233
     15 C           4.7120   -3.7234   19.1827 C.3     1  UNL1        0.0936
     16 C          -0.4513    2.1340   20.6082 C.3     1  UNL1        0.0768
     17 C          -0.2720    3.1623   21.6854 C.3     1  UNL1        0.0437
     18 C          -0.4506    2.7797   23.1248 C.ar    1  UNL1       -0.0206
     19 C          -1.4817    3.4751   23.9633 C.ar    1  UNL1       -0.0019
     20 C          -1.6603    3.0925   25.4026 C.ar    1  UNL1        0.0293
     21 C          -0.8078    2.0144   26.0034 C.ar    1  UNL1        0.1401
     22 F          -0.9864    1.6318   27.4428 F       1  UNL1       -0.2042
     23 C           0.2233    1.3190   25.1649 C.ar    1  UNL1        0.0293
     24 C           0.4019    1.7016   23.7256 C.ar    1  UNL1       -0.0019
@<TRIPOS>BOND
     1    14    15    1
     2    15     1    1
     3     1     2    1
     4     2     3    1
     5     3     4    1
     6     4     5    1
     7     5     6    1
     8     6    16    1
     9    16    17    1
    10    17    18    1
    11    18    19   ar
    12    19    20   ar
    13    20    21   ar
    14    21    22    1
    15    21    23   ar
    16    23    24   ar
    17     6     7    1
    18     7     8    1
    19     3     9    1
    20     9    10    1
    21    10    11    1
    22    10    12    1
    23    12    13    2
    24    12     1   am
    25     8     3    1
    26    24    18   ar
@<TRIPOS>MOLECULE
*****
 24 26 0 0 0
SMALL
GASTEIGER

@<TRIPOS>ATOM
      1 N           4.3210   -2.1455   18.7309 N.am    1  UNL1       -0.2752
      2 C           3.1355   -1.3942   19.2604 C.3     1  UNL1        0.1206
      3 C           2.9532    0.0553   18.9203 C.3     1  UNL1        0.1141
      4 C           2.7709    1.5048   18.5802 C.3     1  UNL1        0.0463
      5 C           1.5854    2.2560   19.1096 C.3     1  UNL1        0.0746
      6 N           0.5823    1.5577   19.9792 N.3     1  UNL1       -0.2722
      7 C           0.7646    0.1083   20.3193 C.3     1  UNL1        0.0746
      8 C           1.9500   -0.6429   19.7899 C.3     1  UNL1        0.0463
      9 O           3.9563    0.7536   18.0507 O.3     1  UNL1       -0.3501
     10 C           5.1418    0.0023   17.5213 C.3     1  UNL1        0.1909
     11 C           6.1449    0.7006   16.6517 C.3     1  UNL1        0.0420
     12 C           5.3241   -1.4472   17.8614 C.2     1  UNL1        0.2529
     13 O           6.5096   -2.1985   17.3319 O.2     1  UNL1       -0.2722
     14 C           3.3086   -4.4950   19.1838 C.3     1  UNL1        0.0233
     15 C           4.5033   -3.5950   19.0710 C.3     1  UNL1        0.0936
     16 C          -0.6032    2.3090   20.5087 C.3     1  UNL1        0.0768
     17 C          -1.1949    3.4340   19.7123 C.3     1  UNL1        0.0437
     18 C          -2.6788    3.5068   19.5051 C.ar    1  UNL1       -0.0206
     19 C          -3.2314    3.8484   18.1531 C.ar    1  UNL1       -0.0019
     20 C          -4.7152    3.9212   17.9459 C.ar    1  UNL1        0.0293
     21 C          -5.6464    3.6524   19.0907 C.ar    1  UNL1        0.1401
     22 F          -7.1303    3.7252   18.8835 F       1  UNL1       -0.2042
     23 C          -5.0939    3.3108   20.4427 C.ar    1  UNL1        0.0293
     24 C          -3.6100    3.2380   20.6499 C.ar    1  UNL1       -0.0019
@<TRIPOS>BOND
     1    14    15    1
     2    15     1    1
     3     1     2    1
     4     2     3    1
     5     3     4    1
     6     4     5    1
     7     5     6    1
     8     6    16    1
     9    16    17    1
    10    17    18    1
    11    18    19   ar
    12    19    20   ar
    13    20    21   ar
    14    21    22    1
    15    21    23   ar
    16    23    24   ar
    17     6     7    1
    18     7     8    1
    19     3     9    1
    20     9    10    1
    21    10    11    1
    22    10    12    1
    23    12    13    2
    24    12     1   am
    25     8     3    1
    26    24    18   ar
