@<TRIPOS>MOLECULE
*****
 45 49 0 0 0
SMALL
GASTEIGER

@<TRIPOS>ATOM
      1 N           0.2795    3.1855   25.3950 N.ar    1  UNL1       -0.3260
      2 C           1.2700    2.2426   26.0112 C.ar    1  UNL1        0.0433
      3 C           1.7162    1.2807   24.9503 C.ar    1  UNL1        0.0383
      4 C           1.0015    1.6292   23.6783 C.ar    1  UNL1        0.0256
      5 C           1.0446    1.0266   22.3054 C.ar    1  UNL1        0.0389
      6 C           0.1996    1.6013   21.2073 C.ar    1  UNL1        0.1392
      7 C          -0.6883    2.7786   21.4822 C.ar    1  UNL1        0.0384
      8 C          -0.7313    3.3812   22.8551 C.ar    1  UNL1        0.0203
      9 C           0.1136    2.8065   23.9532 C.ar    1  UNL1        0.0606
     10 C          -0.4219    4.3102   26.0973 C.3     1  UNL1        0.1324
     11 C          -4.8120    5.0095   25.3988 C.ar    1  UNL1        0.0358
     12 C          -4.3568    3.7977   26.1566 C.ar    1  UNL1        0.0028
     13 C          -2.8935    3.5646   26.3894 C.ar    1  UNL1       -0.0023
     14 C          -1.8852    4.5433   25.8645 C.ar    1  UNL1        0.0004
     15 C          -2.3404    5.7552   25.1066 C.ar    1  UNL1       -0.0023
     16 C          -3.8038    5.9883   24.8738 C.ar    1  UNL1        0.0028
     17 C          -9.2021    5.7090   24.7003 C.ar    1  UNL1        0.1769
     18 C          -8.4825    6.4717   25.7729 C.ar    1  UNL1        0.1389
     19 N          -7.0191    6.2386   26.0058 N.ar    1  UNL1       -0.2218
     20 C          -6.2754    5.2427   25.1660 C.ar    1  UNL1        0.1625
     21 N          -6.9950    4.4800   24.0934 N.ar    1  UNL1       -0.2218
     22 C          -8.4584    4.7131   23.8606 C.ar    1  UNL1        0.1389
     23 C         -11.6700    4.9324   24.9379 C.3     1  UNL1        0.2526
     24 O         -10.6654    5.9421   24.4675 O.3     1  UNL1       -0.4683
     25 C           1.7330    2.2587   27.4379 C.3     1  UNL1        0.0495
     26 C           1.3160    1.1635   28.3741 C.3     1  UNL1        0.0376
     27 C           2.7501    0.9423   28.7542 C.3     1  UNL1        0.0059
     28 C          -0.1181    1.3846   27.9941 C.3     1  UNL1        0.0059
     29 C           0.8990    0.0682   29.3104 C.2     1  UNL1        0.0500
     30 O          -0.5093   -0.4475   29.2816 O.co2   1  UNL1       -0.5492
     31 O           1.8903   -0.5113   30.2755 O.co2   1  UNL1       -0.5492
     32 S           2.7038    0.1660   25.1297 S.3     1  UNL1       -0.1142
     33 C           3.9588    0.1365   24.3086 C.3     1  UNL1        0.0434
     34 C           4.4139    1.4095   24.9584 C.3     1  UNL1        0.0112
     35 C           3.5037   -1.1366   23.6589 C.3     1  UNL1        0.0112
     36 C           5.2138    0.1068   23.4875 C.3     1  UNL1        0.0112
     37 O           0.2426    0.9987   19.8343 O.3     1  UNL1       -0.4690
     38 C           1.4866    1.1127   19.0039 C.3     1  UNL1        0.2508
     39 C           2.4129   -0.0601   18.8757 C.ar    1  UNL1        0.1026
     40 C           2.3883   -1.1512   19.9047 C.ar    1  UNL1        0.0181
     41 C           3.3147   -2.3241   19.7764 C.ar    1  UNL1       -0.0014
     42 C           4.2656   -2.4057   18.6193 C.ar    1  UNL1       -0.0027
     43 C           5.1919   -3.5785   18.4911 C.3     1  UNL1        0.0327
     44 C           4.2901   -1.3146   17.5903 C.ar    1  UNL1        0.0943
     45 N           3.3638   -0.1418   17.7185 N.ar    1  UNL1       -0.2448
@<TRIPOS>UNITY_ATOM_ATTR
31 1
charge -1
@<TRIPOS>BOND
     1    23    24    1
     2    24    17    1
     3    17    18   ar
     4    18    19   ar
     5    19    20   ar
     6    20    11    1
     7    11    12   ar
     8    12    13   ar
     9    13    14   ar
    10    14    10    1
    11    10     1    1
    12     1     2   ar
    13     2    25    1
    14    25    26    1
    15    26    27    1
    16    26    28    1
    17    26    29    1
    18    29    30   ar
    19    29    31   ar
    20     2     3   ar
    21     3    32    1
    22    32    33    1
    23    33    34    1
    24    33    35    1
    25    33    36    1
    26     3     4   ar
    27     4     5   ar
    28     5     6   ar
    29     6    37    1
    30    37    38    1
    31    38    39    1
    32    39    40   ar
    33    40    41   ar
    34    41    42   ar
    35    42    43    1
    36    42    44   ar
    37    44    45   ar
    38     6     7   ar
    39     7     8   ar
    40     8     9   ar
    41    14    15   ar
    42    15    16   ar
    43    20    21   ar
    44    21    22   ar
    45    22    17   ar
    46    16    11   ar
    47     9     1   ar
    48     9     4   ar
    49    45    39   ar
@<TRIPOS>MOLECULE
*****
 45 49 0 0 0
SMALL
GASTEIGER

@<TRIPOS>ATOM
      1 N           4.2215    0.3619   22.3041 N.ar    1  UNL1       -0.3260
      2 C           4.0739   -0.6963   21.2512 C.ar    1  UNL1        0.0433
      3 C           4.5009   -2.0052   21.8466 C.ar    1  UNL1        0.0383
      4 C           4.9125   -1.7560   23.2673 C.ar    1  UNL1        0.0256
      5 C           5.4221   -2.6722   24.3400 C.ar    1  UNL1        0.0389
      6 C           5.7592   -2.1254   25.6955 C.ar    1  UNL1        0.1392
      7 C           5.5865   -0.6624   25.9783 C.ar    1  UNL1        0.0384
      8 C           5.0769    0.2538   24.9056 C.ar    1  UNL1        0.0203
      9 C           4.7398   -0.2930   23.5501 C.ar    1  UNL1        0.0606
     10 C           3.9063    1.8192   22.1398 C.3     1  UNL1        0.1324
     11 C          -0.3395    3.2601   22.5235 C.ar    1  UNL1        0.0358
     12 C           0.5662    3.8616   21.4902 C.ar    1  UNL1        0.0028
     13 C           1.9815    3.3814   21.3623 C.ar    1  UNL1       -0.0023
     14 C           2.4911    2.2995   22.2677 C.ar    1  UNL1        0.0004
     15 C           1.5853    1.6978   23.3010 C.ar    1  UNL1       -0.0023
     16 C           0.1701    2.1781   23.4290 C.ar    1  UNL1        0.0028
     17 C          -4.5852    4.7009   22.9073 C.ar    1  UNL1        0.1769
     18 C          -3.5428    5.1720   23.8775 C.ar    1  UNL1        0.1389
     19 N          -2.1275    4.6918   23.7496 N.ar    1  UNL1       -0.2218
     20 C          -1.7547    3.7403   22.6514 C.ar    1  UNL1        0.1625
     21 N          -2.7972    3.2692   21.6812 N.ar    1  UNL1       -0.2218
     22 C          -4.2125    3.7495   21.8091 C.ar    1  UNL1        0.1389
     23 C          -7.1374    4.2153   22.8786 C.3     1  UNL1        0.2526
     24 O          -6.0005    5.1811   23.0352 O.3     1  UNL1       -0.4683
     25 C           3.5850   -0.4830   19.8493 C.3     1  UNL1        0.0495
     26 C           2.2108    0.0685   19.6099 C.3     1  UNL1        0.0376
     27 C           2.7811    1.0754   18.6555 C.3     1  UNL1        0.0059
     28 C           1.6405   -0.9384   20.5643 C.3     1  UNL1        0.0059
     29 C           0.8365    0.6201   19.3705 C.2     1  UNL1        0.0500
     30 O          -0.2357    0.4365   20.4033 O.co2   1  UNL1       -0.5492
     31 O           0.5345    1.3552   18.0984 O.co2   1  UNL1       -0.5492
     32 S           4.5140   -3.3306   21.1444 S.3     1  UNL1       -0.1142
     33 C           4.9525   -3.4165   19.7124 C.3     1  UNL1        0.0434
     34 C           6.3259   -2.9591   20.1055 C.3     1  UNL1        0.0112
     35 C           3.5791   -3.8739   19.3194 C.3     1  UNL1        0.0112
     36 C           5.3908   -3.5024   18.2805 C.3     1  UNL1        0.0112
     37 O           6.2689   -3.0416   26.7683 O.3     1  UNL1       -0.4690
     38 C           7.6267   -3.6658   26.6388 C.3     1  UNL1        0.2508
     39 C           7.8041   -5.1341   26.8889 C.ar    1  UNL1        0.1026
     40 C           7.2648   -6.1325   25.9080 C.ar    1  UNL1        0.0181
     41 C           7.4422   -7.6009   26.1581 C.ar    1  UNL1       -0.0014
     42 C           8.1589   -8.0707   27.3892 C.ar    1  UNL1       -0.0027
     43 C           8.3363   -9.5390   27.6393 C.3     1  UNL1        0.0327
     44 C           8.6982   -7.0723   28.3701 C.ar    1  UNL1        0.0943
     45 N           8.5208   -5.6040   28.1200 N.ar    1  UNL1       -0.2448
@<TRIPOS>UNITY_ATOM_ATTR
31 1
charge -1
@<TRIPOS>BOND
     1    23    24    1
     2    24    17    1
     3    17    18   ar
     4    18    19   ar
     5    19    20   ar
     6    20    11    1
     7    11    12   ar
     8    12    13   ar
     9    13    14   ar
    10    14    10    1
    11    10     1    1
    12     1     2   ar
    13     2    25    1
    14    25    26    1
    15    26    27    1
    16    26    28    1
    17    26    29    1
    18    29    30   ar
    19    29    31   ar
    20     2     3   ar
    21     3    32    1
    22    32    33    1
    23    33    34    1
    24    33    35    1
    25    33    36    1
    26     3     4   ar
    27     4     5   ar
    28     5     6   ar
    29     6    37    1
    30    37    38    1
    31    38    39    1
    32    39    40   ar
    33    40    41   ar
    34    41    42   ar
    35    42    43    1
    36    42    44   ar
    37    44    45   ar
    38     6     7   ar
    39     7     8   ar
    40     8     9   ar
    41    14    15   ar
    42    15    16   ar
    43    20    21   ar
    44    21    22   ar
    45    22    17   ar
    46    16    11   ar
    47     9     1   ar
    48     9     4   ar
    49    45    39   ar
@<TRIPOS>MOLECULE
*****
 45 49 0 0 0
SMALL
GASTEIGER

@<TRIPOS>ATOM
      1 N           3.6068    0.4443   21.5646 N.ar    1  UNL1       -0.3260
      2 C           3.1973   -0.1758   20.2616 C.ar    1  UNL1        0.0433
      3 C           3.5775   -1.6263   20.2989 C.ar    1  UNL1        0.0383
      4 C           4.2220   -1.9027   21.6249 C.ar    1  UNL1        0.0256
      5 C           4.7947   -3.1543   22.2210 C.ar    1  UNL1        0.0389
      6 C           5.3854   -3.1262   23.5994 C.ar    1  UNL1        0.1392
      7 C           5.4035   -1.8465   24.3818 C.ar    1  UNL1        0.0384
      8 C           4.8308   -0.5949   23.7856 C.ar    1  UNL1        0.0203
      9 C           4.2400   -0.6230   22.4072 C.ar    1  UNL1        0.0606
     10 C           3.4164    1.8797   21.9564 C.3     1  UNL1        0.1324
     11 C          -0.4264    3.1922   23.8956 C.ar    1  UNL1        0.0358
     12 C           0.3280    4.1386   23.0095 C.ar    1  UNL1        0.0028
     13 C           1.6089    3.7011   22.3631 C.ar    1  UNL1       -0.0023
     14 C           2.1355    2.3172   22.6027 C.ar    1  UNL1        0.0004
     15 C           1.3811    1.3708   23.4889 C.ar    1  UNL1       -0.0023
     16 C           0.1002    1.8082   24.1353 C.ar    1  UNL1        0.0028
     17 C          -4.2691    4.5046   25.8348 C.ar    1  UNL1        0.1769
     18 C          -4.0416    4.7581   24.3740 C.ar    1  UNL1        0.1389
     19 N          -2.7606    4.3206   23.7275 N.ar    1  UNL1       -0.2218
     20 C          -1.7073    3.6297   24.5420 C.ar    1  UNL1        0.1625
     21 N          -1.9349    3.3763   26.0028 N.ar    1  UNL1       -0.2218
     22 C          -3.2158    3.8137   26.6492 C.ar    1  UNL1        0.1389
     23 C          -6.3125    6.1068   25.9226 C.3     1  UNL1        0.2526
     24 O          -5.5500    4.9421   26.4812 O.3     1  UNL1       -0.4683
     25 C           2.5255    0.5307   19.1215 C.3     1  UNL1        0.0495
     26 C           1.2564    1.2950   19.3561 C.3     1  UNL1        0.0376
     27 C           0.6463    0.0846   19.9986 C.3     1  UNL1        0.0059
     28 C           1.8665    2.5053   18.7136 C.3     1  UNL1        0.0059
     29 C          -0.0128    2.0593   19.5908 C.2     1  UNL1        0.0500
     30 O          -0.9011    1.7017   20.7454 O.co2   1  UNL1       -0.5492
     31 O          -0.3937    3.1811   18.6708 O.co2   1  UNL1       -0.5492
     32 S           3.3528   -2.6251   19.2026 S.3     1  UNL1       -0.1142
     33 C           4.3335   -3.7404   18.9914 C.3     1  UNL1        0.0434
     34 C           5.3645   -2.7485   18.5409 C.3     1  UNL1        0.0112
     35 C           3.3023   -4.7322   19.4420 C.3     1  UNL1        0.0112
     36 C           5.3140   -4.8557   18.7803 C.3     1  UNL1        0.0112
     37 O           5.9582   -4.3779   24.1957 O.3     1  UNL1       -0.4690
     38 C           7.2065   -4.3106   25.0246 C.3     1  UNL1        0.2508
     39 C           7.1590   -4.6632   26.4818 C.ar    1  UNL1        0.1026
     40 C           7.7107   -5.9757   26.9542 C.ar    1  UNL1        0.0181
     41 C           7.6632   -6.3283   28.4115 C.ar    1  UNL1       -0.0014
     42 C           7.0641   -5.3685   29.3962 C.ar    1  UNL1       -0.0027
     43 C           7.0166   -5.7211   30.8534 C.3     1  UNL1        0.0327
     44 C           6.5125   -4.0560   28.9238 C.ar    1  UNL1        0.0943
     45 N           6.5599   -3.7034   27.4666 N.ar    1  UNL1       -0.2448
@<TRIPOS>UNITY_ATOM_ATTR
31 1
charge -1
@<TRIPOS>BOND
     1    23    24    1
     2    24    17    1
     3    17    18   ar
     4    18    19   ar
     5    19    20   ar
     6    20    11    1
     7    11    12   ar
     8    12    13   ar
     9    13    14   ar
    10    14    10    1
    11    10     1    1
    12     1     2   ar
    13     2    25    1
    14    25    26    1
    15    26    27    1
    16    26    28    1
    17    26    29    1
    18    29    30   ar
    19    29    31   ar
    20     2     3   ar
    21     3    32    1
    22    32    33    1
    23    33    34    1
    24    33    35    1
    25    33    36    1
    26     3     4   ar
    27     4     5   ar
    28     5     6   ar
    29     6    37    1
    30    37    38    1
    31    38    39    1
    32    39    40   ar
    33    40    41   ar
    34    41    42   ar
    35    42    43    1
    36    42    44   ar
    37    44    45   ar
    38     6     7   ar
    39     7     8   ar
    40     8     9   ar
    41    14    15   ar
    42    15    16   ar
    43    20    21   ar
    44    21    22   ar
    45    22    17   ar
    46    16    11   ar
    47     9     1   ar
    48     9     4   ar
    49    45    39   ar
@<TRIPOS>MOLECULE
*****
 45 49 0 0 0
SMALL
GASTEIGER

@<TRIPOS>ATOM
      1 N           3.2981   -0.5141   19.2941 N.ar    1  UNL1       -0.3260
      2 C           4.3574    0.2627   18.5700 C.ar    1  UNL1        0.0433
      3 C           3.8512    1.6603   18.3687 C.ar    1  UNL1        0.0383
      4 C           2.4790    1.7472   18.9684 C.ar    1  UNL1        0.0256
      5 C           1.4967    2.8765   19.0676 C.ar    1  UNL1        0.0389
      6 C           0.1725    2.6618   19.7386 C.ar    1  UNL1        0.1392
      7 C          -0.1693    1.3179   20.3105 C.ar    1  UNL1        0.0384
      8 C           0.8130    0.1887   20.2114 C.ar    1  UNL1        0.0203
      9 C           2.1372    0.4033   19.5403 C.ar    1  UNL1        0.0606
     10 C           3.3844   -1.9554   19.7005 C.3     1  UNL1        0.1324
     11 C           5.3004   -3.0788   23.6142 C.ar    1  UNL1        0.0358
     12 C           4.5675   -1.7765   23.4844 C.ar    1  UNL1        0.0028
     13 C           3.9288   -1.4020   22.1799 C.ar    1  UNL1       -0.0023
     14 C           4.0230   -2.3298   21.0051 C.ar    1  UNL1        0.0004
     15 C           4.7560   -3.6322   21.1348 C.ar    1  UNL1       -0.0023
     16 C           5.3946   -4.0067   22.4394 C.ar    1  UNL1        0.0028
     17 C           7.2164   -4.2023   27.5278 C.ar    1  UNL1        0.1769
     18 C           6.4256   -2.9325   27.4172 C.ar    1  UNL1        0.1389
     19 N           5.7869   -2.5580   26.1127 N.ar    1  UNL1       -0.2218
     20 C           5.9391   -3.4533   24.9187 C.ar    1  UNL1        0.1625
     21 N           6.7299   -4.7231   25.0294 N.ar    1  UNL1       -0.2218
     22 C           7.3686   -5.0976   26.3339 C.ar    1  UNL1        0.1389
     23 C           7.1378   -5.4869   29.7847 C.3     1  UNL1        0.2526
     24 O           7.8551   -4.5768   28.8323 O.3     1  UNL1       -0.4683
     25 C           5.6891   -0.2653   18.1253 C.3     1  UNL1        0.0495
     26 C           6.6027   -0.9253   19.1150 C.3     1  UNL1        0.0376
     27 C           6.5133    0.2810   20.0020 C.3     1  UNL1        0.0059
     28 C           6.6921   -2.1316   18.2281 C.3     1  UNL1        0.0059
     29 C           7.5163   -1.5854   20.1049 C.2     1  UNL1        0.0500
     30 O           7.5260   -1.1322   21.5347 O.co2   1  UNL1       -0.5492
     31 O           8.4203   -2.6986   19.6648 O.co2   1  UNL1       -0.5492
     32 S           4.5879    2.7753   17.6874 S.3     1  UNL1       -0.1142
     33 C           5.8686    3.2946   18.2708 C.3     1  UNL1        0.0434
     34 C           6.6013    2.8833   17.0282 C.3     1  UNL1        0.0112
     35 C           5.1358    3.7059   19.5133 C.3     1  UNL1        0.0112
     36 C           7.1492    3.8139   18.8541 C.3     1  UNL1        0.0112
     37 O          -0.8099    3.7910   19.8378 O.3     1  UNL1       -0.4690
     38 C          -2.2787    3.5013   19.9309 C.3     1  UNL1        0.2508
     39 C          -2.9661    3.5311   21.2637 C.ar    1  UNL1        0.1026
     40 C          -4.4074    3.1305   21.3734 C.ar    1  UNL1        0.0181
     41 C          -5.0948    3.1603   22.7063 C.ar    1  UNL1       -0.0014
     42 C          -4.3408    3.5906   23.9295 C.ar    1  UNL1       -0.0027
     43 C          -5.0282    3.6204   25.2624 C.3     1  UNL1        0.0327
     44 C          -2.8995    3.9912   23.8199 C.ar    1  UNL1        0.0943
     45 N          -2.2121    3.9614   22.4870 N.ar    1  UNL1       -0.2448
@<TRIPOS>UNITY_ATOM_ATTR
31 1
charge -1
@<TRIPOS>BOND
     1    23    24    1
     2    24    17    1
     3    17    18   ar
     4    18    19   ar
     5    19    20   ar
     6    20    11    1
     7    11    12   ar
     8    12    13   ar
     9    13    14   ar
    10    14    10    1
    11    10     1    1
    12     1     2   ar
    13     2    25    1
    14    25    26    1
    15    26    27    1
    16    26    28    1
    17    26    29    1
    18    29    30   ar
    19    29    31   ar
    20     2     3   ar
    21     3    32    1
    22    32    33    1
    23    33    34    1
    24    33    35    1
    25    33    36    1
    26     3     4   ar
    27     4     5   ar
    28     5     6   ar
    29     6    37    1
    30    37    38    1
    31    38    39    1
    32    39    40   ar
    33    40    41   ar
    34    41    42   ar
    35    42    43    1
    36    42    44   ar
    37    44    45   ar
    38     6     7   ar
    39     7     8   ar
    40     8     9   ar
    41    14    15   ar
    42    15    16   ar
    43    20    21   ar
    44    21    22   ar
    45    22    17   ar
    46    16    11   ar
    47     9     1   ar
    48     9     4   ar
    49    45    39   ar
@<TRIPOS>MOLECULE
*****
 45 49 0 0 0
SMALL
GASTEIGER

@<TRIPOS>ATOM
      1 N           2.1744    0.5654   20.0113 N.ar    1  UNL1       -0.3260
      2 C           2.9161    1.4477   19.0514 C.ar    1  UNL1        0.0433
      3 C           2.6399    2.8740   19.4247 C.ar    1  UNL1        0.0383
      4 C           1.7275    2.8732   20.6154 C.ar    1  UNL1        0.0256
      5 C           1.1216    3.9873   21.4163 C.ar    1  UNL1        0.0389
      6 C           0.2279    3.6747   22.5797 C.ar    1  UNL1        0.1392
      7 C          -0.0598    2.2478   22.9422 C.ar    1  UNL1        0.0384
      8 C           0.5461    1.1337   22.1413 C.ar    1  UNL1        0.0203
      9 C           1.4398    1.4464   20.9779 C.ar    1  UNL1        0.0606
     10 C           2.1682   -0.9346   20.0056 C.3     1  UNL1        0.1324
     11 C           5.1701   -3.2064   22.4709 C.ar    1  UNL1        0.0358
     12 C           4.7889   -3.7035   21.1080 C.ar    1  UNL1        0.0028
     13 C           3.7883   -2.9463   20.2862 C.ar    1  UNL1       -0.0023
     14 C           3.1688   -1.6918   20.8273 C.ar    1  UNL1        0.0004
     15 C           3.5501   -1.1947   22.1903 C.ar    1  UNL1       -0.0023
     16 C           4.5507   -1.9519   23.0121 C.ar    1  UNL1        0.0028
     17 C           8.1720   -5.4780   24.9363 C.ar    1  UNL1        0.1769
     18 C           7.1862   -4.5675   25.6066 C.ar    1  UNL1        0.1389
     19 N           6.1856   -3.8103   24.7848 N.ar    1  UNL1       -0.2218
     20 C           6.1707   -3.9636   23.2927 C.ar    1  UNL1        0.1625
     21 N           7.1565   -4.8741   22.6224 N.ar    1  UNL1       -0.2218
     22 C           8.1572   -5.6313   23.4442 C.ar    1  UNL1        0.1389
     23 C           8.7353   -7.4189   26.5689 C.3     1  UNL1        0.2526
     24 O           9.1726   -6.2352   25.7581 O.3     1  UNL1       -0.4683
     25 C           3.7819    0.9849   17.9173 C.3     1  UNL1        0.0495
     26 C           4.9201    0.0435   18.1783 C.3     1  UNL1        0.0376
     27 C           4.3910   -0.8874   17.1279 C.3     1  UNL1        0.0059
     28 C           5.4491    0.9745   19.2287 C.3     1  UNL1        0.0059
     29 C           6.0583   -0.8980   18.4394 C.2     1  UNL1        0.0500
     30 O           6.5954   -1.7515   17.3290 O.co2   1  UNL1       -0.5492
     31 O           6.6594   -0.9860   19.8109 O.co2   1  UNL1       -0.5492
     32 S           3.1811    4.0880   18.7295 S.3     1  UNL1       -0.1142
     33 C           4.6502    4.3873   18.7775 C.3     1  UNL1        0.0434
     34 C           4.7182    4.2934   17.2820 C.3     1  UNL1        0.0112
     35 C           4.5822    4.4811   20.2730 C.3     1  UNL1        0.0112
     36 C           6.1193    4.6865   18.8256 C.3     1  UNL1        0.0112
     37 O          -0.3781    4.7888   23.3806 O.3     1  UNL1       -0.4690
     38 C          -1.8568    4.8143   23.6310 C.3     1  UNL1        0.2508
     39 C          -2.8100    4.4512   22.5312 C.ar    1  UNL1        0.1026
     40 C          -3.9596    3.5286   22.8092 C.ar    1  UNL1        0.0181
     41 C          -4.9128    3.1655   21.7094 C.ar    1  UNL1       -0.0014
     42 C          -4.7164    3.7251   20.3316 C.ar    1  UNL1       -0.0027
     43 C          -5.6697    3.3620   19.2318 C.3     1  UNL1        0.0327
     44 C          -3.5669    4.6477   20.0536 C.ar    1  UNL1        0.0943
     45 N          -2.6137    5.0108   21.1533 N.ar    1  UNL1       -0.2448
@<TRIPOS>UNITY_ATOM_ATTR
31 1
charge -1
@<TRIPOS>BOND
     1    23    24    1
     2    24    17    1
     3    17    18   ar
     4    18    19   ar
     5    19    20   ar
     6    20    11    1
     7    11    12   ar
     8    12    13   ar
     9    13    14   ar
    10    14    10    1
    11    10     1    1
    12     1     2   ar
    13     2    25    1
    14    25    26    1
    15    26    27    1
    16    26    28    1
    17    26    29    1
    18    29    30   ar
    19    29    31   ar
    20     2     3   ar
    21     3    32    1
    22    32    33    1
    23    33    34    1
    24    33    35    1
    25    33    36    1
    26     3     4   ar
    27     4     5   ar
    28     5     6   ar
    29     6    37    1
    30    37    38    1
    31    38    39    1
    32    39    40   ar
    33    40    41   ar
    34    41    42   ar
    35    42    43    1
    36    42    44   ar
    37    44    45   ar
    38     6     7   ar
    39     7     8   ar
    40     8     9   ar
    41    14    15   ar
    42    15    16   ar
    43    20    21   ar
    44    21    22   ar
    45    22    17   ar
    46    16    11   ar
    47     9     1   ar
    48     9     4   ar
    49    45    39   ar
@<TRIPOS>MOLECULE
*****
 45 49 0 0 0
SMALL
GASTEIGER

@<TRIPOS>ATOM
      1 N           8.7674   -3.8116   25.5078 N.ar    1  UNL1       -0.3260
      2 C           8.0715   -2.6383   26.1314 C.ar    1  UNL1        0.0433
      3 C           7.4456   -1.8325   25.0319 C.ar    1  UNL1        0.0383
      4 C           7.7547   -2.5079   23.7287 C.ar    1  UNL1        0.0256
      5 C           7.3978   -2.1671   22.3122 C.ar    1  UNL1        0.0389
      6 C           7.8578   -3.0495   21.1898 C.ar    1  UNL1        0.1392
      7 C           8.6747   -4.2727   21.4840 C.ar    1  UNL1        0.0384
      8 C           9.0316   -4.6135   22.9004 C.ar    1  UNL1        0.0203
      9 C           8.5716   -3.7311   24.0228 C.ar    1  UNL1        0.0606
     10 C           9.5259   -4.8783   26.2404 C.3     1  UNL1        0.1324
     11 C           7.5400   -8.8034   27.1891 C.ar    1  UNL1        0.0358
     12 C           7.0458   -7.9703   26.0438 C.ar    1  UNL1        0.0028
     13 C           7.7078   -6.6619   25.7275 C.ar    1  UNL1       -0.0023
     14 C           8.8640   -6.1866   26.5566 C.ar    1  UNL1        0.0004
     15 C           9.3581   -7.0198   27.7020 C.ar    1  UNL1       -0.0023
     16 C           8.6962   -8.3281   28.0182 C.ar    1  UNL1        0.0028
     17 C           5.5541  -12.7284   28.1378 C.ar    1  UNL1        0.1769
     18 C           4.7377  -11.5798   27.6238 C.ar    1  UNL1        0.1389
     19 N           5.3997  -10.2714   27.3075 N.ar    1  UNL1       -0.2218
     20 C           6.8780  -10.1117   27.5053 C.ar    1  UNL1        0.1625
     21 N           7.6944  -11.2604   28.0193 N.ar    1  UNL1       -0.2218
     22 C           7.0324  -12.5687   28.3356 C.ar    1  UNL1        0.1389
     23 C           3.4573  -14.2614   28.0790 C.3     1  UNL1        0.2526
     24 O           4.8922  -14.0368   28.4540 O.3     1  UNL1       -0.4683
     25 C           8.0120   -2.3256   27.5973 C.3     1  UNL1        0.0495
     26 C           7.4581   -3.3358   28.5578 C.3     1  UNL1        0.0376
     27 C           8.7806   -3.3901   29.2633 C.3     1  UNL1        0.0059
     28 C           6.1355   -3.2815   27.8522 C.3     1  UNL1        0.0059
     29 C           6.9042   -4.3461   29.5183 C.2     1  UNL1        0.0500
     30 O           6.4170   -5.6721   29.0140 O.co2   1  UNL1       -0.5492
     31 O           6.8376   -4.0304   30.9832 O.co2   1  UNL1       -0.5492
     32 S           6.6503   -0.5726   25.2051 S.3     1  UNL1       -0.1142
     33 C           5.4300   -0.3346   24.3658 C.3     1  UNL1        0.0434
     34 C           6.0782    0.8786   23.7674 C.3     1  UNL1        0.0112
     35 C           4.7819   -1.5477   24.9641 C.3     1  UNL1        0.0112
     36 C           4.2098   -0.0966   23.5265 C.3     1  UNL1        0.0112
     37 O           7.5010   -2.7087   19.7733 O.3     1  UNL1       -0.4690
     38 C           6.1971   -3.1739   19.1957 C.3     1  UNL1        0.2508
     39 C           5.0820   -2.1949   18.9765 C.ar    1  UNL1        0.1026
     40 C           4.2495   -1.7345   20.1362 C.ar    1  UNL1        0.0181
     41 C           3.1344   -0.7554   19.9170 C.ar    1  UNL1       -0.0014
     42 C           2.8518   -0.2368   18.5382 C.ar    1  UNL1       -0.0027
     43 C           1.7367    0.7422   18.3191 C.3     1  UNL1        0.0327
     44 C           3.6844   -0.6973   17.3785 C.ar    1  UNL1        0.0943
     45 N           4.7995   -1.6763   17.5977 N.ar    1  UNL1       -0.2448
@<TRIPOS>UNITY_ATOM_ATTR
31 1
charge -1
@<TRIPOS>BOND
     1    23    24    1
     2    24    17    1
     3    17    18   ar
     4    18    19   ar
     5    19    20   ar
     6    20    11    1
     7    11    12   ar
     8    12    13   ar
     9    13    14   ar
    10    14    10    1
    11    10     1    1
    12     1     2   ar
    13     2    25    1
    14    25    26    1
    15    26    27    1
    16    26    28    1
    17    26    29    1
    18    29    30   ar
    19    29    31   ar
    20     2     3   ar
    21     3    32    1
    22    32    33    1
    23    33    34    1
    24    33    35    1
    25    33    36    1
    26     3     4   ar
    27     4     5   ar
    28     5     6   ar
    29     6    37    1
    30    37    38    1
    31    38    39    1
    32    39    40   ar
    33    40    41   ar
    34    41    42   ar
    35    42    43    1
    36    42    44   ar
    37    44    45   ar
    38     6     7   ar
    39     7     8   ar
    40     8     9   ar
    41    14    15   ar
    42    15    16   ar
    43    20    21   ar
    44    21    22   ar
    45    22    17   ar
    46    16    11   ar
    47     9     1   ar
    48     9     4   ar
    49    45    39   ar
@<TRIPOS>MOLECULE
*****
 45 49 0 0 0
SMALL
GASTEIGER

@<TRIPOS>ATOM
      1 N           2.6978    1.7574   29.8945 N.ar    1  UNL1       -0.3260
      2 C           3.2786    0.4993   30.4690 C.ar    1  UNL1        0.0433
      3 C           3.1983    0.5923   31.9640 C.ar    1  UNL1        0.0383
      4 C           2.5681    1.9079   32.3134 C.ar    1  UNL1        0.0256
      5 C           2.2358    2.5431   33.6310 C.ar    1  UNL1        0.0389
      6 C           1.5943    3.8984   33.6696 C.ar    1  UNL1        0.1392
      7 C           1.2850    4.6185   32.3906 C.ar    1  UNL1        0.0384
      8 C           1.6172    3.9832   31.0730 C.ar    1  UNL1        0.0203
      9 C           2.2587    2.6279   31.0344 C.ar    1  UNL1        0.0606
     10 C           2.5774    2.0871   28.4362 C.3     1  UNL1        0.1324
     11 C          -1.4254    3.1920   26.7022 C.ar    1  UNL1        0.0358
     12 C          -0.2579    4.1205   26.5452 C.ar    1  UNL1        0.0028
     13 C           1.0764    3.7523   27.1232 C.ar    1  UNL1       -0.0023
     14 C           1.2432    2.4554   27.8582 C.ar    1  UNL1        0.0004
     15 C           0.0756    1.5268   28.0152 C.ar    1  UNL1       -0.0023
     16 C          -1.2587    1.8950   27.4372 C.ar    1  UNL1        0.0028
     17 C          -5.4282    4.2967   24.9682 C.ar    1  UNL1        0.1769
     18 C          -5.1220    4.6050   26.4039 C.ar    1  UNL1        0.1389
     19 N          -3.7877    4.2367   26.9819 N.ar    1  UNL1       -0.2218
     20 C          -2.7597    3.5602   26.1242 C.ar    1  UNL1        0.1625
     21 N          -3.0660    3.2519   24.6885 N.ar    1  UNL1       -0.2218
     22 C          -4.4003    3.6202   24.1105 C.ar    1  UNL1        0.1389
     23 C          -7.0703    4.3533   22.9556 C.3     1  UNL1        0.2526
     24 O          -6.7625    4.6649   24.3902 O.3     1  UNL1       -0.4683
     25 C           3.8408   -0.6499   29.6860 C.3     1  UNL1        0.0495
     26 C           4.7868   -0.3926   28.5508 C.3     1  UNL1        0.0376
     27 C           5.7401    0.2756   29.4967 C.3     1  UNL1        0.0059
     28 C           3.8336   -1.0608   27.6049 C.3     1  UNL1        0.0059
     29 C           5.7330   -0.1352   27.4156 C.2     1  UNL1        0.0500
     30 O           5.5799    1.0989   26.5768 O.co2   1  UNL1       -0.5492
     31 O           6.8321   -1.1120   27.1192 O.co2   1  UNL1       -0.5492
     32 S           3.6663   -0.4476   32.9384 S.3     1  UNL1       -0.1142
     33 C           5.1155   -0.8318   32.9871 C.3     1  UNL1        0.0434
     34 C           4.7467   -2.2585   32.7070 C.3     1  UNL1        0.0112
     35 C           5.4842    0.5950   33.2672 C.3     1  UNL1        0.0112
     36 C           6.5646   -1.2158   33.0358 C.3     1  UNL1        0.0112
     37 O           1.2620    4.5337   34.9872 O.3     1  UNL1       -0.4690
     38 C           2.1880    4.3660   36.1554 C.3     1  UNL1        0.2508
     39 C           1.9680    3.2495   37.1325 C.ar    1  UNL1        0.1026
     40 C           2.9156    2.0873   37.1692 C.ar    1  UNL1        0.0181
     41 C           2.6955    0.9707   38.1464 C.ar    1  UNL1       -0.0014
     42 C           1.5279    1.0164   39.0869 C.ar    1  UNL1       -0.0027
     43 C           1.3079   -0.1002   40.0641 C.3     1  UNL1        0.0327
     44 C           0.5803    2.1785   39.0502 C.ar    1  UNL1        0.0943
     45 N           0.8003    3.2951   38.0731 N.ar    1  UNL1       -0.2448
@<TRIPOS>UNITY_ATOM_ATTR
31 1
charge -1
@<TRIPOS>BOND
     1    23    24    1
     2    24    17    1
     3    17    18   ar
     4    18    19   ar
     5    19    20   ar
     6    20    11    1
     7    11    12   ar
     8    12    13   ar
     9    13    14   ar
    10    14    10    1
    11    10     1    1
    12     1     2   ar
    13     2    25    1
    14    25    26    1
    15    26    27    1
    16    26    28    1
    17    26    29    1
    18    29    30   ar
    19    29    31   ar
    20     2     3   ar
    21     3    32    1
    22    32    33    1
    23    33    34    1
    24    33    35    1
    25    33    36    1
    26     3     4   ar
    27     4     5   ar
    28     5     6   ar
    29     6    37    1
    30    37    38    1
    31    38    39    1
    32    39    40   ar
    33    40    41   ar
    34    41    42   ar
    35    42    43    1
    36    42    44   ar
    37    44    45   ar
    38     6     7   ar
    39     7     8   ar
    40     8     9   ar
    41    14    15   ar
    42    15    16   ar
    43    20    21   ar
    44    21    22   ar
    45    22    17   ar
    46    16    11   ar
    47     9     1   ar
    48     9     4   ar
    49    45    39   ar
@<TRIPOS>MOLECULE
*****
 45 49 0 0 0
SMALL
GASTEIGER

@<TRIPOS>ATOM
      1 N           2.0822    2.6294   26.0267 N.ar    1  UNL1       -0.3260
      2 C           0.6467    2.8821   26.3811 C.ar    1  UNL1        0.0433
      3 C          -0.1720    2.7324   25.1332 C.ar    1  UNL1        0.0383
      4 C           0.7575    2.3872   24.0076 C.ar    1  UNL1        0.0256
      5 C           0.5152    2.1226   22.5511 C.ar    1  UNL1        0.0389
      6 C           1.6662    1.7944   21.6469 C.ar    1  UNL1        0.1392
      7 C           3.0593    1.7307   22.1992 C.ar    1  UNL1        0.0384
      8 C           3.3016    1.9953   23.6556 C.ar    1  UNL1        0.0203
      9 C           2.1507    2.3235   24.5598 C.ar    1  UNL1        0.0606
     10 C           3.2451    2.6746   26.9731 C.3     1  UNL1        0.1324
     11 C           5.1430   -1.1515   28.3905 C.ar    1  UNL1        0.0358
     12 C           3.8747   -1.1947   27.5909 C.ar    1  UNL1        0.0028
     13 C           3.2420    0.0806   27.1184 C.ar    1  UNL1       -0.0023
     14 C           3.8777    1.3993   27.4455 C.ar    1  UNL1        0.0004
     15 C           5.1461    1.4425   28.2452 C.ar    1  UNL1       -0.0023
     16 C           5.7787    0.1672   28.7177 C.ar    1  UNL1        0.0028
     17 C           7.0409   -4.9775   29.8080 C.ar    1  UNL1        0.1769
     18 C           6.7978   -3.8575   30.7758 C.ar    1  UNL1        0.1389
     19 N           6.1652   -2.5821   30.3033 N.ar    1  UNL1       -0.2218
     20 C           5.7756   -2.4268   28.8630 C.ar    1  UNL1        0.1625
     21 N           6.0188   -3.5468   27.8953 N.ar    1  UNL1       -0.2218
     22 C           6.6515   -4.8222   28.3678 C.ar    1  UNL1        0.1389
     23 C           8.7519   -6.9023   29.4648 C.3     1  UNL1        0.2526
     24 O           7.6736   -6.2528   30.2805 O.3     1  UNL1       -0.4683
     25 C           0.1221    3.2243   27.7440 C.3     1  UNL1        0.0495
     26 C           0.3074    2.2646   28.8818 C.3     1  UNL1        0.0376
     27 C           0.9867    3.3392   29.6777 C.3     1  UNL1        0.0059
     28 C          -0.3719    1.1899   28.0858 C.3     1  UNL1        0.0059
     29 C           0.4926    1.3048   30.0196 C.2     1  UNL1        0.0500
     30 O           0.2687    1.7621   31.4305 O.co2   1  UNL1       -0.5492
     31 O           0.9018   -0.1122   29.7465 O.co2   1  UNL1       -0.5492
     32 S          -1.6591    2.8987   25.0291 S.3     1  UNL1       -0.1142
     33 C          -2.2848    4.2357   25.2958 C.3     1  UNL1        0.0434
     34 C          -3.0388    3.6518   26.4536 C.3     1  UNL1        0.0112
     35 C          -1.5306    4.8195   24.1380 C.3     1  UNL1        0.0112
     36 C          -2.9103    5.5727   25.5624 C.3     1  UNL1        0.0112
     37 O           1.4239    1.5298   20.1904 O.3     1  UNL1       -0.4690
     38 C           2.5810    1.2612   19.2744 C.3     1  UNL1        0.2508
     39 C           3.1107   -0.1341   19.1245 C.ar    1  UNL1        0.1026
     40 C           2.6444   -1.2170   20.0517 C.ar    1  UNL1        0.0181
     41 C           3.1742   -2.6124   19.9018 C.ar    1  UNL1       -0.0014
     42 C           4.1703   -2.9247   18.8248 C.ar    1  UNL1       -0.0027
     43 C           4.7001   -4.3200   18.6749 C.3     1  UNL1        0.0327
     44 C           4.6367   -1.8417   17.8975 C.ar    1  UNL1        0.0943
     45 N           4.1069   -0.4465   18.0474 N.ar    1  UNL1       -0.2448
@<TRIPOS>UNITY_ATOM_ATTR
31 1
charge -1
@<TRIPOS>BOND
     1    23    24    1
     2    24    17    1
     3    17    18   ar
     4    18    19   ar
     5    19    20   ar
     6    20    11    1
     7    11    12   ar
     8    12    13   ar
     9    13    14   ar
    10    14    10    1
    11    10     1    1
    12     1     2   ar
    13     2    25    1
    14    25    26    1
    15    26    27    1
    16    26    28    1
    17    26    29    1
    18    29    30   ar
    19    29    31   ar
    20     2     3   ar
    21     3    32    1
    22    32    33    1
    23    33    34    1
    24    33    35    1
    25    33    36    1
    26     3     4   ar
    27     4     5   ar
    28     5     6   ar
    29     6    37    1
    30    37    38    1
    31    38    39    1
    32    39    40   ar
    33    40    41   ar
    34    41    42   ar
    35    42    43    1
    36    42    44   ar
    37    44    45   ar
    38     6     7   ar
    39     7     8   ar
    40     8     9   ar
    41    14    15   ar
    42    15    16   ar
    43    20    21   ar
    44    21    22   ar
    45    22    17   ar
    46    16    11   ar
    47     9     1   ar
    48     9     4   ar
    49    45    39   ar
@<TRIPOS>MOLECULE
*****
 45 49 0 0 0
SMALL
GASTEIGER

@<TRIPOS>ATOM
      1 N           1.8878    2.6572   25.8996 N.ar    1  UNL1       -0.3260
      2 C           0.4762    2.9719   26.2973 C.ar    1  UNL1        0.0433
      3 C          -0.3566    3.0210   25.0507 C.ar    1  UNL1        0.0383
      4 C           0.5404    2.7366   23.8825 C.ar    1  UNL1        0.0256
      5 C           0.2733    2.6534   22.4089 C.ar    1  UNL1        0.0389
      6 C           1.3934    2.3453   21.4599 C.ar    1  UNL1        0.1392
      7 C           2.7805    2.1205   21.9846 C.ar    1  UNL1        0.0384
      8 C           3.0476    2.2037   23.4583 C.ar    1  UNL1        0.0203
      9 C           1.9276    2.5118   24.4072 C.ar    1  UNL1        0.0606
     10 C           3.0549    2.5133   26.8309 C.3     1  UNL1        0.1324
     11 C           5.2456   -1.4080   27.1035 C.ar    1  UNL1        0.0358
     12 C           6.0089   -0.1366   26.8783 C.ar    1  UNL1        0.0028
     13 C           5.2787    1.1706   26.7874 C.ar    1  UNL1       -0.0023
     14 C           3.7851    1.2062   26.9217 C.ar    1  UNL1        0.0004
     15 C           3.0218   -0.0653   27.1470 C.ar    1  UNL1       -0.0023
     16 C           3.7520   -1.3724   27.2379 C.ar    1  UNL1        0.0028
     17 C           7.4362   -5.3293   27.3762 C.ar    1  UNL1        0.1769
     18 C           7.1164   -4.7407   26.0341 C.ar    1  UNL1        0.1389
     19 N           6.3862   -3.4336   25.9432 N.ar    1  UNL1       -0.2218
     20 C           5.9758   -2.7151   27.1944 C.ar    1  UNL1        0.1625
     21 N           6.2956   -3.3038   28.5365 N.ar    1  UNL1       -0.2218
     22 C           7.0258   -4.6109   28.6274 C.ar    1  UNL1        0.1389
     23 C           8.5353   -7.1978   28.8082 C.3     1  UNL1        0.2526
     24 O           8.1664   -6.6364   27.4671 O.3     1  UNL1       -0.4683
     25 C          -0.0163    3.1979   27.6960 C.3     1  UNL1        0.0495
     26 C           0.1745    2.1368   28.7389 C.3     1  UNL1        0.0376
     27 C          -0.5532    1.1532   27.8714 C.3     1  UNL1        0.0059
     28 C           0.9023    3.1205   29.6065 C.3     1  UNL1        0.0059
     29 C           0.3654    1.0757   29.7819 C.2     1  UNL1        0.0500
     30 O           0.2172   -0.3713   29.4154 O.co2   1  UNL1       -0.5492
     31 O           0.7044    1.4615   31.1911 O.co2   1  UNL1       -0.5492
     32 S          -1.8280    3.3046   24.9838 S.3     1  UNL1       -0.1142
     33 C          -2.3688    4.5939   25.5275 C.3     1  UNL1        0.0434
     34 C          -1.5121    5.3597   24.5634 C.3     1  UNL1        0.0112
     35 C          -3.2254    3.8280   26.4916 C.3     1  UNL1        0.0112
     36 C          -2.9095    5.8830   26.0712 C.3     1  UNL1        0.0112
     37 O           1.1263    2.2620   19.9862 O.3     1  UNL1       -0.4690
     38 C           0.8200    0.9370   19.3532 C.3     1  UNL1        0.2508
     39 C           1.9256   -0.0419   19.0899 C.ar    1  UNL1        0.1026
     40 C           2.8349    0.1524   17.9128 C.ar    1  UNL1        0.0181
     41 C           3.9405   -0.8266   17.6496 C.ar    1  UNL1       -0.0014
     42 C           4.1368   -1.9998   18.5634 C.ar    1  UNL1       -0.0027
     43 C           5.2424   -2.9787   18.3001 C.3     1  UNL1        0.0327
     44 C           3.2275   -2.1940   19.7404 C.ar    1  UNL1        0.0943
     45 N           2.1220   -1.2151   20.0037 N.ar    1  UNL1       -0.2448
@<TRIPOS>UNITY_ATOM_ATTR
31 1
charge -1
@<TRIPOS>BOND
     1    23    24    1
     2    24    17    1
     3    17    18   ar
     4    18    19   ar
     5    19    20   ar
     6    20    11    1
     7    11    12   ar
     8    12    13   ar
     9    13    14   ar
    10    14    10    1
    11    10     1    1
    12     1     2   ar
    13     2    25    1
    14    25    26    1
    15    26    27    1
    16    26    28    1
    17    26    29    1
    18    29    30   ar
    19    29    31   ar
    20     2     3   ar
    21     3    32    1
    22    32    33    1
    23    33    34    1
    24    33    35    1
    25    33    36    1
    26     3     4   ar
    27     4     5   ar
    28     5     6   ar
    29     6    37    1
    30    37    38    1
    31    38    39    1
    32    39    40   ar
    33    40    41   ar
    34    41    42   ar
    35    42    43    1
    36    42    44   ar
    37    44    45   ar
    38     6     7   ar
    39     7     8   ar
    40     8     9   ar
    41    14    15   ar
    42    15    16   ar
    43    20    21   ar
    44    21    22   ar
    45    22    17   ar
    46    16    11   ar
    47     9     1   ar
    48     9     4   ar
    49    45    39   ar
