@<TRIPOS>MOLECULE
*****
 25 27 0 0 0
SMALL
GASTEIGER

@<TRIPOS>ATOM
      1 C          -6.5841  -18.9689   21.5596 C.3     1  UNL1        0.1471
      2 O          -7.4976  -19.6912   20.6143 O.3     1  UNL1       -0.3812
      3 C          -5.4636  -18.4667   22.4211 C.3     1  UNL1        0.0584
      4 C          -5.9520  -17.2541   23.1567 C.ar    1  UNL1       -0.0202
      5 C          -5.2854  -16.3432   24.1445 C.ar    1  UNL1       -0.0044
      6 C          -6.0412  -15.1850   24.7253 C.ar    1  UNL1       -0.0003
      7 C          -7.4636  -14.9379   24.3185 C.ar    1  UNL1       -0.0002
      8 C          -8.1303  -15.8488   23.3307 C.ar    1  UNL1       -0.0011
      9 C          -7.3745  -17.0069   22.7498 C.ar    1  UNL1        0.0157
     10 C          -7.7651  -18.0667   21.7628 C.3     1  UNL1        0.2136
     11 H          -7.0291  -20.4463   20.2254 H       1  UNL1        0.2105
     12 C          -5.5940  -20.0220   21.1588 C.3     1  UNL1        0.1001
     13 C          -3.6305  -19.4679   19.5502 C.3     1  UNL1        0.0859
     14 N          -4.1556  -19.6557   20.9426 N.3     1  UNL1       -0.2942
     15 H          -3.9976  -18.7781   21.4378 H       1  UNL1        0.1234
     16 O          -9.1020  -18.2008   21.0960 O.3     1  UNL1       -0.4726
     17 C         -10.3576  -18.1451   21.9149 C.ar    1  UNL1        0.1351
     18 C         -10.4131  -18.8267   23.2499 C.ar    1  UNL1        0.0397
     19 C         -11.6685  -18.7710   24.0689 C.ar    1  UNL1        0.0397
     20 C         -12.8685  -18.0337   23.5528 C.ar    1  UNL1        0.1336
     21 O         -14.1240  -17.9779   24.3717 O.3     1  UNL1       -0.5055
     22 C         -12.8130  -17.3520   22.2177 C.ar    1  UNL1        0.0354
     23 C         -11.5576  -17.4077   21.3988 C.ar    1  UNL1        0.0151
     24 C         -11.5021  -16.7261   20.0638 C.3     1  UNL1        0.0343
     25 H         -14.1587  -18.4037   25.2056 H       1  UNL1        0.2922
@<TRIPOS>BOND
     1    13    14    1
     2    14    12    1
     3    12     1    1
     4     1     2    1
     5     1     3    1
     6     3     4    1
     7     4     5   ar
     8     5     6   ar
     9     6     7   ar
    10     7     8   ar
    11     8     9   ar
    12     9    10    1
    13    10    16    1
    14    16    17    1
    15    17    18   ar
    16    18    19   ar
    17    19    20   ar
    18    20    21    1
    19    20    22   ar
    20    22    23   ar
    21    23    24    1
    22    10     1    1
    23    23    17   ar
    24     9     4   ar
    25    14    15    1
    26     2    11    1
    27    21    25    1
@<TRIPOS>MOLECULE
*****
 25 27 0 0 0
SMALL
GASTEIGER

@<TRIPOS>ATOM
      1 C          -6.0359  -16.4929   23.6601 C.3     1  UNL1        0.1471
      2 O          -4.6108  -16.7211   24.0689 O.3     1  UNL1       -0.3812
      3 C          -7.4386  -16.0116   23.4350 C.3     1  UNL1        0.0584
      4 C          -8.1146  -16.9729   22.5029 C.ar    1  UNL1       -0.0202
      5 C          -9.4997  -17.0078   21.9284 C.ar    1  UNL1       -0.0044
      6 C          -9.9000  -18.1183   21.0029 C.ar    1  UNL1       -0.0003
      7 C          -8.9150  -19.1938   20.6519 C.ar    1  UNL1       -0.0002
      8 C          -7.5299  -19.1588   21.2264 C.ar    1  UNL1       -0.0011
      9 C          -7.1297  -18.0484   22.1519 C.ar    1  UNL1        0.0157
     10 C          -5.8450  -17.7517   22.8671 C.3     1  UNL1        0.2136
     11 H          -4.3293  -16.0132   24.6693 H       1  UNL1        0.2105
     12 C          -5.9289  -15.2818   24.5386 C.3     1  UNL1        0.1001
     13 C          -6.6320  -15.5022   27.0300 C.3     1  UNL1        0.0859
     14 N          -6.9328  -15.0558   25.6300 N.3     1  UNL1       -0.2942
     15 H          -7.1017  -14.0507   25.6712 H       1  UNL1        0.1234
     16 O          -4.5897  -18.5702   22.8009 O.3     1  UNL1       -0.4726
     17 C          -3.6189  -18.3649   21.6759 C.ar    1  UNL1        0.1351
     18 C          -2.5941  -17.2727   21.7595 C.ar    1  UNL1        0.0397
     19 C          -1.6234  -17.0674   20.6346 C.ar    1  UNL1        0.0397
     20 C          -1.6774  -17.9542   19.4261 C.ar    1  UNL1        0.1336
     21 O          -0.7067  -17.7489   18.3011 O.3     1  UNL1       -0.5055
     22 C          -2.7022  -19.0464   19.3424 C.ar    1  UNL1        0.0354
     23 C          -3.6729  -19.2517   20.4673 C.ar    1  UNL1        0.0151
     24 C          -4.6977  -20.3439   20.3837 C.3     1  UNL1        0.0343
     25 H          -0.0665  -17.0667   18.3533 H       1  UNL1        0.2922
@<TRIPOS>BOND
     1    13    14    1
     2    14    12    1
     3    12     1    1
     4     1     2    1
     5     1     3    1
     6     3     4    1
     7     4     5   ar
     8     5     6   ar
     9     6     7   ar
    10     7     8   ar
    11     8     9   ar
    12     9    10    1
    13    10    16    1
    14    16    17    1
    15    17    18   ar
    16    18    19   ar
    17    19    20   ar
    18    20    21    1
    19    20    22   ar
    20    22    23   ar
    21    23    24    1
    22    10     1    1
    23    23    17   ar
    24     9     4   ar
    25    14    15    1
    26     2    11    1
    27    21    25    1
@<TRIPOS>MOLECULE
*****
 25 27 0 0 0
SMALL
GASTEIGER

@<TRIPOS>ATOM
      1 C          -5.9152  -18.9011   21.8975 C.3     1  UNL1        0.1471
      2 O          -6.6163  -19.8391   20.9602 O.3     1  UNL1       -0.3812
      3 C          -4.9601  -18.1317   22.7611 C.3     1  UNL1        0.0584
      4 C          -5.7310  -17.0457   23.4512 C.ar    1  UNL1       -0.0202
      5 C          -5.3144  -15.9801   24.4212 C.ar    1  UNL1       -0.0044
      6 C          -6.3294  -15.0126   24.9540 C.ar    1  UNL1       -0.0003
      7 C          -7.7609  -15.1108   24.5169 C.ar    1  UNL1       -0.0002
      8 C          -8.1775  -16.1764   23.5469 C.ar    1  UNL1       -0.0011
      9 C          -7.1625  -17.1438   23.0141 C.ar    1  UNL1        0.0157
     10 C          -7.2763  -18.2905   22.0538 C.3     1  UNL1        0.2136
     11 H          -5.9779  -20.4756   20.6022 H       1  UNL1        0.2105
     12 C          -4.7006  -19.7077   21.5452 C.3     1  UNL1        0.1001
     13 C          -3.4061  -18.8591   19.4585 C.3     1  UNL1        0.0859
     14 N          -3.5016  -19.0350   20.9451 N.3     1  UNL1       -0.2942
     15 H          -3.4508  -18.1027   21.3558 H       1  UNL1        0.1234
     16 O          -8.5310  -18.7466   21.3699 O.3     1  UNL1       -0.4726
     17 C          -9.8623  -18.5401   22.0297 C.ar    1  UNL1        0.1351
     18 C         -10.8262  -17.5336   21.4749 C.ar    1  UNL1        0.0397
     19 C         -12.1574  -17.3270   22.1345 C.ar    1  UNL1        0.0397
     20 C         -12.5248  -18.1271   23.3490 C.ar    1  UNL1        0.1336
     21 O         -13.8560  -17.9206   24.0087 O.3     1  UNL1       -0.5055
     22 C         -11.5609  -19.1336   23.9038 C.ar    1  UNL1        0.0354
     23 C         -10.2297  -19.3402   23.2442 C.ar    1  UNL1        0.0151
     24 C          -9.2658  -20.3467   23.7989 C.3     1  UNL1        0.0343
     25 H         -14.4581  -17.2919   23.6622 H       1  UNL1        0.2922
@<TRIPOS>BOND
     1    13    14    1
     2    14    12    1
     3    12     1    1
     4     1     2    1
     5     1     3    1
     6     3     4    1
     7     4     5   ar
     8     5     6   ar
     9     6     7   ar
    10     7     8   ar
    11     8     9   ar
    12     9    10    1
    13    10    16    1
    14    16    17    1
    15    17    18   ar
    16    18    19   ar
    17    19    20   ar
    18    20    21    1
    19    20    22   ar
    20    22    23   ar
    21    23    24    1
    22    10     1    1
    23    23    17   ar
    24     9     4   ar
    25    14    15    1
    26     2    11    1
    27    21    25    1
@<TRIPOS>MOLECULE
*****
 25 27 0 0 0
SMALL
GASTEIGER

@<TRIPOS>ATOM
      1 C         -10.3337  -17.7987   24.0970 C.3     1  UNL1        0.1471
      2 O          -9.1915  -17.7074   25.0649 O.3     1  UNL1       -0.3812
      3 C         -11.5929  -18.0936   23.3370 C.3     1  UNL1        0.0584
      4 C         -11.5732  -17.2831   22.0750 C.ar    1  UNL1       -0.0202
      5 C         -12.5486  -17.1669   20.9414 C.ar    1  UNL1       -0.0044
      6 C         -12.2527  -16.2548   19.7879 C.ar    1  UNL1       -0.0003
      7 C         -10.9814  -15.4590   19.7680 C.ar    1  UNL1       -0.0002
      8 C         -10.0060  -15.5752   20.9015 C.ar    1  UNL1       -0.0011
      9 C         -10.3019  -16.4872   22.0550 C.ar    1  UNL1        0.0157
     10 C          -9.5359  -16.8059   23.3047 C.3     1  UNL1        0.2136
     11 H          -9.3612  -18.2905   25.8213 H       1  UNL1        0.2105
     12 C         -10.8929  -18.7724   25.0916 C.3     1  UNL1        0.1001
     13 C          -9.4748  -20.7707   24.2278 C.3     1  UNL1        0.0859
     14 N         -10.1880  -20.0717   25.3470 N.3     1  UNL1       -0.2942
     15 H          -9.4935  -19.8923   26.0722 H       1  UNL1        0.1234
     16 O          -8.2055  -16.2325   23.6938 O.3     1  UNL1       -0.4726
     17 C          -6.9417  -16.9487   23.3196 C.ar    1  UNL1        0.1351
     18 C          -6.9960  -18.1402   22.4100 C.ar    1  UNL1        0.0397
     19 C          -5.7323  -18.8563   22.0358 C.ar    1  UNL1        0.0397
     20 C          -4.4142  -18.3810   22.5712 C.ar    1  UNL1        0.1336
     21 O          -3.1505  -19.0971   22.1971 O.3     1  UNL1       -0.5055
     22 C          -4.3599  -17.1895   23.4808 C.ar    1  UNL1        0.0354
     23 C          -5.6236  -16.4733   23.8550 C.ar    1  UNL1        0.0151
     24 C          -5.5693  -15.2818   24.7647 C.3     1  UNL1        0.0343
     25 H          -3.1844  -19.8414   21.6289 H       1  UNL1        0.2922
@<TRIPOS>BOND
     1    13    14    1
     2    14    12    1
     3    12     1    1
     4     1     2    1
     5     1     3    1
     6     3     4    1
     7     4     5   ar
     8     5     6   ar
     9     6     7   ar
    10     7     8   ar
    11     8     9   ar
    12     9    10    1
    13    10    16    1
    14    16    17    1
    15    17    18   ar
    16    18    19   ar
    17    19    20   ar
    18    20    21    1
    19    20    22   ar
    20    22    23   ar
    21    23    24    1
    22    10     1    1
    23    23    17   ar
    24     9     4   ar
    25    14    15    1
    26     2    11    1
    27    21    25    1
@<TRIPOS>MOLECULE
*****
 25 27 0 0 0
SMALL
GASTEIGER

@<TRIPOS>ATOM
      1 C          -6.1832  -18.8011   21.9566 C.3     1  UNL1        0.1471
      2 O          -7.0456  -19.7847   21.2227 O.3     1  UNL1       -0.3812
      3 C          -5.0867  -17.9566   22.5350 C.3     1  UNL1        0.0584
      4 C          -5.7089  -16.9749   23.4833 C.ar    1  UNL1       -0.0202
      5 C          -5.1182  -15.8952   24.3407 C.ar    1  UNL1       -0.0044
      6 C          -6.0085  -15.0534   25.2059 C.ar    1  UNL1       -0.0003
      7 C          -7.4895  -15.2912   25.2136 C.ar    1  UNL1       -0.0002
      8 C          -8.0802  -16.3709   24.3562 C.ar    1  UNL1       -0.0011
      9 C          -7.1899  -17.2127   23.4910 C.ar    1  UNL1        0.0157
     10 C          -7.4830  -18.3414   22.5475 C.3     1  UNL1        0.2136
     11 H          -6.4899  -20.3416   20.6552 H       1  UNL1        0.2105
     12 C          -5.0636  -19.4665   21.2123 C.3     1  UNL1        0.1001
     13 C          -3.1434  -19.0315   19.5172 C.3     1  UNL1        0.0859
     14 N          -4.5844  -18.8950   19.9109 N.3     1  UNL1       -0.2942
     15 H          -5.1340  -19.3380   19.1746 H       1  UNL1        0.1234
     16 O          -8.8381  -18.9104   22.2475 O.3     1  UNL1       -0.4726
     17 C          -9.8607  -18.0762   21.5342 C.ar    1  UNL1        0.1351
     18 C         -10.4397  -16.8651   22.2034 C.ar    1  UNL1        0.0397
     19 C         -11.4622  -16.0310   21.4903 C.ar    1  UNL1        0.0397
     20 C         -11.9057  -16.4080   20.1079 C.ar    1  UNL1        0.1336
     21 O         -12.9283  -15.5739   19.3947 O.3     1  UNL1       -0.5055
     22 C         -11.3267  -17.6192   19.4387 C.ar    1  UNL1        0.0354
     23 C         -10.3042  -18.4533   20.1518 C.ar    1  UNL1        0.0151
     24 C          -9.7252  -19.6644   19.4826 C.3     1  UNL1        0.0343
     25 H         -13.2900  -14.8174   19.8127 H       1  UNL1        0.2922
@<TRIPOS>BOND
     1    13    14    1
     2    14    12    1
     3    12     1    1
     4     1     2    1
     5     1     3    1
     6     3     4    1
     7     4     5   ar
     8     5     6   ar
     9     6     7   ar
    10     7     8   ar
    11     8     9   ar
    12     9    10    1
    13    10    16    1
    14    16    17    1
    15    17    18   ar
    16    18    19   ar
    17    19    20   ar
    18    20    21    1
    19    20    22   ar
    20    22    23   ar
    21    23    24    1
    22    10     1    1
    23    23    17   ar
    24     9     4   ar
    25    14    15    1
    26     2    11    1
    27    21    25    1
@<TRIPOS>MOLECULE
*****
 25 27 0 0 0
SMALL
GASTEIGER

@<TRIPOS>ATOM
      1 C          -6.1134  -15.9087   23.7199 C.3     1  UNL1        0.1471
      2 O          -6.9515  -14.6852   23.9447 O.3     1  UNL1       -0.3812
      3 C          -5.0798  -16.9955   23.6985 C.3     1  UNL1        0.0584
      4 C          -5.5517  -18.0656   22.7592 C.ar    1  UNL1       -0.0202
      5 C          -4.9458  -19.3724   22.3409 C.ar    1  UNL1       -0.0044
      6 C          -5.6652  -20.2538   21.3634 C.ar    1  UNL1       -0.0003
      7 C          -6.9905  -19.8285   20.8043 C.ar    1  UNL1       -0.0002
      8 C          -7.5964  -18.5216   21.2227 C.ar    1  UNL1       -0.0011
      9 C          -6.8770  -17.6402   22.2002 C.ar    1  UNL1        0.0157
     10 C          -7.2242  -16.3072   22.7939 C.3     1  UNL1        0.2136
     11 H          -6.5050  -14.0987   24.5752 H       1  UNL1        0.2105
     12 C          -5.1779  -15.2544   24.6929 C.3     1  UNL1        0.1001
     13 C          -6.3710  -15.5286   26.9845 C.3     1  UNL1        0.0859
     14 N          -5.7124  -14.6539   25.9592 N.3     1  UNL1       -0.2942
     15 H          -4.9271  -14.1970   26.4228 H       1  UNL1        0.1234
     16 O          -8.4644  -15.5122   22.5112 O.3     1  UNL1       -0.4726
     17 C          -9.7881  -16.2067   22.3861 C.ar    1  UNL1        0.1351
     18 C         -10.5945  -16.0632   21.1294 C.ar    1  UNL1        0.0397
     19 C         -11.9181  -16.7576   21.0042 C.ar    1  UNL1        0.0397
     20 C         -12.4354  -17.5955   22.1357 C.ar    1  UNL1        0.1336
     21 O         -13.7591  -18.2899   22.0106 O.3     1  UNL1       -0.5055
     22 C         -11.6291  -17.7389   23.3924 C.ar    1  UNL1        0.0354
     23 C         -10.3054  -17.0446   23.5176 C.ar    1  UNL1        0.0151
     24 C          -9.4991  -17.1880   24.7743 C.3     1  UNL1        0.0343
     25 H         -14.2628  -18.2003   21.2256 H       1  UNL1        0.2922
@<TRIPOS>BOND
     1    13    14    1
     2    14    12    1
     3    12     1    1
     4     1     2    1
     5     1     3    1
     6     3     4    1
     7     4     5   ar
     8     5     6   ar
     9     6     7   ar
    10     7     8   ar
    11     8     9   ar
    12     9    10    1
    13    10    16    1
    14    16    17    1
    15    17    18   ar
    16    18    19   ar
    17    19    20   ar
    18    20    21    1
    19    20    22   ar
    20    22    23   ar
    21    23    24    1
    22    10     1    1
    23    23    17   ar
    24     9     4   ar
    25    14    15    1
    26     2    11    1
    27    21    25    1
@<TRIPOS>MOLECULE
*****
 25 27 0 0 0
SMALL
GASTEIGER

@<TRIPOS>ATOM
      1 C          -8.1843  -16.2992   24.2952 C.3     1  UNL1        0.1471
      2 O          -7.0848  -15.5308   23.6239 O.3     1  UNL1       -0.3812
      3 C          -9.2636  -16.8426   25.1840 C.3     1  UNL1        0.0584
      4 C          -9.7974  -18.0943   24.5528 C.ar    1  UNL1       -0.0202
      5 C         -10.8691  -19.0541   24.9774 C.ar    1  UNL1       -0.0044
      6 C         -11.1913  -20.2441   24.1230 C.ar    1  UNL1       -0.0003
      7 C         -10.4419  -20.4744   22.8442 C.ar    1  UNL1       -0.0002
      8 C          -9.3703  -19.5145   22.4197 C.ar    1  UNL1       -0.0011
      9 C          -9.0481  -18.3245   23.2740 C.ar    1  UNL1        0.0157
     10 C          -8.0511  -17.2151   23.1148 C.3     1  UNL1        0.2136
     11 H          -6.8590  -14.7545   24.1599 H       1  UNL1        0.2105
     12 C          -8.0876  -15.2228   25.3354 C.3     1  UNL1        0.1001
     13 C          -6.3289  -15.7865   27.1627 C.3     1  UNL1        0.0859
     14 N          -7.7573  -15.5786   26.7546 N.3     1  UNL1       -0.2942
     15 H          -8.1244  -14.8279   27.3395 H       1  UNL1        0.1234
     16 O          -7.0897  -17.0505   21.9752 O.3     1  UNL1       -0.4726
     17 C          -5.8517  -17.8951   21.9104 C.ar    1  UNL1        0.1351
     18 C          -4.7328  -17.6616   22.8817 C.ar    1  UNL1        0.0397
     19 C          -3.4948  -18.5060   22.8170 C.ar    1  UNL1        0.0397
     20 C          -3.3758  -19.5841   21.7808 C.ar    1  UNL1        0.1336
     21 O          -2.1379  -20.4287   21.7160 O.3     1  UNL1       -0.5055
     22 C          -4.4947  -19.8177   20.8095 C.ar    1  UNL1        0.0354
     23 C          -5.7327  -18.9732   20.8743 C.ar    1  UNL1        0.0151
     24 C          -6.8516  -19.2067   19.9029 C.3     1  UNL1        0.0343
     25 H          -1.4389  -20.2828   22.3228 H       1  UNL1        0.2922
@<TRIPOS>BOND
     1    13    14    1
     2    14    12    1
     3    12     1    1
     4     1     2    1
     5     1     3    1
     6     3     4    1
     7     4     5   ar
     8     5     6   ar
     9     6     7   ar
    10     7     8   ar
    11     8     9   ar
    12     9    10    1
    13    10    16    1
    14    16    17    1
    15    17    18   ar
    16    18    19   ar
    17    19    20   ar
    18    20    21    1
    19    20    22   ar
    20    22    23   ar
    21    23    24    1
    22    10     1    1
    23    23    17   ar
    24     9     4   ar
    25    14    15    1
    26     2    11    1
    27    21    25    1
@<TRIPOS>MOLECULE
*****
 25 27 0 0 0
SMALL
GASTEIGER

@<TRIPOS>ATOM
      1 C         -13.1605   -3.7708   18.5550 C.3     1  UNL1        0.1471
      2 O         -14.5863   -3.6165   18.1152 O.3     1  UNL1       -0.3812
      3 C         -11.7641   -3.6256   19.0831 C.3     1  UNL1        0.0584
      4 C         -11.0587   -4.9359   18.8948 C.ar    1  UNL1       -0.0202
      5 C          -9.6659   -5.3829   19.2269 C.ar    1  UNL1       -0.0044
      6 C          -9.2336   -6.7848   18.9145 C.ar    1  UNL1       -0.0003
      7 C         -10.1941   -7.7398   18.2700 C.ar    1  UNL1       -0.0002
      8 C         -11.5869   -7.2929   17.9378 C.ar    1  UNL1       -0.0011
      9 C         -12.0192   -5.8909   18.2502 C.ar    1  UNL1        0.0157
     10 C         -13.3182   -5.1708   18.0402 C.3     1  UNL1        0.2136
     11 H         -14.8883   -2.7151   18.3078 H       1  UNL1        0.2105
     12 C         -13.3009   -2.3385   18.9778 C.3     1  UNL1        0.1001
     13 C         -12.4579   -0.1279   17.9042 C.3     1  UNL1        0.0859
     14 N         -13.4397   -1.2612   17.9433 N.3     1  UNL1       -0.2942
     15 H         -13.3966   -1.7197   17.0331 H       1  UNL1        0.1234
     16 O         -14.5573   -5.7492   17.4237 O.3     1  UNL1       -0.4726
     17 C         -15.1628   -6.9997   17.9892 C.ar    1  UNL1        0.1351
     18 C         -14.7488   -8.3401   17.4582 C.ar    1  UNL1        0.0397
     19 C         -15.3543   -9.5905   18.0236 C.ar    1  UNL1        0.0397
     20 C         -16.3739   -9.5006   19.1201 C.ar    1  UNL1        0.1336
     21 O         -16.9795  -10.7510   19.6856 O.3     1  UNL1       -0.5055
     22 C         -16.7880   -8.1602   19.6511 C.ar    1  UNL1        0.0354
     23 C         -16.1825   -6.9098   19.0857 C.ar    1  UNL1        0.0151
     24 C         -16.5966   -5.5694   19.6167 C.3     1  UNL1        0.0343
     25 H         -16.7208  -11.5883   19.3539 H       1  UNL1        0.2922
@<TRIPOS>BOND
     1    13    14    1
     2    14    12    1
     3    12     1    1
     4     1     2    1
     5     1     3    1
     6     3     4    1
     7     4     5   ar
     8     5     6   ar
     9     6     7   ar
    10     7     8   ar
    11     8     9   ar
    12     9    10    1
    13    10    16    1
    14    16    17    1
    15    17    18   ar
    16    18    19   ar
    17    19    20   ar
    18    20    21    1
    19    20    22   ar
    20    22    23   ar
    21    23    24    1
    22    10     1    1
    23    23    17   ar
    24     9     4   ar
    25    14    15    1
    26     2    11    1
    27    21    25    1
@<TRIPOS>MOLECULE
*****
 25 27 0 0 0
SMALL
GASTEIGER

@<TRIPOS>ATOM
      1 C          -7.9793  -16.2058   23.4993 C.3     1  UNL1        0.1471
      2 O          -7.1485  -15.6246   22.3938 O.3     1  UNL1       -0.3812
      3 C          -8.7602  -16.5102   24.7433 C.3     1  UNL1        0.0584
      4 C          -9.3075  -17.9012   24.6184 C.ar    1  UNL1       -0.0202
      5 C         -10.1517  -18.7338   25.5370 C.ar    1  UNL1       -0.0044
      6 C         -10.5533  -20.1218   25.1343 C.ar    1  UNL1       -0.0003
      7 C         -10.1106  -20.6772   23.8131 C.ar    1  UNL1       -0.0002
      8 C          -9.2663  -19.8445   22.8945 C.ar    1  UNL1       -0.0011
      9 C          -8.8648  -18.4565   23.2971 C.ar    1  UNL1        0.0157
     10 C          -8.0439  -17.4087   22.6056 C.3     1  UNL1        0.2136
     11 H          -6.8766  -14.7246   22.6326 H       1  UNL1        0.2105
     12 C          -7.7409  -14.8814   24.1620 C.3     1  UNL1        0.1001
     13 C          -5.6740  -15.2378   25.6952 C.3     1  UNL1        0.0859
     14 N          -6.3553  -14.4932   24.5855 N.3     1  UNL1       -0.2942
     15 H          -5.7599  -14.5823   23.7622 H       1  UNL1        0.1234
     16 O          -7.4006  -17.5407   21.2569 O.3     1  UNL1       -0.4726
     17 C          -7.7076  -18.7276   20.3925 C.ar    1  UNL1        0.1351
     18 C          -9.0211  -18.8119   19.6731 C.ar    1  UNL1        0.0397
     19 C          -9.3280  -19.9987   18.8087 C.ar    1  UNL1        0.0397
     20 C          -8.3214  -21.1012   18.6637 C.ar    1  UNL1        0.1336
     21 O          -8.6283  -22.2881   17.7992 O.3     1  UNL1       -0.5055
     22 C          -7.0079  -21.0170   19.3831 C.ar    1  UNL1        0.0354
     23 C          -6.7009  -19.8302   20.2475 C.ar    1  UNL1        0.0151
     24 C          -5.3874  -19.7459   20.9669 C.3     1  UNL1        0.0343
     25 H          -9.4488  -22.3407   17.3499 H       1  UNL1        0.2922
@<TRIPOS>BOND
     1    13    14    1
     2    14    12    1
     3    12     1    1
     4     1     2    1
     5     1     3    1
     6     3     4    1
     7     4     5   ar
     8     5     6   ar
     9     6     7   ar
    10     7     8   ar
    11     8     9   ar
    12     9    10    1
    13    10    16    1
    14    16    17    1
    15    17    18   ar
    16    18    19   ar
    17    19    20   ar
    18    20    21    1
    19    20    22   ar
    20    22    23   ar
    21    23    24    1
    22    10     1    1
    23    23    17   ar
    24     9     4   ar
    25    14    15    1
    26     2    11    1
    27    21    25    1
