@<TRIPOS>MOLECULE
*****
 31 36 0 0 0
SMALL
GASTEIGER

@<TRIPOS>ATOM
      1 O          -2.5057  -17.1753   24.2899 O.2     1  UNL1       -0.2700
      2 C          -3.8718  -17.3692   23.7016 C.2     1  UNL1        0.2504
      3 N          -4.7530  -16.4958   24.5446 N.am    1  UNL1       -0.3003
      4 C          -6.0861  -15.9152   24.9130 C.3     1  UNL1        0.0974
      5 C          -6.5451  -14.9553   25.9703 C.3     1  UNL1        0.0234
      6 C          -5.0966  -15.3339   25.8788 C.3     1  UNL1        0.0234
      7 C          -7.5659  -15.7606   24.7223 C.3     1  UNL1        0.2247
      8 O          -8.8533  -16.0674   24.0162 O.3     1  UNL1       -0.4587
      9 C          -9.6534  -16.7652   22.9565 C.ar    1  UNL1        0.2225
     10 N         -10.8659  -16.0681   23.4985 N.ar    1  UNL1       -0.2080
     11 C         -12.2080  -16.3000   22.8700 C.ar    1  UNL1        0.1316
     12 C         -12.3375  -17.2290   21.6994 C.ar    1  UNL1        0.1592
     13 F         -13.6796  -17.4610   21.0708 F       1  UNL1       -0.2025
     14 C         -11.1249  -17.9261   21.1574 C.ar    1  UNL1        0.0333
     15 C          -9.7829  -17.6941   21.7860 C.ar    1  UNL1        0.0536
     16 C          -9.2121  -18.6416   20.7727 C.3     1  UNL1        0.1309
     17 C         -10.6002  -18.7972   20.2258 C.3     1  UNL1        0.1665
     18 O         -10.8479  -19.7016   19.0551 O.3     1  UNL1       -0.3498
     19 C          -9.7076  -20.4503   18.4312 C.3     1  UNL1        0.1636
     20 C          -8.3196  -20.2947   18.9781 C.3     1  UNL1        0.1245
     21 N          -8.0718  -19.3903   20.1489 N.pl3   1  UNL1       -0.2858
     22 C          -6.6233  -19.7689   20.0575 C.ar    1  UNL1        0.1352
     23 C          -4.9536  -20.6548   19.4017 C.ar    1  UNL1        0.0551
     24 C          -3.4882  -20.7036   19.7182 C.ar    1  UNL1        0.1050
     25 N          -2.9387  -19.8915   20.8534 N.ar    1  UNL1       -0.2104
     26 N          -1.7279  -19.4978   21.6464 N.ar    1  UNL1       -0.1619
     27 C          -2.1642  -18.5361   22.7117 C.ar    1  UNL1        0.1281
     28 C          -3.6446  -18.3355   22.5770 C.ar    1  UNL1        0.1099
     29 C          -4.1233  -19.1732   21.4286 C.ar    1  UNL1        0.1710
     30 N          -5.1983  -19.6905   20.5193 N.ar    1  UNL1       -0.2116
     31 H          -4.1331  -16.0941   25.1955 H       1  UNL1        0.1498
@<TRIPOS>BOND
     1     1     2    2
     2     2     3   am
     3     3     4    1
     4     4     5    1
     5     5     6    1
     6     4     7    1
     7     7     8    1
     8     8     9    1
     9     9    10   ar
    10    10    11   ar
    11    11    12   ar
    12    12    13    1
    13    12    14   ar
    14    14    15   ar
    15    15    16    1
    16    16    17    1
    17    17    18    1
    18    18    19    1
    19    19    20    1
    20    20    21    1
    21    21    22    1
    22    22    23   ar
    23    23    24   ar
    24    24    25   ar
    25    25    26   ar
    26    26    27   ar
    27    27    28   ar
    28    28    29   ar
    29    29    30   ar
    30    28     2    1
    31     6     4    1
    32    15     9   ar
    33    21    16    1
    34    30    22   ar
    35    29    25   ar
    36     3    31    1
@<TRIPOS>MOLECULE
*****
 31 36 0 0 0
SMALL
GASTEIGER

@<TRIPOS>ATOM
      1 O         -12.2316   -0.9379   18.7228 O.2     1  UNL1       -0.2700
      2 C         -13.1169   -2.1473   18.7830 C.2     1  UNL1        0.2504
      3 N         -14.4484   -1.5970   19.2008 N.am    1  UNL1       -0.3003
      4 C         -15.8985   -1.7516   19.5517 C.3     1  UNL1        0.0974
      5 C         -16.9766   -0.7923   19.9610 C.3     1  UNL1        0.0234
      6 C         -15.5930   -0.2883   19.6754 C.3     1  UNL1        0.0234
      7 C         -17.1352   -2.5757   19.7554 C.3     1  UNL1        0.2247
      8 O         -17.8752   -3.8805   19.7652 O.3     1  UNL1       -0.4587
      9 C         -17.9488   -5.3670   19.5788 C.ar    1  UNL1        0.2225
     10 N         -19.3965   -5.2825   19.9621 N.ar    1  UNL1       -0.2080
     11 C         -20.2347   -6.5256   20.0056 C.ar    1  UNL1        0.1316
     12 C         -19.6252   -7.8534   19.6658 C.ar    1  UNL1        0.1592
     13 F         -20.4634   -9.0966   19.7093 F       1  UNL1       -0.2025
     14 C         -18.1775   -7.9380   19.2824 C.ar    1  UNL1        0.0333
     15 C         -17.3393   -6.6948   19.2390 C.ar    1  UNL1        0.0536
     16 C         -16.1863   -7.5597   18.8235 C.3     1  UNL1        0.1309
     17 C         -17.1174   -8.7332   18.9005 C.3     1  UNL1        0.1665
     18 O         -16.6160  -10.1104   18.5816 O.3     1  UNL1       -0.3498
     19 C         -15.1836  -10.3142   18.1857 C.3     1  UNL1        0.1636
     20 C         -14.2525   -9.1408   18.1087 C.3     1  UNL1        0.1245
     21 N         -14.7539   -7.7634   18.4277 N.pl3   1  UNL1       -0.2858
     22 C         -13.3703   -7.2594   18.1421 C.ar    1  UNL1        0.1352
     23 C         -11.4331   -7.2774   17.6423 C.ar    1  UNL1        0.0551
     24 C         -10.2878   -6.3224   17.4801 C.ar    1  UNL1        0.1050
     25 N         -10.4907   -4.8581   17.7345 N.ar    1  UNL1       -0.2104
     26 N          -9.8750   -3.4906   17.7652 N.ar    1  UNL1       -0.1619
     27 C         -10.9372   -2.5131   18.1729 C.ar    1  UNL1        0.1281
     28 C         -12.2093   -3.2765   18.3941 C.ar    1  UNL1        0.1099
     29 C         -11.9334   -4.7257   18.1231 C.ar    1  UNL1        0.1710
     30 N         -12.3524   -6.1631   18.0321 N.ar    1  UNL1       -0.2116
     31 H         -14.2855   -0.6304   19.2925 H       1  UNL1        0.1498
@<TRIPOS>BOND
     1     1     2    2
     2     2     3   am
     3     3     4    1
     4     4     5    1
     5     5     6    1
     6     4     7    1
     7     7     8    1
     8     8     9    1
     9     9    10   ar
    10    10    11   ar
    11    11    12   ar
    12    12    13    1
    13    12    14   ar
    14    14    15   ar
    15    15    16    1
    16    16    17    1
    17    17    18    1
    18    18    19    1
    19    19    20    1
    20    20    21    1
    21    21    22    1
    22    22    23   ar
    23    23    24   ar
    24    24    25   ar
    25    25    26   ar
    26    26    27   ar
    27    27    28   ar
    28    28    29   ar
    29    29    30   ar
    30    28     2    1
    31     6     4    1
    32    15     9   ar
    33    21    16    1
    34    30    22   ar
    35    29    25   ar
    36     3    31    1
@<TRIPOS>MOLECULE
*****
 31 36 0 0 0
SMALL
GASTEIGER

@<TRIPOS>ATOM
      1 O           9.1969   -6.2706   28.9123 O.2     1  UNL1       -0.2700
      2 C           8.3307   -5.5061   27.9556 C.2     1  UNL1        0.2504
      3 N           8.5886   -6.1648   26.6329 N.am    1  UNL1       -0.3003
      4 C           8.3729   -6.3067   25.1553 C.3     1  UNL1        0.0974
      5 C           8.9203   -7.2322   24.1094 C.3     1  UNL1        0.0234
      6 C           9.3610   -7.3690   25.5367 C.3     1  UNL1        0.0234
      7 C           7.7329   -5.8993   23.8613 C.3     1  UNL1        0.2247
      8 O           6.8153   -5.0359   23.0473 O.3     1  UNL1       -0.4587
      9 C           5.8302   -3.9144   22.8999 C.ar    1  UNL1        0.2225
     10 N           5.7722   -4.2384   21.4365 N.ar    1  UNL1       -0.2080
     11 C           4.8875   -3.4397   20.5259 C.ar    1  UNL1        0.1316
     12 C           4.0606   -2.3169   21.0787 C.ar    1  UNL1        0.1592
     13 F           3.1758   -1.5182   20.1682 F       1  UNL1       -0.2025
     14 C           4.1185   -1.9929   22.5422 C.ar    1  UNL1        0.0333
     15 C           5.0034   -2.7917   23.4527 C.ar    1  UNL1        0.0536
     16 C           4.5241   -1.9248   24.5793 C.3     1  UNL1        0.1309
     17 C           3.6779   -1.1959   23.5779 C.3     1  UNL1        0.1665
     18 O           2.8100   -0.0547   24.0188 O.3     1  UNL1       -0.3498
     19 C           2.7882    0.3576   25.4608 C.3     1  UNL1        0.1636
     20 C           3.6344   -0.3713   26.4621 C.3     1  UNL1        0.1245
     21 N           4.5024   -1.5125   26.0213 N.pl3   1  UNL1       -0.2858
     22 C           4.9430   -1.6493   27.4486 C.ar    1  UNL1        0.1352
     23 C           5.0833   -1.2883   29.4114 C.ar    1  UNL1        0.0551
     24 C           5.8023   -1.8121   30.6192 C.ar    1  UNL1        0.1050
     25 N           6.7511   -2.9662   30.4852 N.ar    1  UNL1       -0.2104
     26 N           7.7003   -3.8997   31.1763 N.ar    1  UNL1       -0.1619
     27 C           8.2609   -4.8362   30.1474 C.ar    1  UNL1        0.1281
     28 C           7.6581   -4.4816   28.8204 C.ar    1  UNL1        0.1099
     29 C           6.7251   -3.3259   29.0292 C.ar    1  UNL1        0.1710
     30 N           5.7452   -2.3037   28.5341 N.ar    1  UNL1       -0.2116
     31 H           9.2382   -6.8735   26.8453 H       1  UNL1        0.1498
@<TRIPOS>BOND
     1     1     2    2
     2     2     3   am
     3     3     4    1
     4     4     5    1
     5     5     6    1
     6     4     7    1
     7     7     8    1
     8     8     9    1
     9     9    10   ar
    10    10    11   ar
    11    11    12   ar
    12    12    13    1
    13    12    14   ar
    14    14    15   ar
    15    15    16    1
    16    16    17    1
    17    17    18    1
    18    18    19    1
    19    19    20    1
    20    20    21    1
    21    21    22    1
    22    22    23   ar
    23    23    24   ar
    24    24    25   ar
    25    25    26   ar
    26    26    27   ar
    27    27    28   ar
    28    28    29   ar
    29    29    30   ar
    30    28     2    1
    31     6     4    1
    32    15     9   ar
    33    21    16    1
    34    30    22   ar
    35    29    25   ar
    36     3    31    1
@<TRIPOS>MOLECULE
*****
 31 36 0 0 0
SMALL
GASTEIGER

@<TRIPOS>ATOM
      1 O         -11.8649   -8.0144   17.4794 O.2     1  UNL1       -0.2700
      2 C         -12.6366   -6.7780   17.8343 C.2     1  UNL1        0.2504
      3 N         -11.6908   -5.6595   17.5110 N.am    1  UNL1       -0.3003
      4 C         -11.3310   -4.2054   17.4316 C.3     1  UNL1        0.0974
      5 C         -10.1085   -3.4605   16.9839 C.3     1  UNL1        0.0234
      6 C         -10.1348   -4.9593   16.9307 C.3     1  UNL1        0.0234
      7 C         -11.6396   -2.7489   17.6143 C.3     1  UNL1        0.2247
      8 O         -12.5459   -1.6236   18.0173 O.3     1  UNL1       -0.4587
      9 C         -13.8422   -1.0873   18.5482 C.ar    1  UNL1        0.2225
     10 N         -13.2706    0.2895   18.3825 N.ar    1  UNL1       -0.2080
     11 C         -14.0884    1.4908   18.7540 C.ar    1  UNL1        0.1316
     12 C         -15.4778    1.3153   19.2912 C.ar    1  UNL1        0.1592
     13 F         -16.2957    2.5165   19.6628 F       1  UNL1       -0.2025
     14 C         -16.0495   -0.0616   19.4569 C.ar    1  UNL1        0.0333
     15 C         -15.2316   -1.2629   19.0854 C.ar    1  UNL1        0.0536
     16 C         -16.3959   -2.1101   19.5059 C.3     1  UNL1        0.1309
     17 C         -17.1200   -0.8406   19.8436 C.3     1  UNL1        0.1665
     18 O         -18.5163   -0.8958   20.3886 O.3     1  UNL1       -0.3498
     19 C         -19.1886   -2.2206   20.5960 C.3     1  UNL1        0.1636
     20 C         -18.4646   -3.4901   20.2583 C.3     1  UNL1        0.1245
     21 N         -17.0682   -3.4349   19.7133 N.pl3   1  UNL1       -0.2858
     22 C         -17.0946   -4.9337   19.6601 C.ar    1  UNL1        0.1352
     23 C         -17.7748   -6.8058   19.8474 C.ar    1  UNL1        0.0551
     24 C         -17.3185   -8.2146   19.6087 C.ar    1  UNL1        0.1050
     25 N         -15.9470   -8.4760   19.0600 N.ar    1  UNL1       -0.2104
     26 N         -14.9424   -9.5005   18.6228 N.ar    1  UNL1       -0.1619
     27 C         -13.7092   -8.7765   18.1700 C.ar    1  UNL1        0.1281
     28 C         -13.9516   -7.3047   18.3275 C.ar    1  UNL1        0.1099
     29 C         -15.3346   -7.1189   18.8775 C.ar    1  UNL1        0.1710
     30 N         -16.4690   -6.2632   19.3584 N.ar    1  UNL1       -0.2116
     31 H         -10.8873   -6.1196   17.1765 H       1  UNL1        0.1498
@<TRIPOS>BOND
     1     1     2    2
     2     2     3   am
     3     3     4    1
     4     4     5    1
     5     5     6    1
     6     4     7    1
     7     7     8    1
     8     8     9    1
     9     9    10   ar
    10    10    11   ar
    11    11    12   ar
    12    12    13    1
    13    12    14   ar
    14    14    15   ar
    15    15    16    1
    16    16    17    1
    17    17    18    1
    18    18    19    1
    19    19    20    1
    20    20    21    1
    21    21    22    1
    22    22    23   ar
    23    23    24   ar
    24    24    25   ar
    25    25    26   ar
    26    26    27   ar
    27    27    28   ar
    28    28    29   ar
    29    29    30   ar
    30    28     2    1
    31     6     4    1
    32    15     9   ar
    33    21    16    1
    34    30    22   ar
    35    29    25   ar
    36     3    31    1
@<TRIPOS>MOLECULE
*****
 31 36 0 0 0
SMALL
GASTEIGER

@<TRIPOS>ATOM
      1 O           7.8584   -4.5574   29.0586 O.2     1  UNL1       -0.2700
      2 C           7.1583   -4.0797   27.8209 C.2     1  UNL1        0.2504
      3 N           7.7221   -4.9449   26.7330 N.am    1  UNL1       -0.3003
      4 C           7.8217   -5.3833   25.3020 C.3     1  UNL1        0.0974
      5 C           8.6288   -6.4273   24.5888 C.3     1  UNL1        0.0234
      6 C           8.7770   -6.2473   26.0706 C.3     1  UNL1        0.0234
      7 C           7.4342   -5.2944   23.8556 C.3     1  UNL1        0.2247
      8 O           6.6485   -4.6986   22.7253 O.3     1  UNL1       -0.4587
      9 C           5.6445   -3.7324   22.1699 C.ar    1  UNL1        0.2225
     10 N           5.9069   -4.3298   20.8193 N.ar    1  UNL1       -0.2080
     11 C           5.1772   -3.8119   19.6155 C.ar    1  UNL1        0.1316
     12 C           4.1849   -2.6967   19.7623 C.ar    1  UNL1        0.1592
     13 F           3.4550   -2.1787   18.5585 F       1  UNL1       -0.2025
     14 C           3.9224   -2.0993   21.1129 C.ar    1  UNL1        0.0333
     15 C           4.6522   -2.6172   22.3167 C.ar    1  UNL1        0.0536
     16 C           3.8990   -1.6083   23.1321 C.3     1  UNL1        0.1309
     17 C           3.2298   -1.1716   21.8626 C.3     1  UNL1        0.1665
     18 O           2.2191   -0.0637   21.8904 O.3     1  UNL1       -0.3498
     19 C           1.8775    0.6076   23.1875 C.3     1  UNL1        0.1636
     20 C           2.5466    0.1710   24.4570 C.3     1  UNL1        0.1245
     21 N           3.5574   -0.9370   24.4293 N.pl3   1  UNL1       -0.2858
     22 C           3.7056   -0.7570   25.9110 C.ar    1  UNL1        0.1352
     23 C           3.4194   -0.0213   27.7494 C.ar    1  UNL1        0.0551
     24 C           3.9091   -0.2319   29.1514 C.ar    1  UNL1        0.1050
     25 N           4.9371   -1.2865   29.4363 N.ar    1  UNL1       -0.2104
     26 N           5.7832   -1.9706   30.4689 N.ar    1  UNL1       -0.1619
     27 C           6.6004   -3.0209   29.7767 C.ar    1  UNL1        0.1281
     28 C           6.2594   -2.9858   28.3164 C.ar    1  UNL1        0.1099
     29 C           5.2315   -1.9140   28.1061 C.ar    1  UNL1        0.1710
     30 N           4.3098   -1.1096   27.2379 N.ar    1  UNL1       -0.2116
     31 H           8.3587   -5.5302   27.2036 H       1  UNL1        0.1498
@<TRIPOS>BOND
     1     1     2    2
     2     2     3   am
     3     3     4    1
     4     4     5    1
     5     5     6    1
     6     4     7    1
     7     7     8    1
     8     8     9    1
     9     9    10   ar
    10    10    11   ar
    11    11    12   ar
    12    12    13    1
    13    12    14   ar
    14    14    15   ar
    15    15    16    1
    16    16    17    1
    17    17    18    1
    18    18    19    1
    19    19    20    1
    20    20    21    1
    21    21    22    1
    22    22    23   ar
    23    23    24   ar
    24    24    25   ar
    25    25    26   ar
    26    26    27   ar
    27    27    28   ar
    28    28    29   ar
    29    29    30   ar
    30    28     2    1
    31     6     4    1
    32    15     9   ar
    33    21    16    1
    34    30    22   ar
    35    29    25   ar
    36     3    31    1
@<TRIPOS>MOLECULE
*****
 31 36 0 0 0
SMALL
GASTEIGER

@<TRIPOS>ATOM
      1 O         -14.5149   -9.5403   18.9369 O.2     1  UNL1       -0.2700
      2 C         -14.7386   -8.0570   18.9382 C.2     1  UNL1        0.2504
      3 N         -13.3737   -7.4880   18.6865 N.am    1  UNL1       -0.3003
      4 C         -12.4285   -6.3394   18.4930 C.3     1  UNL1        0.0974
      5 C         -10.9545   -6.2391   18.2341 C.3     1  UNL1        0.0234
      6 C         -11.6003   -7.5849   18.3805 C.3     1  UNL1        0.0234
      7 C         -12.1196   -4.8744   18.4022 C.3     1  UNL1        0.2247
      8 O         -12.5176   -3.4285   18.4348 O.3     1  UNL1       -0.4587
      9 C         -13.5315   -2.3330   18.5833 C.ar    1  UNL1        0.2225
     10 N         -12.4164   -1.3540   18.3646 N.ar    1  UNL1       -0.2080
     11 C         -12.6985    0.1191   18.3764 C.ar    1  UNL1        0.1316
     12 C         -14.0959    0.6133   18.6069 C.ar    1  UNL1        0.1592
     13 F         -14.3782    2.0864   18.6187 F       1  UNL1       -0.2025
     14 C         -15.2111   -0.3658   18.8256 C.ar    1  UNL1        0.0333
     15 C         -14.9288   -1.8390   18.8138 C.ar    1  UNL1        0.0536
     16 C         -16.3897   -2.0594   19.0735 C.3     1  UNL1        0.1309
     17 C         -16.5543   -0.5685   19.0644 C.3     1  UNL1        0.1665
     18 O         -17.9084    0.0379   19.2845 O.3     1  UNL1       -0.3498
     19 C         -19.0980   -0.8466   19.5138 C.3     1  UNL1        0.1636
     20 C         -18.9335   -2.3375   19.5229 C.3     1  UNL1        0.1245
     21 N         -17.5793   -2.9439   19.3028 N.pl3   1  UNL1       -0.2858
     22 C         -18.2251   -4.2898   19.4492 C.ar    1  UNL1        0.1352
     23 C         -19.6489   -5.6666   19.7317 C.ar    1  UNL1        0.0551
     24 C         -19.7973   -7.1579   19.7952 C.ar    1  UNL1        0.1050
     25 N         -18.5979   -8.0395   19.6090 N.ar    1  UNL1       -0.2104
     26 N         -18.0644   -9.4402   19.5517 N.ar    1  UNL1       -0.1619
     27 C         -16.5888   -9.3639   19.2931 C.ar    1  UNL1        0.1281
     28 C         -16.2105   -7.9161   19.1907 C.ar    1  UNL1        0.1099
     29 C         -17.4521   -7.0975   19.3859 C.ar    1  UNL1        0.1710
     30 N         -18.1792   -5.7888   19.4792 N.ar    1  UNL1       -0.2116
     31 H         -12.7982   -8.2827   18.6065 H       1  UNL1        0.1498
@<TRIPOS>BOND
     1     1     2    2
     2     2     3   am
     3     3     4    1
     4     4     5    1
     5     5     6    1
     6     4     7    1
     7     7     8    1
     8     8     9    1
     9     9    10   ar
    10    10    11   ar
    11    11    12   ar
    12    12    13    1
    13    12    14   ar
    14    14    15   ar
    15    15    16    1
    16    16    17    1
    17    17    18    1
    18    18    19    1
    19    19    20    1
    20    20    21    1
    21    21    22    1
    22    22    23   ar
    23    23    24   ar
    24    24    25   ar
    25    25    26   ar
    26    26    27   ar
    27    27    28   ar
    28    28    29   ar
    29    29    30   ar
    30    28     2    1
    31     6     4    1
    32    15     9   ar
    33    21    16    1
    34    30    22   ar
    35    29    25   ar
    36     3    31    1
@<TRIPOS>MOLECULE
*****
 31 36 0 0 0
SMALL
GASTEIGER

@<TRIPOS>ATOM
      1 O           1.7059   -0.3326   19.7420 O.2     1  UNL1       -0.2700
      2 C           2.6036   -0.9122   20.7947 C.2     1  UNL1        0.2504
      3 N           3.4193   -1.9281   20.0512 N.am    1  UNL1       -0.3003
      4 C           4.4778   -2.9886   19.9819 C.3     1  UNL1        0.0974
      5 C           5.0224   -3.8424   18.8753 C.3     1  UNL1        0.0234
      6 C           3.9321   -2.8522   18.5914 C.3     1  UNL1        0.0234
      7 C           5.5366   -3.8510   20.6026 C.3     1  UNL1        0.2247
      8 O           6.3532   -4.3175   21.7712 O.3     1  UNL1       -0.4587
      9 C           6.7404   -4.2815   23.2199 C.ar    1  UNL1        0.2225
     10 N           7.7432   -5.3547   22.9161 N.ar    1  UNL1       -0.2080
     11 C           8.6153   -5.8976   24.0091 C.ar    1  UNL1        0.1316
     12 C           8.4845   -5.3671   25.4061 C.ar    1  UNL1        0.1592
     13 F           9.3565   -5.9099   26.4992 F       1  UNL1       -0.2025
     14 C           7.4817   -4.2938   25.7099 C.ar    1  UNL1        0.0333
     15 C           6.6096   -3.7510   24.6168 C.ar    1  UNL1        0.0536
     16 C           5.9908   -2.8476   25.6421 C.3     1  UNL1        0.1309
     17 C           6.9127   -3.4632   26.6526 C.3     1  UNL1        0.1665
     18 O           6.8694   -3.0095   28.0816 O.3     1  UNL1       -0.3498
     19 C           5.9043   -1.9403   28.5002 C.3     1  UNL1        0.1636
     20 C           4.9824   -1.3247   27.4897 C.3     1  UNL1        0.1245
     21 N           5.0257   -1.7784   26.0606 N.pl3   1  UNL1       -0.2858
     22 C           3.9353   -0.7882   25.7767 C.ar    1  UNL1        0.1352
     23 C           2.5720    0.6422   26.0897 C.ar    1  UNL1        0.0551
     24 C           1.5482    1.4291   25.3265 C.ar    1  UNL1        0.1050
     25 N           1.3612    1.1904   23.8574 N.ar    1  UNL1       -0.2104
     26 N           0.6181    1.5615   22.6083 N.ar    1  UNL1       -0.1619
     27 C           1.1475    0.7183   21.4864 C.ar    1  UNL1        0.1281
     28 C           2.2176   -0.1739   22.0420 C.ar    1  UNL1        0.1099
     29 C           2.3497    0.1179   23.5074 C.ar    1  UNL1        0.1710
     30 N           2.9696   -0.1038   24.8552 N.ar    1  UNL1       -0.2116
     31 H           3.0864   -1.8667   19.1268 H       1  UNL1        0.1498
@<TRIPOS>BOND
     1     1     2    2
     2     2     3   am
     3     3     4    1
     4     4     5    1
     5     5     6    1
     6     4     7    1
     7     7     8    1
     8     8     9    1
     9     9    10   ar
    10    10    11   ar
    11    11    12   ar
    12    12    13    1
    13    12    14   ar
    14    14    15   ar
    15    15    16    1
    16    16    17    1
    17    17    18    1
    18    18    19    1
    19    19    20    1
    20    20    21    1
    21    21    22    1
    22    22    23   ar
    23    23    24   ar
    24    24    25   ar
    25    25    26   ar
    26    26    27   ar
    27    27    28   ar
    28    28    29   ar
    29    29    30   ar
    30    28     2    1
    31     6     4    1
    32    15     9   ar
    33    21    16    1
    34    30    22   ar
    35    29    25   ar
    36     3    31    1
@<TRIPOS>MOLECULE
*****
 31 36 0 0 0
SMALL
GASTEIGER

@<TRIPOS>ATOM
      1 O           7.0545   -4.4325   24.8122 O.2     1  UNL1       -0.2700
      2 C           6.4080   -3.6919   25.9452 C.2     1  UNL1        0.2504
      3 N           5.4486   -2.7612   25.2646 N.am    1  UNL1       -0.3003
      4 C           4.3995   -1.6892   25.2821 C.3     1  UNL1        0.0974
      5 C           3.6255   -0.9753   24.2138 C.3     1  UNL1        0.0234
      6 C           4.6283   -2.0256   23.8383 C.3     1  UNL1        0.0234
      7 C           3.5011   -0.7216   25.9938 C.3     1  UNL1        0.2247
      8 O           2.9592   -0.0799   27.2366 O.3     1  UNL1       -0.4587
      9 C           2.8979    0.0888   28.7259 C.ar    1  UNL1        0.2225
     10 N           1.8520    1.1405   28.5029 N.ar    1  UNL1       -0.2080
     11 C           1.2393    1.8492   29.6743 C.ar    1  UNL1        0.1316
     12 C           1.6727    1.5063   31.0688 C.ar    1  UNL1        0.1592
     13 F           1.0601    2.2150   32.2403 F       1  UNL1       -0.2025
     14 C           2.7187    0.4545   31.2918 C.ar    1  UNL1        0.0333
     15 C           3.3313   -0.2542   30.1203 C.ar    1  UNL1        0.0536
     16 C           4.1601   -1.0303   31.1006 C.3     1  UNL1        0.1309
     17 C           3.4807   -0.2590   32.1931 C.3     1  UNL1        0.1665
     18 O           3.8357   -0.5191   33.6271 O.3     1  UNL1       -0.3498
     19 C           4.8700   -1.5504   33.9685 C.3     1  UNL1        0.1636
     20 C           5.5494   -2.3217   32.8761 C.3     1  UNL1        0.1245
     21 N           5.1944   -2.0616   31.4420 N.pl3   1  UNL1       -0.2858
     22 C           6.1973   -3.1119   31.0665 C.ar    1  UNL1        0.1352
     23 C           7.5975   -4.5266   31.2690 C.ar    1  UNL1        0.0551
     24 C           8.4305   -5.4375   30.4169 C.ar    1  UNL1        0.1050
     25 N           8.2917   -5.4023   28.9236 N.ar    1  UNL1       -0.2104
     26 N           8.7442   -5.9580   27.6059 N.ar    1  UNL1       -0.1619
     27 C           7.9817   -5.2571   26.5209 C.ar    1  UNL1        0.1281
     28 C           7.0580   -4.2682   27.1681 C.ar    1  UNL1        0.1099
     29 C           7.2496   -4.3579   28.6530 C.ar    1  UNL1        0.1710
     30 N           6.9390   -3.9406   30.0600 N.ar    1  UNL1       -0.2116
     31 H           5.5715   -2.9549   24.3072 H       1  UNL1        0.1498
@<TRIPOS>BOND
     1     1     2    2
     2     2     3   am
     3     3     4    1
     4     4     5    1
     5     5     6    1
     6     4     7    1
     7     7     8    1
     8     8     9    1
     9     9    10   ar
    10    10    11   ar
    11    11    12   ar
    12    12    13    1
    13    12    14   ar
    14    14    15   ar
    15    15    16    1
    16    16    17    1
    17    17    18    1
    18    18    19    1
    19    19    20    1
    20    20    21    1
    21    21    22    1
    22    22    23   ar
    23    23    24   ar
    24    24    25   ar
    25    25    26   ar
    26    26    27   ar
    27    27    28   ar
    28    28    29   ar
    29    29    30   ar
    30    28     2    1
    31     6     4    1
    32    15     9   ar
    33    21    16    1
    34    30    22   ar
    35    29    25   ar
    36     3    31    1
@<TRIPOS>MOLECULE
*****
 31 36 0 0 0
SMALL
GASTEIGER

@<TRIPOS>ATOM
      1 O           4.4870   -1.4820   27.9379 O.2     1  UNL1       -0.2700
      2 C           4.1853   -1.2743   26.4833 C.2     1  UNL1        0.2504
      3 N           5.1655   -2.1675   25.7822 N.am    1  UNL1       -0.3003
      4 C           5.7768   -2.7566   24.5456 C.3     1  UNL1        0.0974
      5 C           6.8815   -3.7412   24.3004 C.3     1  UNL1        0.0234
      6 C           6.5141   -3.3605   25.7039 C.3     1  UNL1        0.0234
      7 C           5.8790   -2.9068   23.0566 C.3     1  UNL1        0.2247
      8 O           5.4489   -2.5836   21.6565 O.3     1  UNL1       -0.4587
      9 C           4.5848   -1.8611   20.6658 C.ar    1  UNL1        0.2225
     10 N           5.3396   -2.5708   19.5812 N.ar    1  UNL1       -0.2080
     11 C           4.9945   -2.3243   18.1424 C.ar    1  UNL1        0.1316
     12 C           3.8945   -1.3680   17.7883 C.ar    1  UNL1        0.1592
     13 F           3.5493   -1.1214   16.3495 F       1  UNL1       -0.2025
     14 C           3.1396   -0.6582   18.8729 C.ar    1  UNL1        0.0333
     15 C           3.4848   -0.9048   20.3117 C.ar    1  UNL1        0.0536
     16 C           2.4008    0.0662   20.6751 C.3     1  UNL1        0.1309
     17 C           2.1429    0.2346   19.2070 C.3     1  UNL1        0.1665
     18 O           1.0656    1.1663   18.7369 O.3     1  UNL1       -0.3498
     19 C           0.2460    1.9296   19.7347 C.3     1  UNL1        0.1636
     20 C           0.5038    1.7613   21.2027 C.3     1  UNL1        0.1245
     21 N           1.5812    0.8296   21.6729 N.pl3   1  UNL1       -0.2858
     22 C           1.2138    1.2103   23.0765 C.ar    1  UNL1        0.1352
     23 C           0.2613    2.1115   24.5876 C.ar    1  UNL1        0.0551
     24 C           0.2827    2.1530   26.0868 C.ar    1  UNL1        0.1050
     25 N           1.2678    1.3144   26.8462 N.ar    1  UNL1       -0.2104
     26 N           1.7963    0.9021   28.1881 N.ar    1  UNL1       -0.1619
     27 C           2.9043   -0.0844   27.9667 C.ar    1  UNL1        0.1281
     28 C           3.0606   -0.2818   26.4880 C.ar    1  UNL1        0.1099
     29 C           2.0492    0.5827   25.7955 C.ar    1  UNL1        0.1710
     30 N           1.3827    1.1212   24.5643 N.ar    1  UNL1       -0.2116
     31 H           5.6715   -2.5843   26.5167 H       1  UNL1        0.1498
@<TRIPOS>BOND
     1     1     2    2
     2     2     3   am
     3     3     4    1
     4     4     5    1
     5     5     6    1
     6     4     7    1
     7     7     8    1
     8     8     9    1
     9     9    10   ar
    10    10    11   ar
    11    11    12   ar
    12    12    13    1
    13    12    14   ar
    14    14    15   ar
    15    15    16    1
    16    16    17    1
    17    17    18    1
    18    18    19    1
    19    19    20    1
    20    20    21    1
    21    21    22    1
    22    22    23   ar
    23    23    24   ar
    24    24    25   ar
    25    25    26   ar
    26    26    27   ar
    27    27    28   ar
    28    28    29   ar
    29    29    30   ar
    30    28     2    1
    31     6     4    1
    32    15     9   ar
    33    21    16    1
    34    30    22   ar
    35    29    25   ar
    36     3    31    1
