@<TRIPOS>MOLECULE
*****
 37 40 0 0 0
SMALL
GASTEIGER

@<TRIPOS>ATOM
      1 C           4.9096   -3.1995   22.5360 C.ar    1  UNL1        0.0611
      2 C           5.8824   -3.7680   23.5262 C.ar    1  UNL1        0.1037
      3 N           5.7782   -2.9673   24.7903 N.ar    1  UNL1       -0.2269
      4 C           4.7411   -1.9039   24.5815 C.ar    1  UNL1        0.1407
      5 N           4.2162   -0.8236   25.4799 N.ar    1  UNL1       -0.3374
      6 C           3.1544    0.1133   24.9851 C.ar    1  UNL1        0.0735
      7 C           2.6176   -0.0302   23.5918 C.ar    1  UNL1        0.0186
      8 C           3.1425   -1.1106   22.6934 C.ar    1  UNL1        0.0047
      9 C           4.2042   -2.0474   23.1882 C.ar    1  UNL1        0.0386
     10 H           4.5686   -0.7294   26.3943 H       1  UNL1        0.1674
     11 C           1.5557    0.9067   23.0970 C.ar    1  UNL1        0.0207
     12 C           1.2097    2.1331   23.8882 C.ar    1  UNL1        0.0045
     13 C           0.1478    3.0701   23.3934 C.ar    1  UNL1        0.0343
     14 C          -0.5679    2.7805   22.1074 C.ar    1  UNL1        0.1318
     15 N          -0.2217    1.5540   21.3161 N.ar    1  UNL1       -0.2292
     16 C           0.8400    0.6172   21.8109 C.ar    1  UNL1        0.1003
     17 N          -1.6296    3.7174   21.6125 N.pl3   1  UNL1       -0.2897
     18 C          -2.4243    3.3710   20.3884 C.3     1  UNL1        0.1136
     19 C          -1.8968    5.0006   22.3418 C.3     1  UNL1        0.1136
     20 C           4.6821   -3.6959   21.1390 C.2     1  UNL1        0.2015
     21 O           4.0707   -5.0468   20.9132 O.2     1  UNL1       -0.2864
     22 C           4.4232   -1.1151   18.1351 C.ar    1  UNL1        0.0920
     23 C           5.8336   -1.1318   17.6247 C.ar    1  UNL1        0.0204
     24 C           6.8601   -2.0032   18.2857 C.ar    1  UNL1        0.0312
     25 C           6.4763   -2.8578   19.4571 C.ar    1  UNL1        0.1454
     26 F           7.5029   -3.7292   20.1181 F       1  UNL1       -0.2040
     27 C           5.0659   -2.8411   19.9675 C.ar    1  UNL1        0.0951
     28 C           4.0394   -1.9698   19.3065 C.ar    1  UNL1        0.1598
     29 F           2.6290   -1.9531   19.8170 F       1  UNL1       -0.2026
     30 N           3.3967   -0.2437   17.4741 N.pl3   1  UNL1       -0.2166
     31 H           3.0494   -0.4807   16.5839 H       1  UNL1        0.1734
     32 S           2.8992    0.9887   18.1695 S.O2    1  UNL1        0.0540
     33 O           1.5176    0.4063   18.2133 O.2     1  UNL1       -0.1545
     34 O           4.2808    1.5711   18.1257 O.2     1  UNL1       -0.1545
     35 C           2.4018    2.2212   18.8648 C.3     1  UNL1        0.1724
     36 C           2.6520    3.9944   20.7473 C.3     1  UNL1        0.0019
     37 C           3.1960    2.8215   19.9869 C.3     1  UNL1        0.0273
@<TRIPOS>BOND
     1    36    37    1
     2    37    35    1
     3    35    32    1
     4    32    33    2
     5    32    34    2
     6    32    30    1
     7    30    22    1
     8    22    23   ar
     9    23    24   ar
    10    24    25   ar
    11    25    26    1
    12    25    27   ar
    13    27    20    1
    14    20    21    2
    15    20     1    1
    16     1     2   ar
    17     2     3   ar
    18     3     4   ar
    19     4     5   ar
    20     5     6   ar
    21     6     7   ar
    22     7    11    1
    23    11    12   ar
    24    12    13   ar
    25    13    14   ar
    26    14    17    1
    27    17    18    1
    28    17    19    1
    29    14    15   ar
    30    15    16   ar
    31     7     8   ar
    32     8     9   ar
    33    27    28   ar
    34    28    29    1
    35    28    22   ar
    36     9     1   ar
    37     9     4    1
    38    16    11   ar
    39    30    31    1
    40     5    10    1
@<TRIPOS>MOLECULE
*****
 37 40 0 0 0
SMALL
GASTEIGER

@<TRIPOS>ATOM
      1 C           1.2141    0.8709   22.5192 C.ar    1  UNL1        0.0611
      2 C           0.4349    1.8615   23.3325 C.ar    1  UNL1        0.1037
      3 N           0.9063    1.7675   24.7534 N.ar    1  UNL1       -0.2269
      4 C           1.9768    0.7188   24.8182 C.ar    1  UNL1        0.1407
      5 N           2.8029    0.1968   25.9562 N.ar    1  UNL1       -0.3374
      6 C           3.8192   -0.8793   25.7134 C.ar    1  UNL1        0.0735
      7 C           4.0095   -1.4334   24.3325 C.ar    1  UNL1        0.0186
      8 C           3.1834   -0.9115   23.1945 C.ar    1  UNL1        0.0047
      9 C           2.1670    0.1646   23.4374 C.ar    1  UNL1        0.0386
     10 H           2.6780    0.5605   26.8625 H       1  UNL1        0.1674
     11 C           5.0259   -2.5096   24.0897 C.ar    1  UNL1        0.0207
     12 C           6.0951   -2.7748   25.1077 C.ar    1  UNL1        0.0045
     13 C           7.1115   -3.8509   24.8649 C.ar    1  UNL1        0.0343
     14 C           7.0586   -4.6618   23.6040 C.ar    1  UNL1        0.1318
     15 N           5.9893   -4.3965   22.5860 N.ar    1  UNL1       -0.2292
     16 C           4.9730   -3.3204   22.8289 C.ar    1  UNL1        0.1003
     17 N           8.0750   -5.7379   23.3612 N.pl3   1  UNL1       -0.2897
     18 C           8.9607   -5.6739   22.1523 C.3     1  UNL1        0.1136
     19 C           8.2056   -6.8780   24.3272 C.3     1  UNL1        0.1136
     20 C           1.0663    0.6290   21.0462 C.2     1  UNL1        0.2015
     21 O          -0.2498    0.1733   20.4893 O.2     1  UNL1       -0.2864
     22 C           4.0730   -0.1190   18.5661 C.ar    1  UNL1        0.0920
     23 C           4.5715    1.2701   18.2979 C.ar    1  UNL1        0.0204
     24 C           3.9015    2.4455   18.9458 C.ar    1  UNL1        0.0312
     25 C           2.7332    2.2318   19.8618 C.ar    1  UNL1        0.1454
     26 F           2.0633    3.4072   20.5097 F       1  UNL1       -0.2040
     27 C           2.2347    0.8427   20.1301 C.ar    1  UNL1        0.0951
     28 C           2.9047   -0.3326   19.4822 C.ar    1  UNL1        0.1598
     29 F           2.4061   -1.7218   19.7505 F       1  UNL1       -0.2026
     30 N           4.7429   -1.2943   17.9183 N.pl3   1  UNL1       -0.2166
     31 H           4.2667   -1.8160   17.2325 H       1  UNL1        0.1734
     32 S           6.1385   -1.6749   18.3153 S.O2    1  UNL1        0.0540
     33 O           6.6676   -1.0413   17.0629 O.2     1  UNL1       -0.1545
     34 O           5.6094   -2.3085   19.5677 O.2     1  UNL1       -0.1545
     35 C           7.5340   -2.0554   18.7124 C.3     1  UNL1        0.1724
     36 C           8.5919   -2.1888   21.0817 C.3     1  UNL1        0.0019
     37 C           7.7720   -2.8073   19.9884 C.3     1  UNL1        0.0273
@<TRIPOS>BOND
     1    36    37    1
     2    37    35    1
     3    35    32    1
     4    32    33    2
     5    32    34    2
     6    32    30    1
     7    30    22    1
     8    22    23   ar
     9    23    24   ar
    10    24    25   ar
    11    25    26    1
    12    25    27   ar
    13    27    20    1
    14    20    21    2
    15    20     1    1
    16     1     2   ar
    17     2     3   ar
    18     3     4   ar
    19     4     5   ar
    20     5     6   ar
    21     6     7   ar
    22     7    11    1
    23    11    12   ar
    24    12    13   ar
    25    13    14   ar
    26    14    17    1
    27    17    18    1
    28    17    19    1
    29    14    15   ar
    30    15    16   ar
    31     7     8   ar
    32     8     9   ar
    33    27    28   ar
    34    28    29    1
    35    28    22   ar
    36     9     1   ar
    37     9     4    1
    38    16    11   ar
    39    30    31    1
    40     5    10    1
@<TRIPOS>MOLECULE
*****
 37 40 0 0 0
SMALL
GASTEIGER

@<TRIPOS>ATOM
      1 C           5.5156   -2.6431   19.4539 C.ar    1  UNL1        0.0611
      2 C           6.1096   -1.9799   18.2466 C.ar    1  UNL1        0.1037
      3 N           7.6004   -2.1260   18.3241 N.ar    1  UNL1       -0.2269
      4 C           7.9278   -2.8795   19.5791 C.ar    1  UNL1        0.1407
      5 N           9.2327   -3.3159   20.1763 N.ar    1  UNL1       -0.3374
      6 C           9.2491   -4.0718   21.4718 C.ar    1  UNL1        0.0735
      7 C           7.9606   -4.3913   22.1701 C.ar    1  UNL1        0.0186
      8 C           6.6557   -3.9549   21.5728 C.ar    1  UNL1        0.0047
      9 C           6.6393   -3.1990   20.2774 C.ar    1  UNL1        0.0386
     10 H          10.0785   -3.1061   19.7180 H       1  UNL1        0.1674
     11 C           7.9770   -5.1473   23.4656 C.ar    1  UNL1        0.0207
     12 C           8.4850   -6.5581   23.5043 C.ar    1  UNL1        0.0045
     13 C           8.5014   -7.3140   24.7998 C.ar    1  UNL1        0.0343
     14 C           8.0099   -6.6591   26.0566 C.ar    1  UNL1        0.1318
     15 N           7.5019   -5.2482   26.0178 N.ar    1  UNL1       -0.2292
     16 C           7.4855   -4.4923   24.7224 C.ar    1  UNL1        0.1003
     17 N           8.0263   -7.4150   27.3521 N.pl3   1  UNL1       -0.2897
     18 C           8.1927   -8.9057   27.3485 C.3     1  UNL1        0.1136
     19 C           7.8764   -6.6802   28.6511 C.3     1  UNL1        0.1136
     20 C           4.0544   -2.7343   19.7803 C.2     1  UNL1        0.2015
     21 O           3.2706   -3.9486   19.3792 O.2     1  UNL1       -0.2864
     22 C           2.6920   -0.4620   22.7352 C.ar    1  UNL1        0.0920
     23 C           2.0219    0.6355   21.9629 C.ar    1  UNL1        0.0204
     24 C           2.0293    0.6098   20.4632 C.ar    1  UNL1        0.0312
     25 C           2.7068   -0.5134   19.7356 C.ar    1  UNL1        0.1454
     26 F           2.7142   -0.5391   18.2358 F       1  UNL1       -0.2040
     27 C           3.3768   -1.6109   20.5078 C.ar    1  UNL1        0.0951
     28 C           3.3694   -1.5853   22.0076 C.ar    1  UNL1        0.1598
     29 F           4.0395   -2.6829   22.7798 F       1  UNL1       -0.2026
     30 N           2.6846   -0.4364   24.2349 N.pl3   1  UNL1       -0.2166
     31 H           1.8372   -0.5421   24.7249 H       1  UNL1        0.1734
     32 S           3.9682   -0.2496   24.9882 S.O2    1  UNL1        0.0540
     33 O           4.1166    1.1203   24.3955 O.2     1  UNL1       -0.1545
     34 O           3.8198   -1.6195   25.5808 O.2     1  UNL1       -0.1545
     35 C           5.2518   -0.0629   25.7414 C.3     1  UNL1        0.1724
     36 C           7.0241   -0.9047   24.0383 C.3     1  UNL1        0.0019
     37 C           6.4412   -0.9187   25.4203 C.3     1  UNL1        0.0273
@<TRIPOS>BOND
     1    36    37    1
     2    37    35    1
     3    35    32    1
     4    32    33    2
     5    32    34    2
     6    32    30    1
     7    30    22    1
     8    22    23   ar
     9    23    24   ar
    10    24    25   ar
    11    25    26    1
    12    25    27   ar
    13    27    20    1
    14    20    21    2
    15    20     1    1
    16     1     2   ar
    17     2     3   ar
    18     3     4   ar
    19     4     5   ar
    20     5     6   ar
    21     6     7   ar
    22     7    11    1
    23    11    12   ar
    24    12    13   ar
    25    13    14   ar
    26    14    17    1
    27    17    18    1
    28    17    19    1
    29    14    15   ar
    30    15    16   ar
    31     7     8   ar
    32     8     9   ar
    33    27    28   ar
    34    28    29    1
    35    28    22   ar
    36     9     1   ar
    37     9     4    1
    38    16    11   ar
    39    30    31    1
    40     5    10    1
@<TRIPOS>MOLECULE
*****
 37 40 0 0 0
SMALL
GASTEIGER

@<TRIPOS>ATOM
      1 C           6.7042   -3.3252   29.9962 C.ar    1  UNL1        0.0611
      2 C           6.8170   -4.2333   31.1847 C.ar    1  UNL1        0.1037
      3 N           6.9854   -5.6363   30.6817 N.ar    1  UNL1       -0.2269
      4 C           6.9767   -5.5954   29.1823 C.ar    1  UNL1        0.1407
      5 N           7.1046   -6.6742   28.1480 N.ar    1  UNL1       -0.3374
      6 C           7.0587   -6.3246   26.6900 C.ar    1  UNL1        0.0735
      7 C           6.8850   -4.8962   26.2664 C.ar    1  UNL1        0.0186
      8 C           6.7571   -3.8174   27.3007 C.ar    1  UNL1        0.0047
      9 C           6.8030   -4.1670   28.7586 C.ar    1  UNL1        0.0386
     10 H           7.2187   -7.6117   28.4260 H       1  UNL1        0.1674
     11 C           6.8391   -4.5466   24.8084 C.ar    1  UNL1        0.0207
     12 C           5.9750   -3.4155   24.3351 C.ar    1  UNL1        0.0045
     13 C           5.9291   -3.0660   22.8771 C.ar    1  UNL1        0.0343
     14 C           6.7474   -3.8475   21.8924 C.ar    1  UNL1        0.1318
     15 N           7.6115   -4.9786   22.3657 N.ar    1  UNL1       -0.2292
     16 C           7.6574   -5.3281   23.8236 C.ar    1  UNL1        0.1003
     17 N           6.7016   -3.4980   20.4344 N.pl3   1  UNL1       -0.2897
     18 C           7.8380   -2.7462   19.8073 C.3     1  UNL1        0.1136
     19 C           5.5193   -3.9002   19.6035 C.3     1  UNL1        0.1136
     20 C           6.5243   -1.8366   30.0379 C.2     1  UNL1        0.2015
     21 O           7.7035   -0.9326   29.8329 O.2     1  UNL1       -0.2864
     22 C           2.8222   -0.5544   29.4046 C.ar    1  UNL1        0.0920
     23 C           2.4467   -0.0829   30.7782 C.ar    1  UNL1        0.0204
     24 C           3.4304   -0.1959   31.9050 C.ar    1  UNL1        0.0312
     25 C           4.7896   -0.7805   31.6583 C.ar    1  UNL1        0.1454
     26 F           5.7732   -0.8935   32.7850 F       1  UNL1       -0.2040
     27 C           5.1651   -1.2520   30.2847 C.ar    1  UNL1        0.0951
     28 C           4.1814   -1.1390   29.1579 C.ar    1  UNL1        0.1598
     29 F           4.5570   -1.6105   27.7844 F       1  UNL1       -0.2026
     30 N           1.8386   -0.4414   28.2779 N.pl3   1  UNL1       -0.2166
     31 H           1.8356   -1.1128   27.5578 H       1  UNL1        0.1734
     32 S           0.8594    0.6946   28.2482 S.O2    1  UNL1        0.0540
     33 O           1.9657    1.6385   27.8805 O.2     1  UNL1       -0.1545
     34 O          -0.2468   -0.2493   28.6159 O.2     1  UNL1       -0.1545
     35 C          -0.1197    1.8304   28.2186 C.3     1  UNL1        0.1724
     36 C          -0.8752    2.0952   25.7468 C.3     1  UNL1        0.0019
     37 C          -0.2546    2.6724   26.9844 C.3     1  UNL1        0.0273
@<TRIPOS>BOND
     1    36    37    1
     2    37    35    1
     3    35    32    1
     4    32    33    2
     5    32    34    2
     6    32    30    1
     7    30    22    1
     8    22    23   ar
     9    23    24   ar
    10    24    25   ar
    11    25    26    1
    12    25    27   ar
    13    27    20    1
    14    20    21    2
    15    20     1    1
    16     1     2   ar
    17     2     3   ar
    18     3     4   ar
    19     4     5   ar
    20     5     6   ar
    21     6     7   ar
    22     7    11    1
    23    11    12   ar
    24    12    13   ar
    25    13    14   ar
    26    14    17    1
    27    17    18    1
    28    17    19    1
    29    14    15   ar
    30    15    16   ar
    31     7     8   ar
    32     8     9   ar
    33    27    28   ar
    34    28    29    1
    35    28    22   ar
    36     9     1   ar
    37     9     4    1
    38    16    11   ar
    39    30    31    1
    40     5    10    1
@<TRIPOS>MOLECULE
*****
 37 40 0 0 0
SMALL
GASTEIGER

@<TRIPOS>ATOM
      1 C           5.5426   -2.6810   19.4692 C.ar    1  UNL1        0.0611
      2 C           6.1247   -2.0320   18.2486 C.ar    1  UNL1        0.1037
      3 N           7.6143   -2.2005   18.2999 N.ar    1  UNL1       -0.2269
      4 C           7.9528   -2.9536   19.5522 C.ar    1  UNL1        0.1407
      5 N           9.2616   -3.4073   20.1278 N.ar    1  UNL1       -0.3374
      6 C           9.2898   -4.1579   21.4261 C.ar    1  UNL1        0.0735
      7 C           8.0094   -4.4549   22.1488 C.ar    1  UNL1        0.0186
      8 C           6.7007   -4.0013   21.5732 C.ar    1  UNL1        0.0047
      9 C           6.6724   -3.2506   20.2749 C.ar    1  UNL1        0.0386
     10 H          10.1020   -3.2123   19.6535 H       1  UNL1        0.1674
     11 C           8.0377   -5.2057   23.4472 C.ar    1  UNL1        0.0207
     12 C           8.4577   -6.6454   23.4720 C.ar    1  UNL1        0.0045
     13 C           8.4861   -7.3961   24.7704 C.ar    1  UNL1        0.0343
     14 C           8.0944   -6.7070   26.0439 C.ar    1  UNL1        0.1318
     15 N           7.6744   -5.2672   26.0190 N.ar    1  UNL1       -0.2292
     16 C           7.6460   -4.5166   24.7206 C.ar    1  UNL1        0.1003
     17 N           8.1227   -7.4577   27.3422 N.pl3   1  UNL1       -0.2897
     18 C           8.0025   -6.7157   28.6402 C.3     1  UNL1        0.1136
     19 C           8.2712   -8.9503   27.3425 C.3     1  UNL1        0.1136
     20 C           4.0863   -2.7486   19.8222 C.2     1  UNL1        0.2015
     21 O           3.2510   -3.8986   19.3430 O.2     1  UNL1       -0.2864
     22 C           2.1916    0.5922   20.8222 C.ar    1  UNL1        0.0920
     23 C           2.2232    0.4988   22.3189 C.ar    1  UNL1        0.0204
     24 C           2.8758   -0.6770   22.9834 C.ar    1  UNL1        0.0312
     25 C           3.4968   -1.7595   22.1513 C.ar    1  UNL1        0.1454
     26 F           4.1494   -2.9353   22.8158 F       1  UNL1       -0.2040
     27 C           3.4652   -1.6661   20.6545 C.ar    1  UNL1        0.0951
     28 C           2.8126   -0.4903   19.9900 C.ar    1  UNL1        0.1598
     29 F           2.7811   -0.3970   18.4932 F       1  UNL1       -0.2026
     30 N           1.5390    1.7680   20.1577 N.pl3   1  UNL1       -0.2166
     31 H           1.8924    2.1101   19.3048 H       1  UNL1        0.1734
     32 S           0.3481    2.4225   20.7926 S.O2    1  UNL1        0.0540
     33 O          -0.4986    1.2409   20.4226 O.2     1  UNL1       -0.1545
     34 O           1.1948    3.6041   21.1626 O.2     1  UNL1       -0.1545
     35 C          -0.8428    3.0772   21.4276 C.3     1  UNL1        0.1724
     36 C          -3.4187    3.4161   21.4225 C.3     1  UNL1        0.0019
     37 C          -2.1409    3.1591   20.6803 C.3     1  UNL1        0.0273
@<TRIPOS>BOND
     1    36    37    1
     2    37    35    1
     3    35    32    1
     4    32    33    2
     5    32    34    2
     6    32    30    1
     7    30    22    1
     8    22    23   ar
     9    23    24   ar
    10    24    25   ar
    11    25    26    1
    12    25    27   ar
    13    27    20    1
    14    20    21    2
    15    20     1    1
    16     1     2   ar
    17     2     3   ar
    18     3     4   ar
    19     4     5   ar
    20     5     6   ar
    21     6     7   ar
    22     7    11    1
    23    11    12   ar
    24    12    13   ar
    25    13    14   ar
    26    14    17    1
    27    17    18    1
    28    17    19    1
    29    14    15   ar
    30    15    16   ar
    31     7     8   ar
    32     8     9   ar
    33    27    28   ar
    34    28    29    1
    35    28    22   ar
    36     9     1   ar
    37     9     4    1
    38    16    11   ar
    39    30    31    1
    40     5    10    1
@<TRIPOS>MOLECULE
*****
 37 40 0 0 0
SMALL
GASTEIGER

@<TRIPOS>ATOM
      1 C           4.9817    0.7198   17.7943 C.ar    1  UNL1        0.0611
      2 C           6.3493    1.2854   17.5499 C.ar    1  UNL1        0.1037
      3 N           6.2877    2.7655   17.7857 N.ar    1  UNL1       -0.2269
      4 C           4.8821    3.1146   18.1759 C.ar    1  UNL1        0.1407
      5 N           4.2329    4.4204   18.5270 N.ar    1  UNL1       -0.3374
      6 C           2.7764    4.4619   18.8835 C.ar    1  UNL1        0.0735
      7 C           1.9693    3.1976   18.8888 C.ar    1  UNL1        0.0186
      8 C           2.6185    1.8918   18.5377 C.ar    1  UNL1        0.0047
      9 C           4.0749    1.8503   18.1812 C.ar    1  UNL1        0.0386
     10 H           4.7626    5.2502   18.5235 H       1  UNL1        0.1674
     11 C           0.5128    3.2392   19.2453 C.ar    1  UNL1        0.0207
     12 C          -0.4312    4.0870   18.4454 C.ar    1  UNL1        0.0045
     13 C          -1.8877    4.1286   18.8019 C.ar    1  UNL1        0.0343
     14 C          -2.4001    3.3223   19.9583 C.ar    1  UNL1        0.1318
     15 N          -1.4560    2.4744   20.7583 N.ar    1  UNL1       -0.2292
     16 C           0.0004    2.4329   20.4018 C.ar    1  UNL1        0.1003
     17 N          -3.8565    3.3638   20.3149 N.pl3   1  UNL1       -0.2897
     18 C          -4.2834    3.2079   21.7443 C.3     1  UNL1        0.1136
     19 C          -4.8860    3.5612   19.2419 C.3     1  UNL1        0.1136
     20 C           4.5897   -0.7230   17.6732 C.2     1  UNL1        0.2015
     21 O           3.9315   -1.2187   16.4199 O.2     1  UNL1       -0.2864
     22 C           6.4982   -3.1803   20.1369 C.ar    1  UNL1        0.0920
     23 C           5.3884   -3.5644   21.0701 C.ar    1  UNL1        0.0204
     24 C           4.0124   -3.0014   20.8710 C.ar    1  UNL1        0.0312
     25 C           3.7461   -2.0543   19.7387 C.ar    1  UNL1        0.1454
     26 F           2.3701   -1.4912   19.5396 F       1  UNL1       -0.2040
     27 C           4.8559   -1.6701   18.8055 C.ar    1  UNL1        0.0951
     28 C           6.2319   -2.2332   19.0046 C.ar    1  UNL1        0.1598
     29 F           7.3417   -1.8490   18.0714 F       1  UNL1       -0.2026
     30 N           7.8742   -3.7433   20.3360 N.pl3   1  UNL1       -0.2166
     31 H           8.5568   -3.6345   19.6349 H       1  UNL1        0.1734
     32 S           8.2102   -4.4721   21.6032 S.O2    1  UNL1        0.0540
     33 O           8.3919   -3.1611   22.3090 O.2     1  UNL1       -0.1545
     34 O           8.0285   -5.7831   20.8974 O.2     1  UNL1       -0.1545
     35 C           8.5461   -5.2010   22.8704 C.3     1  UNL1        0.1724
     36 C           8.8679   -7.4532   24.1251 C.3     1  UNL1        0.0019
     37 C           8.7934   -6.6802   22.8418 C.3     1  UNL1        0.0273
@<TRIPOS>BOND
     1    36    37    1
     2    37    35    1
     3    35    32    1
     4    32    33    2
     5    32    34    2
     6    32    30    1
     7    30    22    1
     8    22    23   ar
     9    23    24   ar
    10    24    25   ar
    11    25    26    1
    12    25    27   ar
    13    27    20    1
    14    20    21    2
    15    20     1    1
    16     1     2   ar
    17     2     3   ar
    18     3     4   ar
    19     4     5   ar
    20     5     6   ar
    21     6     7   ar
    22     7    11    1
    23    11    12   ar
    24    12    13   ar
    25    13    14   ar
    26    14    17    1
    27    17    18    1
    28    17    19    1
    29    14    15   ar
    30    15    16   ar
    31     7     8   ar
    32     8     9   ar
    33    27    28   ar
    34    28    29    1
    35    28    22   ar
    36     9     1   ar
    37     9     4    1
    38    16    11   ar
    39    30    31    1
    40     5    10    1
@<TRIPOS>MOLECULE
*****
 37 40 0 0 0
SMALL
GASTEIGER

@<TRIPOS>ATOM
      1 C           5.0196   -3.4114   20.5927 C.ar    1  UNL1        0.0611
      2 C           6.2078   -4.2904   20.3368 C.ar    1  UNL1        0.1037
      3 N           7.0028   -4.3762   21.6059 N.ar    1  UNL1       -0.2269
      4 C           6.3059   -3.5502   22.6461 C.ar    1  UNL1        0.1407
      5 N           6.6290   -3.2640   24.0826 N.ar    1  UNL1       -0.3374
      6 C           5.7265   -2.3815   24.8929 C.ar    1  UNL1        0.0735
      7 C           4.5009   -1.7852   24.2667 C.ar    1  UNL1        0.0186
      8 C           4.1777   -2.0714   22.8302 C.ar    1  UNL1        0.0047
      9 C           5.0802   -2.9539   22.0199 C.ar    1  UNL1        0.0386
     10 H           7.4335   -3.6553   24.4936 H       1  UNL1        0.1674
     11 C           3.5983   -0.9026   25.0771 C.ar    1  UNL1        0.0207
     12 C           2.6364    0.0201   24.3892 C.ar    1  UNL1        0.0045
     13 C           1.7339    0.9026   25.1995 C.ar    1  UNL1        0.0343
     14 C           1.7933    0.8624   26.6978 C.ar    1  UNL1        0.1318
     15 N           2.7553   -0.0604   27.3857 N.ar    1  UNL1       -0.2292
     16 C           3.6577   -0.9429   26.5754 C.ar    1  UNL1        0.1003
     17 N           0.8908    1.7448   27.5082 N.pl3   1  UNL1       -0.2897
     18 C           1.3984    3.0539   28.0360 C.3     1  UNL1        0.1136
     19 C          -0.5192    1.3182   27.7908 C.3     1  UNL1        0.1136
     20 C           3.9573   -3.0527   19.5962 C.2     1  UNL1        0.2015
     21 O           3.0247   -4.1087   19.0813 O.2     1  UNL1       -0.2864
     22 C           2.4439    0.5516   18.9116 C.ar    1  UNL1        0.0920
     23 C           3.5679    1.1913   18.1517 C.ar    1  UNL1        0.0204
     24 C           4.8216    0.4163   17.8733 C.ar    1  UNL1        0.0312
     25 C           4.9515   -0.9983   18.3548 C.ar    1  UNL1        0.1454
     26 F           6.2052   -1.7733   18.0764 F       1  UNL1       -0.2040
     27 C           3.8275   -1.6380   19.1147 C.ar    1  UNL1        0.0951
     28 C           2.5737   -0.8630   19.3931 C.ar    1  UNL1        0.1598
     29 F           1.4498   -1.5028   20.1530 F       1  UNL1       -0.2026
     30 N           1.1901    1.3266   19.1900 N.pl3   1  UNL1       -0.2166
     31 H           0.5910    1.5760   18.4497 H       1  UNL1        0.1734
     32 S           0.8493    1.7216   20.5963 S.O2    1  UNL1        0.0540
     33 O          -0.3526    0.8250   20.5568 O.2     1  UNL1       -0.1545
     34 O           2.0511    2.6182   20.6358 O.2     1  UNL1       -0.1545
     35 C           0.5085    2.1166   22.0026 C.3     1  UNL1        0.1724
     36 C          -0.9554    4.1626   21.3535 C.3     1  UNL1        0.0019
     37 C          -0.6688    3.0079   22.2669 C.3     1  UNL1        0.0273
@<TRIPOS>BOND
     1    36    37    1
     2    37    35    1
     3    35    32    1
     4    32    33    2
     5    32    34    2
     6    32    30    1
     7    30    22    1
     8    22    23   ar
     9    23    24   ar
    10    24    25   ar
    11    25    26    1
    12    25    27   ar
    13    27    20    1
    14    20    21    2
    15    20     1    1
    16     1     2   ar
    17     2     3   ar
    18     3     4   ar
    19     4     5   ar
    20     5     6   ar
    21     6     7   ar
    22     7    11    1
    23    11    12   ar
    24    12    13   ar
    25    13    14   ar
    26    14    17    1
    27    17    18    1
    28    17    19    1
    29    14    15   ar
    30    15    16   ar
    31     7     8   ar
    32     8     9   ar
    33    27    28   ar
    34    28    29    1
    35    28    22   ar
    36     9     1   ar
    37     9     4    1
    38    16    11   ar
    39    30    31    1
    40     5    10    1
@<TRIPOS>MOLECULE
*****
 37 40 0 0 0
SMALL
GASTEIGER

@<TRIPOS>ATOM
      1 C           0.6869    2.0785   22.6894 C.ar    1  UNL1        0.0611
      2 C          -0.4978    2.5588   21.9047 C.ar    1  UNL1        0.1037
      3 N          -0.6201    1.7024   20.6793 N.ar    1  UNL1       -0.2269
      4 C           0.4890    0.6928   20.7067 C.ar    1  UNL1        0.1407
      5 N           0.8677   -0.4081   19.7609 N.ar    1  UNL1       -0.3374
      6 C           2.0542   -1.2765   20.0575 C.ar    1  UNL1        0.0735
      7 C           2.8620   -1.0441   21.2998 C.ar    1  UNL1        0.0186
      8 C           2.4833    0.0569   22.2456 C.ar    1  UNL1        0.0047
      9 C           1.2968    0.9253   21.9490 C.ar    1  UNL1        0.0386
     10 H           0.3375   -0.5607   18.9455 H       1  UNL1        0.1674
     11 C           4.0485   -1.9126   21.5963 C.ar    1  UNL1        0.0207
     12 C           4.1342   -2.6449   22.9026 C.ar    1  UNL1        0.0045
     13 C           5.3208   -3.5134   23.1991 C.ar    1  UNL1        0.0343
     14 C           6.4216   -3.6495   22.1893 C.ar    1  UNL1        0.1318
     15 N           6.3359   -2.9171   20.8830 N.ar    1  UNL1       -0.2292
     16 C           5.1494   -2.0487   20.5866 C.ar    1  UNL1        0.1003
     17 N           7.6081   -4.5179   22.4858 N.pl3   1  UNL1       -0.2897
     18 C           7.9123   -4.9148   23.9000 C.3     1  UNL1        0.1136
     19 C           8.4904   -4.9895   21.3681 C.3     1  UNL1        0.1136
     20 C           1.1759    2.6509   23.9868 C.2     1  UNL1        0.2015
     21 O           2.3115    3.6309   23.9936 O.2     1  UNL1       -0.2864
     22 C           0.4889    0.7434   27.3985 C.ar    1  UNL1        0.0920
     23 C          -0.7638    1.4282   27.8588 C.ar    1  UNL1        0.0204
     24 C          -1.3698    2.5205   27.0285 C.ar    1  UNL1        0.0312
     25 C          -0.7233    2.9281   25.7378 C.ar    1  UNL1        0.1454
     26 F          -1.3294    4.0205   24.9075 F       1  UNL1       -0.2040
     27 C           0.5293    2.2434   25.2775 C.ar    1  UNL1        0.0951
     28 C           1.1354    1.1510   26.1078 C.ar    1  UNL1        0.1598
     29 F           2.3881    0.4663   25.6474 F       1  UNL1       -0.2026
     30 N           1.0950   -0.3489   28.2288 N.pl3   1  UNL1       -0.2166
     31 H           0.5781   -1.1639   28.4233 H       1  UNL1        0.1734
     32 S           2.4888   -0.1995   28.7628 S.O2    1  UNL1        0.0540
     33 O           2.0556    0.9957   29.5590 O.2     1  UNL1       -0.1545
     34 O           2.9219   -1.3947   27.9667 O.2     1  UNL1       -0.1545
     35 C           3.8825   -0.0502   29.2967 C.3     1  UNL1        0.1724
     36 C           5.1238    1.3792   27.5174 C.3     1  UNL1        0.0019
     37 C           5.0320    0.1357   28.3511 C.3     1  UNL1        0.0273
@<TRIPOS>BOND
     1    36    37    1
     2    37    35    1
     3    35    32    1
     4    32    33    2
     5    32    34    2
     6    32    30    1
     7    30    22    1
     8    22    23   ar
     9    23    24   ar
    10    24    25   ar
    11    25    26    1
    12    25    27   ar
    13    27    20    1
    14    20    21    2
    15    20     1    1
    16     1     2   ar
    17     2     3   ar
    18     3     4   ar
    19     4     5   ar
    20     5     6   ar
    21     6     7   ar
    22     7    11    1
    23    11    12   ar
    24    12    13   ar
    25    13    14   ar
    26    14    17    1
    27    17    18    1
    28    17    19    1
    29    14    15   ar
    30    15    16   ar
    31     7     8   ar
    32     8     9   ar
    33    27    28   ar
    34    28    29    1
    35    28    22   ar
    36     9     1   ar
    37     9     4    1
    38    16    11   ar
    39    30    31    1
    40     5    10    1
@<TRIPOS>MOLECULE
*****
 37 40 0 0 0
SMALL
GASTEIGER

@<TRIPOS>ATOM
      1 C           4.1423   -2.6372   21.4360 C.ar    1  UNL1        0.0611
      2 C           5.0868   -3.7244   21.8554 C.ar    1  UNL1        0.1037
      3 N           5.3283   -3.5856   23.3293 N.ar    1  UNL1       -0.2269
      4 C           4.5331   -2.4126   23.8209 C.ar    1  UNL1        0.1407
      5 N           4.3817   -1.8025   25.1828 N.ar    1  UNL1       -0.3374
      6 C           3.4974   -0.6062   25.3745 C.ar    1  UNL1        0.0735
      7 C           2.7644   -0.0201   24.2044 C.ar    1  UNL1        0.0186
      8 C           2.9157   -0.6302   22.8425 C.ar    1  UNL1        0.0047
      9 C           3.8001   -1.8264   22.6508 C.ar    1  UNL1        0.0386
     10 H           4.8628   -2.1872   25.9507 H       1  UNL1        0.1674
     11 C           1.8800    1.1762   24.3963 C.ar    1  UNL1        0.0207
     12 C           0.4368    0.9913   24.7611 C.ar    1  UNL1        0.0045
     13 C          -0.4476    2.1876   24.9530 C.ar    1  UNL1        0.0343
     14 C           0.1112    3.5688   24.7800 C.ar    1  UNL1        0.1318
     15 N           1.5544    3.7538   24.4151 N.ar    1  UNL1       -0.2292
     16 C           2.4388    2.5575   24.2233 C.ar    1  UNL1        0.1003
     17 N          -0.7731    4.7651   24.9718 N.pl3   1  UNL1       -0.2897
     18 C          -2.0598    4.6325   25.7312 C.3     1  UNL1        0.1136
     19 C          -0.3707    6.0940   24.4042 C.3     1  UNL1        0.1136
     20 C           3.6300   -2.4020   20.0460 C.2     1  UNL1        0.2015
     21 O           3.3251   -3.5671   19.1519 O.2     1  UNL1       -0.2864
     22 C           1.8406    0.9999   19.0581 C.ar    1  UNL1        0.0920
     23 C           3.0074    1.7991   18.5583 C.ar    1  UNL1        0.0204
     24 C           4.3817    1.1980   18.5544 C.ar    1  UNL1        0.0312
     25 C           4.5893   -0.2023   19.0503 C.ar    1  UNL1        0.1454
     26 F           5.9635   -0.8034   19.0464 F       1  UNL1       -0.2040
     27 C           3.4225   -1.0016   19.5501 C.ar    1  UNL1        0.0951
     28 C           2.0482   -0.4005   19.5540 C.ar    1  UNL1        0.1598
     29 F           0.8814   -1.1998   20.0538 F       1  UNL1       -0.2026
     30 N           0.4664    1.6010   19.0620 N.pl3   1  UNL1       -0.2166
     31 H          -0.1730    1.3723   18.3492 H       1  UNL1        0.1734
     32 S           0.0662    2.5506   20.1521 S.O2    1  UNL1        0.0540
     33 O           0.4257    3.7114   19.2727 O.2     1  UNL1       -0.1545
     34 O          -0.2933    1.3897   21.0314 O.2     1  UNL1       -0.1545
     35 C          -0.3339    3.5001   21.2421 C.3     1  UNL1        0.1724
     36 C          -2.7641    3.6782   22.1437 C.3     1  UNL1        0.0019
     37 C          -1.6861    4.1487   21.2128 C.3     1  UNL1        0.0273
@<TRIPOS>BOND
     1    36    37    1
     2    37    35    1
     3    35    32    1
     4    32    33    2
     5    32    34    2
     6    32    30    1
     7    30    22    1
     8    22    23   ar
     9    23    24   ar
    10    24    25   ar
    11    25    26    1
    12    25    27   ar
    13    27    20    1
    14    20    21    2
    15    20     1    1
    16     1     2   ar
    17     2     3   ar
    18     3     4   ar
    19     4     5   ar
    20     5     6   ar
    21     6     7   ar
    22     7    11    1
    23    11    12   ar
    24    12    13   ar
    25    13    14   ar
    26    14    17    1
    27    17    18    1
    28    17    19    1
    29    14    15   ar
    30    15    16   ar
    31     7     8   ar
    32     8     9   ar
    33    27    28   ar
    34    28    29    1
    35    28    22   ar
    36     9     1   ar
    37     9     4    1
    38    16    11   ar
    39    30    31    1
    40     5    10    1
