@<TRIPOS>MOLECULE
*****
 12 13 0 0 0
SMALL
GASTEIGER

@<TRIPOS>ATOM
      1 N           6.1324  -11.3030   27.9537 N.pl3   1  UNL1       -0.2805
      2 N           5.3037  -12.4787   27.5283 N.ar    1  UNL1       -0.1655
      3 N           5.6214  -13.4212   26.4055 N.ar    1  UNL1       -0.0461
      4 N           4.5259  -14.4433   26.3343 N.ar    1  UNL1       -0.1273
      5 C           3.5311  -14.1326   27.4132 C.ar    1  UNL1        0.1236
      6 C           2.2497  -14.7983   27.8190 C.ar    1  UNL1        0.0226
      7 C           1.4491  -14.2499   28.9627 C.ar    1  UNL1        0.0017
      8 C           1.9298  -13.0357   29.7006 C.ar    1  UNL1        0.0017
      9 C           3.2112  -12.3699   29.2949 C.ar    1  UNL1        0.0223
     10 C           4.0119  -12.9183   28.1512 C.ar    1  UNL1        0.1191
     11 H           6.9697  -11.0937   27.4801 H       1  UNL1        0.1642
     12 H           5.8389  -10.7405   28.7066 H       1  UNL1        0.1642
@<TRIPOS>BOND
     1     1     2    1
     2     2     3   ar
     3     3     4   ar
     4     4     5   ar
     5     5     6   ar
     6     6     7   ar
     7     7     8   ar
     8     8     9   ar
     9     9    10   ar
    10    10     2   ar
    11    10     5   ar
    12     1    11    1
    13     1    12    1
@<TRIPOS>MOLECULE
*****
 12 13 0 0 0
SMALL
GASTEIGER

@<TRIPOS>ATOM
      1 N          -8.8514  -14.5036   20.8269 N.pl3   1  UNL1       -0.2805
      2 N         -10.1150  -15.2685   20.5657 N.ar    1  UNL1       -0.1655
      3 N         -10.9246  -15.2290   19.3036 N.ar    1  UNL1       -0.0461
      4 N         -12.1008  -16.1433   19.4787 N.ar    1  UNL1       -0.1273
      5 C         -12.0181  -16.7478   20.8490 C.ar    1  UNL1        0.1236
      6 C         -12.9018  -17.7207   21.5718 C.ar    1  UNL1        0.0226
      7 C         -12.5582  -18.1529   22.9664 C.ar    1  UNL1        0.0017
      8 C         -11.3309  -17.6123   23.6383 C.ar    1  UNL1        0.0017
      9 C         -10.4472  -16.6394   22.9155 C.ar    1  UNL1        0.0223
     10 C         -10.7908  -16.2071   21.5208 C.ar    1  UNL1        0.1191
     11 H          -8.4837  -13.9090   20.1338 H       1  UNL1        0.1642
     12 H          -8.3897  -14.5962   21.6915 H       1  UNL1        0.1642
@<TRIPOS>BOND
     1     1     2    1
     2     2     3   ar
     3     3     4   ar
     4     4     5   ar
     5     5     6   ar
     6     6     7   ar
     7     7     8   ar
     8     8     9   ar
     9     9    10   ar
    10    10     2   ar
    11    10     5   ar
    12     1    11    1
    13     1    12    1
@<TRIPOS>MOLECULE
*****
 12 13 0 0 0
SMALL
GASTEIGER

@<TRIPOS>ATOM
      1 N         -12.6701  -15.7124   19.3828 N.pl3   1  UNL1       -0.2805
      2 N         -11.5662  -15.9415   20.3722 N.ar    1  UNL1       -0.1655
      3 N         -10.1791  -15.3763   20.2921 N.ar    1  UNL1       -0.0461
      4 N          -9.4112  -15.8615   21.4858 N.ar    1  UNL1       -0.1273
      5 C         -10.3238  -16.7266   22.3037 C.ar    1  UNL1        0.1236
      6 C         -10.1141  -17.4756   23.5862 C.ar    1  UNL1        0.0226
      7 C         -11.2362  -18.2741   24.1805 C.ar    1  UNL1        0.0017
      8 C         -12.5681  -18.3235   23.4923 C.ar    1  UNL1        0.0017
      9 C         -12.7778  -17.5744   22.2097 C.ar    1  UNL1        0.0223
     10 C         -11.6557  -16.7760   21.6155 C.ar    1  UNL1        0.1191
     11 H         -12.5137  -15.1455   18.5933 H       1  UNL1        0.1642
     12 H         -13.5511  -16.1289   19.5231 H       1  UNL1        0.1642
@<TRIPOS>BOND
     1     1     2    1
     2     2     3   ar
     3     3     4   ar
     4     4     5   ar
     5     5     6   ar
     6     6     7   ar
     7     7     8   ar
     8     8     9   ar
     9     9    10   ar
    10    10     2   ar
    11    10     5   ar
    12     1    11    1
    13     1    12    1
@<TRIPOS>MOLECULE
*****
 12 13 0 0 0
SMALL
GASTEIGER

@<TRIPOS>ATOM
      1 N          -9.4338  -18.8857   19.5366 N.pl3   1  UNL1       -0.2805
      2 N         -10.6239  -18.3146   20.2490 N.ar    1  UNL1       -0.1655
      3 N         -11.6510  -17.3973   19.6543 N.ar    1  UNL1       -0.0461
      4 N         -12.6577  -17.0764   20.7190 N.ar    1  UNL1       -0.1273
      5 C         -12.2528  -17.7953   21.9717 C.ar    1  UNL1        0.1236
      6 C         -12.8662  -17.8519   23.3393 C.ar    1  UNL1        0.0226
      7 C         -12.2227  -18.6738   24.4165 C.ar    1  UNL1        0.0017
      8 C         -10.9657  -19.4391   24.1260 C.ar    1  UNL1        0.0017
      9 C         -10.3523  -19.3824   22.7584 C.ar    1  UNL1        0.0223
     10 C         -10.9958  -18.5605   21.6812 C.ar    1  UNL1        0.1191
     11 H          -9.2734  -18.6645   18.5908 H       1  UNL1        0.1642
     12 H          -8.8131  -19.4817   20.0149 H       1  UNL1        0.1642
@<TRIPOS>BOND
     1     1     2    1
     2     2     3   ar
     3     3     4   ar
     4     4     5   ar
     5     5     6   ar
     6     6     7   ar
     7     7     8   ar
     8     8     9   ar
     9     9    10   ar
    10    10     2   ar
    11    10     5   ar
    12     1    11    1
    13     1    12    1
@<TRIPOS>MOLECULE
*****
 12 13 0 0 0
SMALL
GASTEIGER

@<TRIPOS>ATOM
      1 N          -1.3642  -17.8769   18.0830 N.pl3   1  UNL1       -0.2805
      2 N          -1.6316  -18.3424   19.4836 N.ar    1  UNL1       -0.1655
      3 N          -0.6129  -18.4831   20.5756 N.ar    1  UNL1       -0.0461
      4 N          -1.3164  -18.9766   21.8050 N.ar    1  UNL1       -0.1273
      5 C          -2.7699  -19.1409   21.4729 C.ar    1  UNL1        0.1236
      6 C          -3.9412  -19.5967   22.2916 C.ar    1  UNL1        0.0226
      7 C          -5.3074  -19.6606   21.6755 C.ar    1  UNL1        0.0017
      8 C          -5.5022  -19.2686   20.2408 C.ar    1  UNL1        0.0017
      9 C          -4.3309  -18.8127   19.4222 C.ar    1  UNL1        0.0223
     10 C          -2.9648  -18.7489   20.0382 C.ar    1  UNL1        0.1191
     11 H          -0.4503  -17.6307   17.8121 H       1  UNL1        0.1642
     12 H          -2.1027  -17.8175   17.4346 H       1  UNL1        0.1642
@<TRIPOS>BOND
     1     1     2    1
     2     2     3   ar
     3     3     4   ar
     4     4     5   ar
     5     5     6   ar
     6     6     7   ar
     7     7     8   ar
     8     8     9   ar
     9     9    10   ar
    10    10     2   ar
    11    10     5   ar
    12     1    11    1
    13     1    12    1
@<TRIPOS>MOLECULE
*****
 12 13 0 0 0
SMALL
GASTEIGER

@<TRIPOS>ATOM
      1 N          -7.8229  -14.9937   22.5786 N.pl3   1  UNL1       -0.2805
      2 N          -8.4215  -16.2406   21.9982 N.ar    1  UNL1       -0.1655
      3 N          -7.6728  -17.3326   21.2932 N.ar    1  UNL1       -0.0461
      4 N          -8.6625  -18.3813   20.8802 N.ar    1  UNL1       -0.1273
      5 C         -10.0230  -17.9375   21.3299 C.ar    1  UNL1        0.1236
      6 C         -11.3781  -18.5671   21.1996 C.ar    1  UNL1        0.0226
      7 C         -12.5843  -17.8738   21.7601 C.ar    1  UNL1        0.0017
      8 C         -12.4354  -16.5507   22.4511 C.ar    1  UNL1        0.0017
      9 C         -11.0802  -15.9211   22.5815 C.ar    1  UNL1        0.0223
     10 C          -9.8740  -16.6145   22.0209 C.ar    1  UNL1        0.1191
     11 H          -6.8532  -14.8368   22.5134 H       1  UNL1        0.1642
     12 H          -8.3997  -14.3323   23.0246 H       1  UNL1        0.1642
@<TRIPOS>BOND
     1     1     2    1
     2     2     3   ar
     3     3     4   ar
     4     4     5   ar
     5     5     6   ar
     6     6     7   ar
     7     7     8   ar
     8     8     9   ar
     9     9    10   ar
    10    10     2   ar
    11    10     5   ar
    12     1    11    1
    13     1    12    1
@<TRIPOS>MOLECULE
*****
 12 13 0 0 0
SMALL
GASTEIGER

@<TRIPOS>ATOM
      1 N          -0.0304  -16.7270   20.1566 N.pl3   1  UNL1       -0.2805
      2 N          -1.2456  -17.5896   19.9852 N.ar    1  UNL1       -0.1655
      3 N          -1.6361  -18.3246   18.7373 N.ar    1  UNL1       -0.0461
      4 N          -2.9154  -19.0579   19.0125 N.ar    1  UNL1       -0.1273
      5 C          -3.3155  -18.7761   20.4304 C.ar    1  UNL1        0.1236
      6 C          -4.4861  -19.2285   21.2518 C.ar    1  UNL1        0.0226
      7 C          -4.6248  -18.7736   22.6744 C.ar    1  UNL1        0.0017
      8 C          -3.5927  -17.8661   23.2756 C.ar    1  UNL1        0.0017
      9 C          -2.4221  -17.4136   22.4542 C.ar    1  UNL1        0.0223
     10 C          -2.2834  -17.8686   21.0316 C.ar    1  UNL1        0.1191
     11 H           0.5957  -16.6041   19.4069 H       1  UNL1        0.1642
     12 H           0.1409  -16.2837   21.0188 H       1  UNL1        0.1642
@<TRIPOS>BOND
     1     1     2    1
     2     2     3   ar
     3     3     4   ar
     4     4     5   ar
     5     5     6   ar
     6     6     7   ar
     7     7     8   ar
     8     8     9   ar
     9     9    10   ar
    10    10     2   ar
    11    10     5   ar
    12     1    11    1
    13     1    12    1
@<TRIPOS>MOLECULE
*****
 12 13 0 0 0
SMALL
GASTEIGER

@<TRIPOS>ATOM
      1 N          -8.0985  -15.0273   21.5525 N.pl3   1  UNL1       -0.2805
      2 N          -8.8157  -15.9389   22.5036 N.ar    1  UNL1       -0.1655
      3 N          -8.2796  -16.4509   23.8076 N.ar    1  UNL1       -0.0461
      4 N          -9.3274  -17.3270   24.4276 N.ar    1  UNL1       -0.1273
      5 C         -10.5111  -17.3565   23.5067 C.ar    1  UNL1        0.1236
      6 C         -11.8361  -18.0537   23.5973 C.ar    1  UNL1        0.0226
      7 C         -12.8448  -17.8931   22.4989 C.ar    1  UNL1        0.0017
      8 C         -12.5285  -17.0352   21.3098 C.ar    1  UNL1        0.0017
      9 C         -11.2035  -16.3379   21.2191 C.ar    1  UNL1        0.0223
     10 C         -10.1948  -16.4986   22.3176 C.ar    1  UNL1        0.1191
     11 H          -7.1903  -14.7113   21.7638 H       1  UNL1        0.1642
     12 H          -8.5360  -14.7449   20.7170 H       1  UNL1        0.1642
@<TRIPOS>BOND
     1     1     2    1
     2     2     3   ar
     3     3     4   ar
     4     4     5   ar
     5     5     6   ar
     6     6     7   ar
     7     7     8   ar
     8     8     9   ar
     9     9    10   ar
    10    10     2   ar
    11    10     5   ar
    12     1    11    1
    13     1    12    1
@<TRIPOS>MOLECULE
*****
 12 13 0 0 0
SMALL
GASTEIGER

@<TRIPOS>ATOM
      1 N          -7.8331  -19.6104   22.4417 N.pl3   1  UNL1       -0.2805
      2 N          -8.5482  -18.3191   22.1749 N.ar    1  UNL1       -0.1655
      3 N          -7.9504  -17.0927   21.5516 N.ar    1  UNL1       -0.0461
      4 N          -9.0193  -16.0431   21.4761 N.ar    1  UNL1       -0.1273
      5 C         -10.2778  -16.6208   22.0527 C.ar    1  UNL1        0.1236
      6 C         -11.6512  -16.0478   22.2403 C.ar    1  UNL1        0.0226
      7 C         -12.7335  -16.8814   22.8597 C.ar    1  UNL1        0.0017
      8 C         -12.4423  -18.2880   23.2916 C.ar    1  UNL1        0.0017
      9 C         -11.0689  -18.8611   23.1040 C.ar    1  UNL1        0.0223
     10 C          -9.9866  -18.0275   22.4846 C.ar    1  UNL1        0.1191
     11 H          -6.8832  -19.7058   22.2015 H       1  UNL1        0.1642
     12 H          -8.3138  -20.3626   22.8570 H       1  UNL1        0.1642
@<TRIPOS>BOND
     1     1     2    1
     2     2     3   ar
     3     3     4   ar
     4     4     5   ar
     5     5     6   ar
     6     6     7   ar
     7     7     8   ar
     8     8     9   ar
     9     9    10   ar
    10    10     2   ar
    11    10     5   ar
    12     1    11    1
    13     1    12    1
