@<TRIPOS>MOLECULE
*****
 44 47 0 0 0
SMALL
GASTEIGER

@<TRIPOS>ATOM
      1 C          -5.8854  -18.9957   22.2523 C.2     1  UNL1        0.2460
      2 O          -5.0771  -20.1641   22.7335 O.2     1  UNL1       -0.2701
      3 N          -5.5191  -17.6045   22.6770 N.am    1  UNL1       -0.2997
      4 H          -6.0496  -16.8377   22.3612 H       1  UNL1        0.1498
      5 C          -8.0972  -20.3289   19.2389 C.ar    1  UNL1        0.0461
      6 C          -6.9227  -20.1060   20.1449 C.ar    1  UNL1        0.0189
      7 C          -7.0600  -19.2186   21.3463 C.ar    1  UNL1        0.0559
      8 C          -8.3718  -18.5539   21.6419 C.ar    1  UNL1        0.0207
      9 C          -9.5463  -18.7768   20.7359 C.ar    1  UNL1        0.0698
     10 C          -9.4090  -19.6642   19.5344 C.ar    1  UNL1        0.0304
     11 N         -10.8582  -18.1121   21.0314 N.pl3   1  UNL1       -0.1943
     12 C         -11.7754  -18.6905   22.0679 C.3     1  UNL1        0.1155
     13 C         -13.0873  -18.0259   22.3634 C.3     1  UNL1        0.0252
     14 C         -13.4820  -16.7829   21.6224 C.3     1  UNL1        0.0292
     15 C         -12.5648  -16.2045   20.5858 C.3     1  UNL1        0.1727
     16 S         -11.2529  -16.8691   20.2904 S.O2    1  UNL1        0.0569
     17 O          -9.9170  -17.1340   19.6618 O.2     1  UNL1       -0.1543
     18 O         -11.1836  -15.7181   19.3310 O.2     1  UNL1       -0.1543
     19 N          -7.9599  -21.2163   18.0374 N.pl3   1  UNL1       -0.3326
     20 H          -7.0683  -21.4097   17.6676 H       1  UNL1        0.1468
     21 C          -9.5297  -21.4632   15.9820 C.3     1  UNL1        0.0229
     22 C          -9.1812  -21.8091   17.3993 C.3     1  UNL1        0.0871
     23 C          -4.3446  -17.3817   23.5830 C.3     1  UNL1        0.1043
     24 C          -4.5107  -16.5877   24.8448 C.3     1  UNL1        0.1443
     25 O          -4.0737  -17.1664   26.1579 O.3     1  UNL1       -0.3813
     26 H          -3.7088  -18.0537   26.0149 H       1  UNL1        0.2105
     27 C          -5.1136  -15.2153   24.7935 C.3     1  UNL1        0.1001
     28 N          -6.2152  -14.9160   23.8204 N.3     1  UNL1       -0.2916
     29 H          -6.1818  -15.6426   23.1053 H       1  UNL1        0.1236
     30 C          -7.6360  -14.8409   24.2956 C.3     1  UNL1        0.0989
     31 C          -8.2499  -16.0072   25.0117 C.ar    1  UNL1        0.0332
     32 C          -8.1683  -16.2798   26.4845 C.ar    1  UNL1        0.1187
     33 N          -8.9211  -17.5468   26.7638 N.ar    1  UNL1       -0.1680
     34 N          -9.4680  -18.0572   25.4636 N.ar    1  UNL1       -0.2497
     35 C          -9.0531  -17.1057   24.3808 C.ar    1  UNL1        0.0937
     36 C         -10.2861  -19.3008   25.2788 C.3     1  UNL1        0.1276
     37 C          -9.7420  -20.4438   24.4741 C.3     1  UNL1        0.0284
     38 C          -3.0040  -17.9527   23.2271 C.3     1  UNL1        0.0484
     39 C          -2.4976  -17.8561   21.8185 C.ar    1  UNL1       -0.0204
     40 C          -2.8244  -18.9344   20.8284 C.ar    1  UNL1       -0.0042
     41 C          -2.3181  -18.8379   19.4198 C.ar    1  UNL1       -0.0003
     42 C          -1.4848  -17.6629   19.0013 C.ar    1  UNL1       -0.0000
     43 C          -1.1579  -16.5846   19.9913 C.ar    1  UNL1       -0.0003
     44 C          -1.6643  -16.6812   21.4000 C.ar    1  UNL1       -0.0042
@<TRIPOS>BOND
     1    21    22    1
     2    22    19    1
     3    19     5    1
     4     5     6   ar
     5     6     7   ar
     6     7     1    1
     7     1     2    2
     8     1     3   am
     9     3    23    1
    10    23    38    1
    11    38    39    1
    12    39    40   ar
    13    40    41   ar
    14    41    42   ar
    15    42    43   ar
    16    43    44   ar
    17    23    24    1
    18    24    25    1
    19    24    27    1
    20    27    28    1
    21    28    30    1
    22    30    31    1
    23    31    32   ar
    24    32    33   ar
    25    33    34   ar
    26    34    36    1
    27    36    37    1
    28    34    35   ar
    29     7     8   ar
    30     8     9   ar
    31     9    11    1
    32    11    12    1
    33    12    13    1
    34    13    14    1
    35    14    15    1
    36    15    16    1
    37    16    17    2
    38    16    18    2
    39     9    10   ar
    40    10     5   ar
    41    44    39   ar
    42    35    31   ar
    43    16    11    1
    44    19    20    1
    45     3     4    1
    46    25    26    1
    47    28    29    1
@<TRIPOS>MOLECULE
*****
 44 47 0 0 0
SMALL
GASTEIGER

@<TRIPOS>ATOM
      1 C          -5.8947  -18.2351   22.4968 C.2     1  UNL1        0.2460
      2 O          -4.8975  -19.3148   22.7964 O.2     1  UNL1       -0.2701
      3 N          -5.6288  -16.8257   22.9359 N.am    1  UNL1       -0.2997
      4 H          -6.2833  -16.1171   22.7393 H       1  UNL1        0.1498
      5 C          -8.3524  -19.4604   19.6318 C.ar    1  UNL1        0.0461
      6 C          -7.0893  -19.1307   20.3705 C.ar    1  UNL1        0.0189
      7 C          -7.1579  -18.5648   21.7580 C.ar    1  UNL1        0.0559
      8 C          -8.4895  -18.3286   22.4067 C.ar    1  UNL1        0.0207
      9 C          -9.7526  -18.6583   21.6679 C.ar    1  UNL1        0.0698
     10 C          -9.6841  -19.2242   20.2805 C.ar    1  UNL1        0.0304
     11 N         -11.0844  -18.4221   22.3166 N.pl3   1  UNL1       -0.1943
     12 C         -11.3753  -19.0073   23.6667 C.3     1  UNL1        0.1155
     13 C         -12.7071  -18.7711   24.3154 C.3     1  UNL1        0.0252
     14 C         -13.7478  -17.9497   23.6139 C.3     1  UNL1        0.0292
     15 C         -13.4568  -17.3645   22.2637 C.3     1  UNL1        0.1727
     16 S         -12.1251  -17.6007   21.6151 S.O2    1  UNL1        0.0569
     17 O         -11.0218  -17.5449   20.6005 O.2     1  UNL1       -0.1543
     18 O         -12.7826  -16.7599   20.5612 O.2     1  UNL1       -0.1543
     19 N          -8.2839  -20.0262   18.2443 N.pl3   1  UNL1       -0.3326
     20 H          -7.7082  -19.6021   17.5676 H       1  UNL1        0.1468
     21 C          -9.4507  -21.5065   16.4562 C.3     1  UNL1        0.0229
     22 C          -9.0924  -21.2383   17.8879 C.3     1  UNL1        0.0871
     23 C          -4.3657  -16.4960   23.6747 C.3     1  UNL1        0.1043
     24 C          -3.0334  -16.7778   23.0455 C.3     1  UNL1        0.1443
     25 O          -2.2723  -18.0140   23.4229 O.3     1  UNL1       -0.3813
     26 H          -2.7781  -18.5172   24.0800 H       1  UNL1        0.2105
     27 C          -2.4624  -15.8234   22.0390 C.3     1  UNL1        0.1001
     28 N          -1.1014  -16.0707   21.4590 N.3     1  UNL1       -0.2916
     29 H          -0.5215  -16.4362   22.2143 H       1  UNL1        0.1236
     30 C          -0.9397  -17.0060   20.2974 C.3     1  UNL1        0.0989
     31 C          -2.0613  -17.9244   19.9122 C.ar    1  UNL1        0.0332
     32 C          -3.2245  -17.5746   19.0319 C.ar    1  UNL1        0.1187
     33 N          -4.0988  -18.7879   18.9153 N.ar    1  UNL1       -0.1680
     34 N          -3.4760  -19.8874   19.7235 N.ar    1  UNL1       -0.2497
     35 C          -2.2168  -19.3537   20.3396 C.ar    1  UNL1        0.0937
     36 C          -4.0174  -21.2768   19.8869 C.3     1  UNL1        0.1276
     37 C          -5.4740  -21.4846   20.1786 C.3     1  UNL1        0.0284
     38 C          -4.4347  -15.8844   25.0426 C.3     1  UNL1        0.0484
     39 C          -5.7610  -15.7161   25.7228 C.ar    1  UNL1       -0.0204
     40 C          -6.9711  -15.3343   24.9228 C.ar    1  UNL1       -0.0042
     41 C          -8.2973  -15.1659   25.6029 C.ar    1  UNL1       -0.0003
     42 C          -8.4136  -15.3793   27.0831 C.ar    1  UNL1       -0.0000
     43 C          -7.2035  -15.7610   27.8831 C.ar    1  UNL1       -0.0003
     44 C          -5.8772  -15.9294   27.2030 C.ar    1  UNL1       -0.0042
@<TRIPOS>BOND
     1    21    22    1
     2    22    19    1
     3    19     5    1
     4     5     6   ar
     5     6     7   ar
     6     7     1    1
     7     1     2    2
     8     1     3   am
     9     3    23    1
    10    23    38    1
    11    38    39    1
    12    39    40   ar
    13    40    41   ar
    14    41    42   ar
    15    42    43   ar
    16    43    44   ar
    17    23    24    1
    18    24    25    1
    19    24    27    1
    20    27    28    1
    21    28    30    1
    22    30    31    1
    23    31    32   ar
    24    32    33   ar
    25    33    34   ar
    26    34    36    1
    27    36    37    1
    28    34    35   ar
    29     7     8   ar
    30     8     9   ar
    31     9    11    1
    32    11    12    1
    33    12    13    1
    34    13    14    1
    35    14    15    1
    36    15    16    1
    37    16    17    2
    38    16    18    2
    39     9    10   ar
    40    10     5   ar
    41    44    39   ar
    42    35    31   ar
    43    16    11    1
    44    19    20    1
    45     3     4    1
    46    25    26    1
    47    28    29    1
@<TRIPOS>MOLECULE
*****
 44 47 0 0 0
SMALL
GASTEIGER

@<TRIPOS>ATOM
      1 C          -8.3215  -19.4017   22.7899 C.2     1  UNL1        0.2460
      2 O          -8.8275  -20.4502   23.7357 O.2     1  UNL1       -0.2701
      3 N          -8.7668  -17.9773   22.9414 N.am    1  UNL1       -0.2997
      4 H          -8.4347  -17.2891   22.3206 H       1  UNL1        0.1498
      5 C          -6.8726  -21.0548   19.4857 C.ar    1  UNL1        0.0461
      6 C          -7.8238  -20.6790   20.5829 C.ar    1  UNL1        0.0189
      7 C          -7.3702  -19.7775   21.6927 C.ar    1  UNL1        0.0559
      8 C          -5.9655  -19.2518   21.7052 C.ar    1  UNL1        0.0207
      9 C          -5.0143  -19.6275   20.6080 C.ar    1  UNL1        0.0698
     10 C          -5.4678  -20.5290   19.4982 C.ar    1  UNL1        0.0304
     11 N          -3.6094  -19.1018   20.6205 N.pl3   1  UNL1       -0.1943
     12 C          -2.6218  -19.6247   21.6211 C.3     1  UNL1        0.1155
     13 C          -1.2170  -19.0990   21.6336 C.3     1  UNL1        0.0252
     14 C          -0.7998  -18.0504   20.6455 C.3     1  UNL1        0.0292
     15 C          -1.7875  -17.5275   19.6448 C.3     1  UNL1        0.1727
     16 S          -3.1922  -18.0532   19.6324 S.O2    1  UNL1        0.0569
     17 O          -4.6249  -18.2369   19.2280 O.2     1  UNL1       -0.1543
     18 O          -3.2727  -17.0684   18.5038 O.2     1  UNL1       -0.1543
     19 N          -7.3261  -21.9563   18.3759 N.pl3   1  UNL1       -0.3326
     20 H          -6.6784  -22.5426   17.9221 H       1  UNL1        0.1468
     21 C          -9.1553  -21.4660   16.5972 C.3     1  UNL1        0.0229
     22 C          -8.7666  -21.9645   17.9576 C.3     1  UNL1        0.0871
     23 C          -9.7181  -17.6015   24.0385 C.3     1  UNL1        0.1043
     24 C         -10.8657  -18.5056   24.3786 C.3     1  UNL1        0.1443
     25 O         -10.7226  -19.5192   25.4750 O.3     1  UNL1       -0.3813
     26 H          -9.8334  -19.4580   25.8579 H       1  UNL1        0.2105
     27 C         -12.1564  -18.3961   23.6223 C.3     1  UNL1        0.1001
     28 N         -12.1647  -18.5357   22.1288 N.3     1  UNL1       -0.2916
     29 H         -12.6644  -19.3993   21.9166 H       1  UNL1        0.1236
     30 C         -12.7757  -17.4617   21.2785 C.3     1  UNL1        0.0989
     31 C         -11.8966  -16.4666   20.5807 C.ar    1  UNL1        0.0332
     32 C         -12.0762  -15.9612   19.1798 C.ar    1  UNL1        0.1187
     33 N         -10.9742  -14.9844   18.8945 N.ar    1  UNL1       -0.1680
     34 N         -10.1135  -14.8861   20.1192 N.ar    1  UNL1       -0.2497
     35 C         -10.6836  -15.8021   21.1612 C.ar    1  UNL1        0.0937
     36 C          -8.8964  -14.0232   20.2744 C.3     1  UNL1        0.1276
     37 C          -7.8057  -14.4282   21.2212 C.3     1  UNL1        0.0284
     38 C          -9.5217  -16.3216   24.7957 C.3     1  UNL1        0.0484
     39 C          -8.1577  -15.9474   25.2952 C.ar    1  UNL1       -0.0204
     40 C          -7.0241  -15.7810   24.3270 C.ar    1  UNL1       -0.0042
     41 C          -5.6601  -15.4067   24.8264 C.ar    1  UNL1       -0.0003
     42 C          -5.4297  -15.1989   26.2939 C.ar    1  UNL1       -0.0000
     43 C          -6.5633  -15.3652   27.2620 C.ar    1  UNL1       -0.0003
     44 C          -7.9273  -15.7395   26.7627 C.ar    1  UNL1       -0.0042
@<TRIPOS>BOND
     1    21    22    1
     2    22    19    1
     3    19     5    1
     4     5     6   ar
     5     6     7   ar
     6     7     1    1
     7     1     2    2
     8     1     3   am
     9     3    23    1
    10    23    38    1
    11    38    39    1
    12    39    40   ar
    13    40    41   ar
    14    41    42   ar
    15    42    43   ar
    16    43    44   ar
    17    23    24    1
    18    24    25    1
    19    24    27    1
    20    27    28    1
    21    28    30    1
    22    30    31    1
    23    31    32   ar
    24    32    33   ar
    25    33    34   ar
    26    34    36    1
    27    36    37    1
    28    34    35   ar
    29     7     8   ar
    30     8     9   ar
    31     9    11    1
    32    11    12    1
    33    12    13    1
    34    13    14    1
    35    14    15    1
    36    15    16    1
    37    16    17    2
    38    16    18    2
    39     9    10   ar
    40    10     5   ar
    41    44    39   ar
    42    35    31   ar
    43    16    11    1
    44    19    20    1
    45     3     4    1
    46    25    26    1
    47    28    29    1
@<TRIPOS>MOLECULE
*****
 44 47 0 0 0
SMALL
GASTEIGER

@<TRIPOS>ATOM
      1 C          -8.5700  -19.1163   22.3839 C.2     1  UNL1        0.2460
      2 O          -9.9337  -19.7353   22.4679 O.2     1  UNL1       -0.2701
      3 N          -8.2109  -17.9684   23.2802 N.am    1  UNL1       -0.2997
      4 H          -7.3159  -17.5621   23.2251 H       1  UNL1        0.1498
      5 C          -6.9792  -21.1734   19.3860 C.ar    1  UNL1        0.0461
      6 C          -7.9838  -20.6446   20.3663 C.ar    1  UNL1        0.0189
      7 C          -7.5653  -19.6452   21.4036 C.ar    1  UNL1        0.0559
      8 C          -6.1422  -19.1747   21.4607 C.ar    1  UNL1        0.0207
      9 C          -5.1375  -19.7036   20.4805 C.ar    1  UNL1        0.0698
     10 C          -5.5560  -20.7030   19.4431 C.ar    1  UNL1        0.0304
     11 N          -3.7143  -19.2331   20.5376 N.pl3   1  UNL1       -0.1943
     12 C          -2.7728  -19.8129   21.5512 C.3     1  UNL1        0.1155
     13 C          -1.3496  -19.3424   21.6082 C.3     1  UNL1        0.0252
     14 C          -0.8680  -18.2922   20.6516 C.3     1  UNL1        0.0292
     15 C          -1.8095  -17.7125   19.6380 C.3     1  UNL1        0.1727
     16 S          -3.2327  -18.1829   19.5809 S.O2    1  UNL1        0.0569
     17 O          -4.6608  -18.3032   19.1383 O.2     1  UNL1       -0.1543
     18 O          -3.2471  -17.1745   18.4706 O.2     1  UNL1       -0.1543
     19 N          -7.3977  -22.1728   18.3487 N.pl3   1  UNL1       -0.3326
     20 H          -6.7407  -22.8097   17.9854 H       1  UNL1        0.1468
     21 C          -9.2016  -21.4535   16.6229 C.3     1  UNL1        0.0229
     22 C          -8.8171  -22.2018   17.8647 C.3     1  UNL1        0.0871
     23 C          -9.2156  -17.4395   24.2605 C.3     1  UNL1        0.1043
     24 C          -9.3649  -18.0878   25.6049 C.3     1  UNL1        0.1443
     25 O         -10.0227  -19.4309   25.7209 O.3     1  UNL1       -0.3813
     26 H         -10.2908  -19.7368   24.8403 H       1  UNL1        0.2105
     27 C          -8.8566  -17.3931   26.8332 C.3     1  UNL1        0.1001
     28 N          -8.6098  -15.9137   26.8102 N.3     1  UNL1       -0.2916
     29 H          -9.0177  -15.5338   27.6644 H       1  UNL1        0.1236
     30 C          -7.2070  -15.3885   26.7294 C.3     1  UNL1        0.0989
     31 C          -6.4428  -15.4855   25.4424 C.ar    1  UNL1        0.0332
     32 C          -6.8076  -14.8207   24.1481 C.ar    1  UNL1        0.1187
     33 N          -5.7699  -15.1886   23.1294 N.ar    1  UNL1       -0.1680
     34 N          -4.7637  -16.0808   23.7941 N.ar    1  UNL1       -0.2497
     35 C          -5.1796  -16.2642   25.2236 C.ar    1  UNL1        0.0937
     36 C          -3.5540  -16.6837   23.1435 C.3     1  UNL1        0.1276
     37 C          -2.6800  -15.8432   22.2606 C.3     1  UNL1        0.0284
     38 C         -10.0709  -16.2622   23.8964 C.3     1  UNL1        0.0484
     39 C         -10.8755  -16.2827   22.6306 C.ar    1  UNL1       -0.0204
     40 C         -10.3021  -15.7107   21.3681 C.ar    1  UNL1       -0.0042
     41 C         -11.1067  -15.7311   20.1023 C.ar    1  UNL1       -0.0003
     42 C         -12.4847  -16.3236   20.0991 C.ar    1  UNL1       -0.0000
     43 C         -13.0581  -16.8956   21.3617 C.ar    1  UNL1       -0.0003
     44 C         -12.2535  -16.8751   22.6274 C.ar    1  UNL1       -0.0042
@<TRIPOS>BOND
     1    21    22    1
     2    22    19    1
     3    19     5    1
     4     5     6   ar
     5     6     7   ar
     6     7     1    1
     7     1     2    2
     8     1     3   am
     9     3    23    1
    10    23    38    1
    11    38    39    1
    12    39    40   ar
    13    40    41   ar
    14    41    42   ar
    15    42    43   ar
    16    43    44   ar
    17    23    24    1
    18    24    25    1
    19    24    27    1
    20    27    28    1
    21    28    30    1
    22    30    31    1
    23    31    32   ar
    24    32    33   ar
    25    33    34   ar
    26    34    36    1
    27    36    37    1
    28    34    35   ar
    29     7     8   ar
    30     8     9   ar
    31     9    11    1
    32    11    12    1
    33    12    13    1
    34    13    14    1
    35    14    15    1
    36    15    16    1
    37    16    17    2
    38    16    18    2
    39     9    10   ar
    40    10     5   ar
    41    44    39   ar
    42    35    31   ar
    43    16    11    1
    44    19    20    1
    45     3     4    1
    46    25    26    1
    47    28    29    1
@<TRIPOS>MOLECULE
*****
 44 47 0 0 0
SMALL
GASTEIGER

@<TRIPOS>ATOM
      1 C          -5.9086  -18.1601   21.8525 C.2     1  UNL1        0.2460
      2 O          -5.8746  -17.7937   20.3984 O.2     1  UNL1       -0.2701
      3 N          -5.0320  -19.2624   22.3689 N.am    1  UNL1       -0.2997
      4 H          -5.0543  -19.5029   23.3233 H       1  UNL1        0.1498
      5 C          -7.1656  -15.6773   24.6819 C.ar    1  UNL1        0.0461
      6 C          -6.2551  -16.4132   23.7441 C.ar    1  UNL1        0.0189
      7 C          -6.8191  -17.4243   22.7903 C.ar    1  UNL1        0.0559
      8 C          -8.2935  -17.6995   22.7744 C.ar    1  UNL1        0.0207
      9 C          -9.2040  -16.9637   23.7122 C.ar    1  UNL1        0.0698
     10 C          -8.6400  -15.9526   24.6660 C.ar    1  UNL1        0.0304
     11 N         -10.6785  -17.2389   23.6963 N.pl3   1  UNL1       -0.1943
     12 C         -11.6178  -16.2572   23.0609 C.3     1  UNL1        0.1155
     13 C         -13.0923  -16.5324   23.0450 C.3     1  UNL1        0.0252
     14 C         -13.6274  -17.7894   23.6646 C.3     1  UNL1        0.0292
     15 C         -12.6879  -18.7711   24.3001 C.3     1  UNL1        0.1727
     16 S         -11.2135  -18.4958   24.3159 S.O2    1  UNL1        0.0569
     17 O          -9.7481  -18.6792   24.5787 O.2     1  UNL1       -0.1543
     18 O         -11.2395  -19.8164   25.0268 O.2     1  UNL1       -0.1543
     19 N          -6.6016  -14.6662   25.6357 N.pl3   1  UNL1       -0.3326
     20 H          -6.3230  -13.7811   25.3068 H       1  UNL1        0.1468
     21 C          -7.0622  -16.2691   27.6278 C.3     1  UNL1        0.0229
     22 C          -6.4622  -15.0037   27.0905 C.3     1  UNL1        0.0871
     23 C          -4.1215  -19.9982   21.4311 C.3     1  UNL1        0.1043
     24 C          -4.6977  -20.8123   20.3106 C.3     1  UNL1        0.1443
     25 O          -3.8775  -21.0886   19.0855 O.3     1  UNL1       -0.3813
     26 H          -3.0064  -20.6724   19.1790 H       1  UNL1        0.2105
     27 C          -6.0941  -21.3499   20.4153 C.3     1  UNL1        0.1001
     28 N          -7.2434  -20.4130   20.6420 N.3     1  UNL1       -0.2916
     29 H          -6.8416  -19.4976   20.8445 H       1  UNL1        0.1236
     30 C          -8.2675  -20.2078   19.5653 C.3     1  UNL1        0.0989
     31 C          -9.5476  -19.4900   19.8748 C.ar    1  UNL1        0.0332
     32 C         -10.6707  -20.0145   20.7195 C.ar    1  UNL1        0.1187
     33 N         -11.7466  -18.9703   20.7607 N.ar    1  UNL1       -0.1680
     34 N         -11.2886  -17.8002   19.9413 N.ar    1  UNL1       -0.2497
     35 C          -9.9295  -18.1215   19.3938 C.ar    1  UNL1        0.0937
     36 C         -12.0550  -16.5317   19.7100 C.3     1  UNL1        0.1276
     37 C         -11.3881  -15.3625   19.0482 C.3     1  UNL1        0.0284
     38 C          -2.6347  -19.9201   21.6137 C.3     1  UNL1        0.0484
     39 C          -1.8949  -18.6762   21.2193 C.ar    1  UNL1       -0.0204
     40 C          -2.2433  -17.3630   21.8550 C.ar    1  UNL1       -0.0042
     41 C          -1.5036  -16.1192   21.4607 C.ar    1  UNL1       -0.0003
     42 C          -0.4155  -16.1885   20.4305 C.ar    1  UNL1       -0.0000
     43 C          -0.0671  -17.5017   19.7948 C.ar    1  UNL1       -0.0003
     44 C          -0.8068  -18.7456   20.1892 C.ar    1  UNL1       -0.0042
@<TRIPOS>BOND
     1    21    22    1
     2    22    19    1
     3    19     5    1
     4     5     6   ar
     5     6     7   ar
     6     7     1    1
     7     1     2    2
     8     1     3   am
     9     3    23    1
    10    23    38    1
    11    38    39    1
    12    39    40   ar
    13    40    41   ar
    14    41    42   ar
    15    42    43   ar
    16    43    44   ar
    17    23    24    1
    18    24    25    1
    19    24    27    1
    20    27    28    1
    21    28    30    1
    22    30    31    1
    23    31    32   ar
    24    32    33   ar
    25    33    34   ar
    26    34    36    1
    27    36    37    1
    28    34    35   ar
    29     7     8   ar
    30     8     9   ar
    31     9    11    1
    32    11    12    1
    33    12    13    1
    34    13    14    1
    35    14    15    1
    36    15    16    1
    37    16    17    2
    38    16    18    2
    39     9    10   ar
    40    10     5   ar
    41    44    39   ar
    42    35    31   ar
    43    16    11    1
    44    19    20    1
    45     3     4    1
    46    25    26    1
    47    28    29    1
@<TRIPOS>MOLECULE
*****
 44 47 0 0 0
SMALL
GASTEIGER

@<TRIPOS>ATOM
      1 C           5.4439   -1.4725   27.1605 C.2     1  UNL1        0.2460
      2 O           6.9066   -1.2523   27.4090 O.2     1  UNL1       -0.2701
      3 N           4.9867   -2.0921   25.8733 N.am    1  UNL1       -0.2997
      4 H           4.0266   -2.2366   25.7102 H       1  UNL1        0.1498
      5 C           1.9849   -0.5401   28.8683 C.ar    1  UNL1        0.0461
      6 C           2.9906   -0.9395   27.8296 C.ar    1  UNL1        0.0189
      7 C           4.4382   -1.0730   28.1994 C.ar    1  UNL1        0.0559
      8 C           4.8801   -0.8072   29.6079 C.ar    1  UNL1        0.0207
      9 C           3.8744   -0.4078   30.6466 C.ar    1  UNL1        0.0698
     10 C           2.4268   -0.2742   30.2769 C.ar    1  UNL1        0.0304
     11 N           4.3163   -0.1418   32.0553 N.pl3   1  UNL1       -0.1943
     12 C           4.8957    1.1926   32.4203 C.3     1  UNL1        0.1155
     13 C           5.3376    1.4585   33.8289 C.3     1  UNL1        0.0252
     14 C           5.1999    0.3899   34.8724 C.3     1  UNL1        0.0292
     15 C           4.6204   -0.9447   34.5074 C.3     1  UNL1        0.1727
     16 S           4.1786   -1.2105   33.0988 S.O2    1  UNL1        0.0569
     17 O           3.6218   -1.9349   31.9092 O.2     1  UNL1       -0.1543
     18 O           3.8476   -2.5308   33.7291 O.2     1  UNL1       -0.1543
     19 N           0.5374   -0.4065   28.4985 N.pl3   1  UNL1       -0.3326
     20 H           0.1724   -0.9230   27.7440 H       1  UNL1        0.1468
     21 C          -1.8260    0.2380   29.3638 C.3     1  UNL1        0.0229
     22 C          -0.3541    0.5138   29.2784 C.3     1  UNL1        0.0871
     23 C           5.9923   -2.4915   24.8344 C.3     1  UNL1        0.1043
     24 C           6.5945   -3.8651   24.8626 C.3     1  UNL1        0.1443
     25 O           6.3060   -4.7871   26.0100 O.3     1  UNL1       -0.3813
     26 H           5.7183   -4.3435   26.6414 H       1  UNL1        0.2105
     27 C           7.4852   -4.3166   23.7433 C.3     1  UNL1        0.1001
     28 N           6.8909   -4.7038   22.4216 N.3     1  UNL1       -0.2916
     29 H           5.8992   -4.4694   22.4646 H       1  UNL1        0.1236
     30 C           7.4234   -4.1023   21.1548 C.3     1  UNL1        0.0989
     31 C           6.4765   -3.5502   20.1308 C.ar    1  UNL1        0.0332
     32 C           5.2302   -4.2188   19.6312 C.ar    1  UNL1        0.1187
     33 N           4.5931   -3.3143   18.6183 N.ar    1  UNL1       -0.1680
     34 N           5.4457   -2.0867   18.4919 N.ar    1  UNL1       -0.2497
     35 C           6.6097   -2.2325   19.4266 C.ar    1  UNL1        0.0937
     36 C           5.1808   -0.9184   17.5891 C.3     1  UNL1        0.1276
     37 C           3.8672   -0.8061   16.8737 C.3     1  UNL1        0.0284
     38 C           6.3958   -1.5174   23.7675 C.3     1  UNL1        0.0484
     39 C           5.3929   -1.0631   22.7487 C.ar    1  UNL1       -0.0204
     40 C           4.1965   -1.9144   22.4424 C.ar    1  UNL1       -0.0042
     41 C           3.1937   -1.4601   21.4237 C.ar    1  UNL1       -0.0003
     42 C           3.3872   -0.1545   20.7112 C.ar    1  UNL1       -0.0000
     43 C           4.5836    0.6969   21.0175 C.ar    1  UNL1       -0.0003
     44 C           5.5865    0.2426   22.0362 C.ar    1  UNL1       -0.0042
@<TRIPOS>BOND
     1    21    22    1
     2    22    19    1
     3    19     5    1
     4     5     6   ar
     5     6     7   ar
     6     7     1    1
     7     1     2    2
     8     1     3   am
     9     3    23    1
    10    23    38    1
    11    38    39    1
    12    39    40   ar
    13    40    41   ar
    14    41    42   ar
    15    42    43   ar
    16    43    44   ar
    17    23    24    1
    18    24    25    1
    19    24    27    1
    20    27    28    1
    21    28    30    1
    22    30    31    1
    23    31    32   ar
    24    32    33   ar
    25    33    34   ar
    26    34    36    1
    27    36    37    1
    28    34    35   ar
    29     7     8   ar
    30     8     9   ar
    31     9    11    1
    32    11    12    1
    33    12    13    1
    34    13    14    1
    35    14    15    1
    36    15    16    1
    37    16    17    2
    38    16    18    2
    39     9    10   ar
    40    10     5   ar
    41    44    39   ar
    42    35    31   ar
    43    16    11    1
    44    19    20    1
    45     3     4    1
    46    25    26    1
    47    28    29    1
@<TRIPOS>MOLECULE
*****
 44 47 0 0 0
SMALL
GASTEIGER

@<TRIPOS>ATOM
      1 C           5.3646   -1.4845   27.1915 C.2     1  UNL1        0.2460
      2 O           6.2034   -0.4371   26.5212 O.2     1  UNL1       -0.2701
      3 N           5.4760   -2.9191   26.7676 N.am    1  UNL1       -0.2997
      4 H           4.9254   -3.6065   27.2075 H       1  UNL1        0.1498
      5 C           1.9989   -0.5772   29.0885 C.ar    1  UNL1        0.0461
      6 C           2.9490   -0.9643   27.9943 C.ar    1  UNL1        0.0189
      7 C           4.4144   -1.0974   28.2858 C.ar    1  UNL1        0.0559
      8 C           4.9296   -0.8435   29.6714 C.ar    1  UNL1        0.0207
      9 C           3.9794   -0.4564   30.7656 C.ar    1  UNL1        0.0698
     10 C           2.5140   -0.3233   30.4741 C.ar    1  UNL1        0.0304
     11 N           4.4946   -0.2024   32.1513 N.pl3   1  UNL1       -0.1943
     12 C           5.2019    1.0826   32.4647 C.3     1  UNL1        0.1155
     13 C           5.7171    1.3366   33.8504 C.3     1  UNL1        0.0252
     14 C           5.5249    0.3054   34.9227 C.3     1  UNL1        0.0292
     15 C           4.8175   -0.9797   34.6093 C.3     1  UNL1        0.1727
     16 S           4.3024   -1.2336   33.2236 S.O2    1  UNL1        0.0569
     17 O           3.6407   -1.9295   32.0713 O.2     1  UNL1       -0.1543
     18 O           3.8803   -2.5065   33.8956 O.2     1  UNL1       -0.1543
     19 N           0.5335   -0.4441   28.7970 N.pl3   1  UNL1       -0.3326
     20 H          -0.0509   -1.2352   28.8401 H       1  UNL1        0.1468
     21 C          -0.3232    1.2312   27.0055 C.3     1  UNL1        0.0229
     22 C          -0.0416    0.8945   28.4398 C.3     1  UNL1        0.0871
     23 C           6.4261   -3.3062   25.6734 C.3     1  UNL1        0.1043
     24 C           6.0382   -3.1074   24.2381 C.3     1  UNL1        0.1443
     25 O           4.6106   -2.8178   23.8802 O.3     1  UNL1       -0.3813
     26 H           4.0734   -2.7934   24.6875 H       1  UNL1        0.2105
     27 C           7.0779   -3.1981   23.1607 C.3     1  UNL1        0.1001
     28 N           7.0749   -4.3595   22.2115 N.3     1  UNL1       -0.2916
     29 H           6.2299   -4.8966   22.4061 H       1  UNL1        0.1236
     30 C           7.1035   -4.1185   20.7312 C.3     1  UNL1        0.0989
     31 C           5.9247   -3.4878   20.0511 C.ar    1  UNL1        0.0332
     32 C           4.4838   -3.6914   20.4152 C.ar    1  UNL1        0.1187
     33 N           3.6484   -2.8722   19.4766 N.ar    1  UNL1       -0.1680
     34 N           4.5729   -2.1622   18.5325 N.ar    1  UNL1       -0.2497
     35 C           5.9797   -2.5427   18.8876 C.ar    1  UNL1        0.0937
     36 C           4.1626   -1.2347   17.4274 C.3     1  UNL1        0.1276
     37 C           3.1661   -0.1456   17.6934 C.3     1  UNL1        0.0284
     38 C           7.7641   -3.8921   26.0144 C.3     1  UNL1        0.0484
     39 C           7.8961   -5.3654   26.2642 C.ar    1  UNL1       -0.0204
     40 C           7.8585   -6.3274   25.1139 C.ar    1  UNL1       -0.0042
     41 C           7.9904   -7.8005   25.3635 C.ar    1  UNL1       -0.0003
     42 C           8.1600   -8.3117   26.7635 C.ar    1  UNL1       -0.0000
     43 C           8.1977   -7.3497   27.9138 C.ar    1  UNL1       -0.0003
     44 C           8.0657   -5.8765   27.6641 C.ar    1  UNL1       -0.0042
@<TRIPOS>BOND
     1    21    22    1
     2    22    19    1
     3    19     5    1
     4     5     6   ar
     5     6     7   ar
     6     7     1    1
     7     1     2    2
     8     1     3   am
     9     3    23    1
    10    23    38    1
    11    38    39    1
    12    39    40   ar
    13    40    41   ar
    14    41    42   ar
    15    42    43   ar
    16    43    44   ar
    17    23    24    1
    18    24    25    1
    19    24    27    1
    20    27    28    1
    21    28    30    1
    22    30    31    1
    23    31    32   ar
    24    32    33   ar
    25    33    34   ar
    26    34    36    1
    27    36    37    1
    28    34    35   ar
    29     7     8   ar
    30     8     9   ar
    31     9    11    1
    32    11    12    1
    33    12    13    1
    34    13    14    1
    35    14    15    1
    36    15    16    1
    37    16    17    2
    38    16    18    2
    39     9    10   ar
    40    10     5   ar
    41    44    39   ar
    42    35    31   ar
    43    16    11    1
    44    19    20    1
    45     3     4    1
    46    25    26    1
    47    28    29    1
@<TRIPOS>MOLECULE
*****
 44 47 0 0 0
SMALL
GASTEIGER

@<TRIPOS>ATOM
      1 C          -5.5499  -17.4105   22.8076 C.2     1  UNL1        0.2460
      2 O          -4.2674  -16.6338   22.7677 O.2     1  UNL1       -0.2701
      3 N          -5.6000  -18.8045   22.2559 N.am    1  UNL1       -0.2997
      4 H          -6.4419  -19.3143   22.2820 H       1  UNL1        0.1498
      5 C          -7.9227  -15.3908   25.2653 C.ar    1  UNL1        0.0461
      6 C          -6.6903  -16.0080   24.6738 C.ar    1  UNL1        0.0189
      7 C          -6.7825  -16.7933   23.3991 C.ar    1  UNL1        0.0559
      8 C          -8.1073  -16.9614   22.7160 C.ar    1  UNL1        0.0207
      9 C          -9.3398  -16.3441   23.3075 C.ar    1  UNL1        0.0698
     10 C          -9.2475  -15.5589   24.5822 C.ar    1  UNL1        0.0304
     11 N         -10.6646  -16.5122   22.6244 N.pl3   1  UNL1       -0.1943
     12 C         -11.8176  -17.1236   23.3638 C.3     1  UNL1        0.1155
     13 C         -13.1424  -17.2916   22.6807 C.3     1  UNL1        0.0252
     14 C         -13.3142  -16.8482   21.2581 C.3     1  UNL1        0.0292
     15 C         -12.1612  -16.2368   20.5186 C.3     1  UNL1        0.1727
     16 S         -10.8364  -16.0688   21.2017 S.O2    1  UNL1        0.0569
     17 O          -9.3978  -15.7026   21.4168 O.2     1  UNL1       -0.1543
     18 O         -10.5086  -15.4982   19.8538 O.2     1  UNL1       -0.1543
     19 N          -7.8305  -14.6055   26.5400 N.pl3   1  UNL1       -0.3326
     20 H          -7.5156  -13.6729   26.5219 H       1  UNL1        0.1468
     21 C          -8.5340  -16.7065   27.8969 C.3     1  UNL1        0.0229
     22 C          -8.2180  -15.2412   27.8422 C.3     1  UNL1        0.0871
     23 C          -4.3675  -19.4217   21.6644 C.3     1  UNL1        0.1043
     24 C          -4.4793  -20.3243   20.4715 C.3     1  UNL1        0.1443
     25 O          -3.3090  -21.1652   20.0550 O.3     1  UNL1       -0.3813
     26 H          -2.5662  -21.0069   20.6584 H       1  UNL1        0.2105
     27 C          -5.7612  -20.3861   19.6952 C.3     1  UNL1        0.1001
     28 N          -6.6395  -19.1739   19.6000 N.3     1  UNL1       -0.2916
     29 H          -6.2378  -18.5752   18.8784 H       1  UNL1        0.1236
     30 C          -8.0959  -19.3265   19.2748 C.3     1  UNL1        0.0989
     31 C          -9.0819  -19.6167   20.3673 C.ar    1  UNL1        0.0332
     32 C         -10.5725  -19.6852   20.2144 C.ar    1  UNL1        0.1187
     33 N         -11.1622  -20.0002   21.5571 N.ar    1  UNL1       -0.1680
     34 N         -10.0360  -20.1264   22.5399 N.ar    1  UNL1       -0.2497
     35 C          -8.7503  -19.8894   21.8046 C.ar    1  UNL1        0.0937
     36 C         -10.1718  -20.4354   24.0015 C.3     1  UNL1        0.1276
     37 C          -9.8479  -19.3860   25.0232 C.3     1  UNL1        0.0284
     38 C          -3.0233  -19.1364   22.2657 C.3     1  UNL1        0.0484
     39 C          -1.9990  -18.3695   21.4828 C.ar    1  UNL1       -0.0204
     40 C          -1.0773  -19.0911   20.5449 C.ar    1  UNL1       -0.0042
     41 C          -0.0530  -18.3243   19.7620 C.ar    1  UNL1       -0.0003
     42 C           0.0495  -16.8359   19.9171 C.ar    1  UNL1       -0.0000
     43 C          -0.8722  -16.1143   20.8551 C.ar    1  UNL1       -0.0003
     44 C          -1.8965  -16.8811   21.6379 C.ar    1  UNL1       -0.0042
@<TRIPOS>BOND
     1    21    22    1
     2    22    19    1
     3    19     5    1
     4     5     6   ar
     5     6     7   ar
     6     7     1    1
     7     1     2    2
     8     1     3   am
     9     3    23    1
    10    23    38    1
    11    38    39    1
    12    39    40   ar
    13    40    41   ar
    14    41    42   ar
    15    42    43   ar
    16    43    44   ar
    17    23    24    1
    18    24    25    1
    19    24    27    1
    20    27    28    1
    21    28    30    1
    22    30    31    1
    23    31    32   ar
    24    32    33   ar
    25    33    34   ar
    26    34    36    1
    27    36    37    1
    28    34    35   ar
    29     7     8   ar
    30     8     9   ar
    31     9    11    1
    32    11    12    1
    33    12    13    1
    34    13    14    1
    35    14    15    1
    36    15    16    1
    37    16    17    2
    38    16    18    2
    39     9    10   ar
    40    10     5   ar
    41    44    39   ar
    42    35    31   ar
    43    16    11    1
    44    19    20    1
    45     3     4    1
    46    25    26    1
    47    28    29    1
@<TRIPOS>MOLECULE
*****
 44 47 0 0 0
SMALL
GASTEIGER

@<TRIPOS>ATOM
      1 C           6.9899   -3.2542   28.0999 C.2     1  UNL1        0.2460
      2 O           8.3322   -2.6424   28.3717 O.2     1  UNL1       -0.2701
      3 N           6.5904   -4.5238   28.7917 N.am    1  UNL1       -0.2997
      4 H           5.7094   -4.9253   28.6133 H       1  UNL1        0.1498
      5 C           3.8355   -1.3142   26.6728 C.ar    1  UNL1        0.0461
      6 C           4.7783   -1.9719   27.6364 C.ar    1  UNL1        0.0189
      7 C           6.0471   -2.5965   27.1362 C.ar    1  UNL1        0.0559
      8 C           6.3730   -2.5634   25.6725 C.ar    1  UNL1        0.0207
      9 C           5.4302   -1.9057   24.7089 C.ar    1  UNL1        0.0698
     10 C           4.1615   -1.2811   25.2091 C.ar    1  UNL1        0.0304
     11 N           5.7561   -1.8726   23.2450 N.pl3   1  UNL1       -0.1943
     12 C           6.5349   -0.7239   22.6759 C.3     1  UNL1        0.1155
     13 C           6.8608   -0.6908   21.2120 C.3     1  UNL1        0.0252
     14 C           6.4078   -1.8064   20.3174 C.3     1  UNL1        0.0292
     15 C           5.6290   -2.9551   20.8867 C.3     1  UNL1        0.1727
     16 S           5.3031   -2.9882   22.3504 S.O2    1  UNL1        0.0569
     17 O           4.7537   -3.4663   23.6617 O.2     1  UNL1       -0.1543
     18 O           4.6593   -4.2698   21.9113 O.2     1  UNL1       -0.1543
     19 N           2.5668   -0.6896   27.1730 N.pl3   1  UNL1       -0.3326
     20 H           1.7582   -0.7002   26.6115 H       1  UNL1        0.1468
     21 C           2.3380    1.4337   28.6526 C.3     1  UNL1        0.0229
     22 C           2.5301   -0.0488   28.5287 C.3     1  UNL1        0.0871
     23 C           7.5331   -5.1815   29.7553 C.3     1  UNL1        0.1043
     24 C           7.4295   -4.8901   31.2231 C.3     1  UNL1        0.1443
     25 O           6.6019   -5.7754   32.1069 O.3     1  UNL1       -0.3813
     26 H           6.2051   -6.4831   31.5752 H       1  UNL1        0.2105
     27 C           8.1534   -3.7133   31.8070 C.3     1  UNL1        0.1001
     28 N           7.8597   -2.3293   31.3087 N.3     1  UNL1       -0.2916
     29 H           8.2333   -2.2720   30.3613 H       1  UNL1        0.1236
     30 C           6.4432   -1.8397   31.2458 C.3     1  UNL1        0.0989
     31 C           5.6312   -1.7299   32.5022 C.ar    1  UNL1        0.0332
     32 C           4.3850   -2.5031   32.8170 C.ar    1  UNL1        0.1187
     33 N           3.9064   -2.0787   34.1738 N.ar    1  UNL1       -0.1680
     34 N           4.8569   -1.0431   34.6975 N.ar    1  UNL1       -0.2497
     35 C           5.9228   -0.8276   33.6644 C.ar    1  UNL1        0.0937
     36 C           4.7586   -0.3455   36.0218 C.3     1  UNL1        0.1276
     37 C           6.0045    0.0919   36.7334 C.3     1  UNL1        0.0284
     38 C           8.5795   -6.1307   29.2512 C.3     1  UNL1        0.0484
     39 C           8.6294   -6.4875   27.7950 C.ar    1  UNL1       -0.0204
     40 C           7.8271   -7.6449   27.2785 C.ar    1  UNL1       -0.0042
     41 C           7.8770   -8.0017   25.8225 C.ar    1  UNL1       -0.0003
     42 C           8.7292   -7.2012   24.8829 C.ar    1  UNL1       -0.0000
     43 C           9.5315   -6.0438   25.3994 C.ar    1  UNL1       -0.0003
     44 C           9.4816   -5.6870   26.8555 C.ar    1  UNL1       -0.0042
@<TRIPOS>BOND
     1    21    22    1
     2    22    19    1
     3    19     5    1
     4     5     6   ar
     5     6     7   ar
     6     7     1    1
     7     1     2    2
     8     1     3   am
     9     3    23    1
    10    23    38    1
    11    38    39    1
    12    39    40   ar
    13    40    41   ar
    14    41    42   ar
    15    42    43   ar
    16    43    44   ar
    17    23    24    1
    18    24    25    1
    19    24    27    1
    20    27    28    1
    21    28    30    1
    22    30    31    1
    23    31    32   ar
    24    32    33   ar
    25    33    34   ar
    26    34    36    1
    27    36    37    1
    28    34    35   ar
    29     7     8   ar
    30     8     9   ar
    31     9    11    1
    32    11    12    1
    33    12    13    1
    34    13    14    1
    35    14    15    1
    36    15    16    1
    37    16    17    2
    38    16    18    2
    39     9    10   ar
    40    10     5   ar
    41    44    39   ar
    42    35    31   ar
    43    16    11    1
    44    19    20    1
    45     3     4    1
    46    25    26    1
    47    28    29    1
