@<TRIPOS>MOLECULE
*****
 38 42 0 0 0
SMALL
GASTEIGER

@<TRIPOS>ATOM
      1 C           8.1101   -6.6393   28.3137 C.ar    1  UNL1        0.1110
      2 N           9.2940   -6.1796   29.1118 N.ar    1  UNL1       -0.2412
      3 C           8.8155   -5.1669   30.1096 C.ar    1  UNL1        0.0875
      4 C           9.5360   -4.3746   31.1599 C.ar    1  UNL1        0.0196
      5 C           8.7768   -3.4162   32.0287 C.ar    1  UNL1        0.0016
      6 C           7.2971   -3.2501   31.8473 C.ar    1  UNL1        0.0006
      7 C           6.5766   -4.0423   30.7969 C.ar    1  UNL1        0.0080
      8 C           7.3358   -5.0007   29.9281 C.ar    1  UNL1        0.0482
      9 S           6.8999   -5.9107   28.8182 S.2     1  UNL1       -0.0693
     10 C           6.5378   -2.2916   32.7162 C.ar    1  UNL1        0.0000
     11 C           5.0663   -2.4823   32.9356 C.ar    1  UNL1        0.0001
     12 C           4.3071   -1.5238   33.8045 C.ar    1  UNL1        0.0045
     13 C           5.0195   -0.3746   34.4540 C.ar    1  UNL1        0.0536
     14 C           6.4911   -0.1839   34.2345 C.ar    1  UNL1        0.0045
     15 C           7.2502   -1.1424   33.3657 C.ar    1  UNL1        0.0001
     16 C           4.2603    0.5838   35.3229 C.2     1  UNL1        0.2492
     17 O           4.2869    0.4266   36.8144 O.2     1  UNL1       -0.2699
     18 N           3.4746    1.6996   34.7003 N.am    1  UNL1       -0.2709
     19 C           3.4480    1.8569   33.2088 C.3     1  UNL1        0.1258
     20 C           2.6622    2.9727   32.5862 C.3     1  UNL1        0.1637
     21 O           1.9031    3.9311   33.4551 O.3     1  UNL1       -0.3501
     22 C           1.9297    3.7739   34.9466 C.3     1  UNL1        0.1637
     23 C           2.7154    2.6581   35.5692 C.3     1  UNL1        0.1258
     24 C           8.1325   -7.6501   27.2056 C.3     1  UNL1        0.2129
     25 C           8.1990   -9.1137   27.5268 C.2     1  UNL1        0.2430
     26 O           9.5301   -9.7875   27.6834 O.2     1  UNL1       -0.2735
     27 N           6.9346   -9.9037   27.6915 N.am    1  UNL1       -0.2955
     28 H           6.0610   -9.4615   27.5888 H       1  UNL1        0.1499
     29 C           7.0012  -11.3674   28.0128 C.3     1  UNL1        0.1757
     30 C           5.7545  -12.2008   27.9762 C.2     1  UNL1        0.2425
     31 O           5.6394  -13.3358   27.0023 O.2     1  UNL1       -0.2733
     32 N           4.6230  -11.8991   28.9135 N.am    1  UNL1       -0.3046
     33 H           4.6985  -11.1541   29.5527 H       1  UNL1        0.1494
     34 C           3.3763  -12.7324   28.8769 C.3     1  UNL1        0.0717
     35 C           2.4709  -13.6844   28.1531 C.3     1  UNL1        0.0213
     36 C           2.1224  -13.2237   29.5374 C.3     1  UNL1        0.0213
     37 N           8.0442   -6.7443   24.3470 N.1     1  UNL1       -0.1950
     38 C           8.0884   -7.1972   25.7763 C.1     1  UNL1        0.0881
@<TRIPOS>BOND
     1    37    38    3
     2    38    24    1
     3    24    25    1
     4    25    26    2
     5    25    27   am
     6    27    29    1
     7    29    30    1
     8    30    31    2
     9    30    32   am
    10    32    34    1
    11    34    35    1
    12    35    36    1
    13    24     1    1
    14     1     2   ar
    15     2     3   ar
    16     3     4   ar
    17     4     5   ar
    18     5     6   ar
    19     6    10    1
    20    10    11   ar
    21    11    12   ar
    22    12    13   ar
    23    13    16    1
    24    16    17    2
    25    16    18   am
    26    18    19    1
    27    19    20    1
    28    20    21    1
    29    21    22    1
    30    22    23    1
    31    13    14   ar
    32    14    15   ar
    33     6     7   ar
    34     7     8   ar
    35     8     9   ar
    36    36    34    1
    37     9     1   ar
    38     8     3   ar
    39    15    10   ar
    40    23    18    1
    41    27    28    1
    42    32    33    1
@<TRIPOS>MOLECULE
*****
 38 42 0 0 0
SMALL
GASTEIGER

@<TRIPOS>ATOM
      1 C           8.0222   -6.8021   28.2049 C.ar    1  UNL1        0.1110
      2 N           9.0027   -6.5536   29.3126 N.ar    1  UNL1       -0.2412
      3 C           8.5107   -5.3848   30.1137 C.ar    1  UNL1        0.0875
      4 C           9.0664   -4.6908   31.3218 C.ar    1  UNL1        0.0196
      5 C           8.3374   -3.5230   31.9174 C.ar    1  UNL1        0.0016
      6 C           7.0528   -3.0491   31.3049 C.ar    1  UNL1        0.0006
      7 C           6.4971   -3.7431   30.0968 C.ar    1  UNL1        0.0080
      8 C           7.2260   -4.9110   29.5012 C.ar    1  UNL1        0.0482
      9 S           6.9242   -5.7869   28.3215 S.2     1  UNL1       -0.0693
     10 C           6.3239   -1.8812   31.9005 C.ar    1  UNL1        0.0000
     11 C           7.0915   -0.6918   32.3965 C.ar    1  UNL1        0.0001
     12 C           6.3625    0.4761   32.9922 C.ar    1  UNL1        0.0045
     13 C           4.8660    0.4545   33.0917 C.ar    1  UNL1        0.0536
     14 C           4.0984   -0.7349   32.5956 C.ar    1  UNL1        0.0045
     15 C           4.8273   -1.9028   32.0000 C.ar    1  UNL1        0.0001
     16 C           4.1371    1.6224   33.6873 C.2     1  UNL1        0.2492
     17 O           3.6271    2.7196   32.8007 O.2     1  UNL1       -0.2699
     18 N           3.9181    1.6930   35.1695 N.am    1  UNL1       -0.2709
     19 C           4.4280    0.5958   36.0561 C.3     1  UNL1        0.1258
     20 C           4.2089    0.6664   37.5384 C.3     1  UNL1        0.1637
     21 O           3.4800    1.8342   38.1340 O.3     1  UNL1       -0.3501
     22 C           2.9701    2.9315   37.2474 C.3     1  UNL1        0.1637
     23 C           3.1891    2.8608   35.7652 C.3     1  UNL1        0.1258
     24 C           8.1222   -7.8771   27.1636 C.3     1  UNL1        0.2129
     25 C           8.2055   -9.3165   27.5771 C.2     1  UNL1        0.2430
     26 O           9.5355   -9.9259   27.9089 O.2     1  UNL1       -0.2735
     27 N           6.9588  -10.1467   27.6589 N.am    1  UNL1       -0.2955
     28 H           6.0860   -9.7468   27.4412 H       1  UNL1        0.1499
     29 C           7.0422  -11.5862   28.0725 C.3     1  UNL1        0.1757
     30 C           5.8041  -12.3158   28.5025 C.2     1  UNL1        0.2425
     31 O           5.9186  -13.6098   29.2527 O.2     1  UNL1       -0.2733
     32 N           4.4517  -11.7516   28.1824 N.am    1  UNL1       -0.3046
     33 H           4.3766  -10.9023   27.6901 H       1  UNL1        0.1494
     34 C           3.2137  -12.4812   28.6125 C.3     1  UNL1        0.0717
     35 C           2.0492  -13.3685   28.2858 C.3     1  UNL1        0.0213
     36 C           2.2338  -12.8576   29.6840 C.3     1  UNL1        0.0213
     37 N           8.1558   -7.1481   24.2537 N.1     1  UNL1       -0.1950
     38 C           8.1390   -7.5127   25.7087 C.1     1  UNL1        0.0881
@<TRIPOS>BOND
     1    37    38    3
     2    38    24    1
     3    24    25    1
     4    25    26    2
     5    25    27   am
     6    27    29    1
     7    29    30    1
     8    30    31    2
     9    30    32   am
    10    32    34    1
    11    34    35    1
    12    35    36    1
    13    24     1    1
    14     1     2   ar
    15     2     3   ar
    16     3     4   ar
    17     4     5   ar
    18     5     6   ar
    19     6    10    1
    20    10    11   ar
    21    11    12   ar
    22    12    13   ar
    23    13    16    1
    24    16    17    2
    25    16    18   am
    26    18    19    1
    27    19    20    1
    28    20    21    1
    29    21    22    1
    30    22    23    1
    31    13    14   ar
    32    14    15   ar
    33     6     7   ar
    34     7     8   ar
    35     8     9   ar
    36    36    34    1
    37     9     1   ar
    38     8     3   ar
    39    15    10   ar
    40    23    18    1
    41    27    28    1
    42    32    33    1
@<TRIPOS>MOLECULE
*****
 38 42 0 0 0
SMALL
GASTEIGER

@<TRIPOS>ATOM
      1 C           8.2528   -7.3292   26.3990 C.ar    1  UNL1        0.1110
      2 N           9.0083   -7.6347   25.1397 N.ar    1  UNL1       -0.2412
      3 C           8.5750   -6.6548   24.0899 C.ar    1  UNL1        0.0875
      4 C           8.9801   -6.4744   22.6570 C.ar    1  UNL1        0.0196
      5 C           8.3618   -5.3829   21.8346 C.ar    1  UNL1        0.0016
      6 C           7.3385   -4.4718   22.4451 C.ar    1  UNL1        0.0006
      7 C           6.9334   -4.6522   23.8780 C.ar    1  UNL1        0.0080
      8 C           7.5517   -5.7437   24.7004 C.ar    1  UNL1        0.0482
      9 S           7.3526   -6.1605   26.1275 S.2     1  UNL1       -0.0693
     10 C           6.7202   -3.3803   21.6226 C.ar    1  UNL1        0.0000
     11 C           6.3337   -2.0825   22.2677 C.ar    1  UNL1        0.0001
     12 C           5.7154   -0.9909   21.4452 C.ar    1  UNL1        0.0045
     13 C           5.4837   -1.1973   19.9777 C.ar    1  UNL1        0.0536
     14 C           5.8703   -2.4953   19.3326 C.ar    1  UNL1        0.0045
     15 C           6.4885   -3.5867   20.1551 C.ar    1  UNL1        0.0001
     16 C           4.8655   -0.1059   19.1552 C.2     1  UNL1        0.2492
     17 O           5.7301    0.7635   18.2912 O.2     1  UNL1       -0.2699
     18 N           3.3826    0.1161   19.1967 N.am    1  UNL1       -0.2709
     19 C           2.5180   -0.7533   20.0608 C.3     1  UNL1        0.1258
     20 C           1.0351   -0.5312   20.1023 C.3     1  UNL1        0.1637
     21 O           0.4168    0.5602   19.2798 O.3     1  UNL1       -0.3501
     22 C           1.2815    1.4296   18.4158 C.3     1  UNL1        0.1637
     23 C           2.7643    1.2076   18.3742 C.3     1  UNL1        0.1258
     24 C           8.3759   -8.0636   27.7012 C.3     1  UNL1        0.2129
     25 C           8.2985   -9.5613   27.7278 C.2     1  UNL1        0.2430
     26 O           9.5360  -10.3803   27.5086 O.2     1  UNL1       -0.2735
     27 N           6.9837  -10.2401   27.9737 N.am    1  UNL1       -0.2955
     28 H           6.1715   -9.7026   28.1176 H       1  UNL1        0.1499
     29 C           6.9063  -11.7380   28.0003 C.3     1  UNL1        0.1757
     30 C           5.5836  -12.4238   27.8270 C.2     1  UNL1        0.2425
     31 O           5.3497  -13.3135   26.6421 O.2     1  UNL1       -0.2733
     32 N           4.4949  -12.2200   28.8384 N.am    1  UNL1       -0.3046
     33 H           4.6484  -11.6361   29.6160 H       1  UNL1        0.1494
     34 C           3.1722  -12.9059   28.6650 C.3     1  UNL1        0.0717
     35 C           1.8587  -13.3570   29.2318 C.3     1  UNL1        0.0213
     36 C           2.1947  -13.6426   27.7981 C.3     1  UNL1        0.0213
     37 N           8.7769   -6.5368   30.2523 N.1     1  UNL1       -0.1950
     38 C           8.5764   -7.3002   28.9767 C.1     1  UNL1        0.0881
@<TRIPOS>BOND
     1    37    38    3
     2    38    24    1
     3    24    25    1
     4    25    26    2
     5    25    27   am
     6    27    29    1
     7    29    30    1
     8    30    31    2
     9    30    32   am
    10    32    34    1
    11    34    35    1
    12    35    36    1
    13    24     1    1
    14     1     2   ar
    15     2     3   ar
    16     3     4   ar
    17     4     5   ar
    18     5     6   ar
    19     6    10    1
    20    10    11   ar
    21    11    12   ar
    22    12    13   ar
    23    13    16    1
    24    16    17    2
    25    16    18   am
    26    18    19    1
    27    19    20    1
    28    20    21    1
    29    21    22    1
    30    22    23    1
    31    13    14   ar
    32    14    15   ar
    33     6     7   ar
    34     7     8   ar
    35     8     9   ar
    36    36    34    1
    37     9     1   ar
    38     8     3   ar
    39    15    10   ar
    40    23    18    1
    41    27    28    1
    42    32    33    1
@<TRIPOS>MOLECULE
*****
 38 42 0 0 0
SMALL
GASTEIGER

@<TRIPOS>ATOM
      1 C           7.0723   -4.6861   26.8168 C.ar    1  UNL1        0.1110
      2 N           7.3356   -5.6818   27.9074 N.ar    1  UNL1       -0.2412
      3 C           7.0316   -5.0227   29.2201 C.ar    1  UNL1        0.0875
      4 C           7.1073   -5.5189   30.6336 C.ar    1  UNL1        0.0196
      5 C           6.7318   -4.6121   31.7679 C.ar    1  UNL1        0.0016
      6 C           6.2807   -3.2091   31.4886 C.ar    1  UNL1        0.0006
      7 C           6.2050   -2.7129   30.0752 C.ar    1  UNL1        0.0080
      8 C           6.5804   -3.6197   28.9409 C.ar    1  UNL1        0.0482
      9 S           6.6056   -3.4117   27.4556 S.2     1  UNL1       -0.0693
     10 C           5.9052   -2.3022   32.6230 C.ar    1  UNL1        0.0000
     11 C           6.8513   -1.2267   33.0681 C.ar    1  UNL1        0.0001
     12 C           6.4758   -0.3198   34.2025 C.ar    1  UNL1        0.0045
     13 C           5.1543   -0.4885   34.8917 C.ar    1  UNL1        0.0536
     14 C           4.2082   -1.5641   34.4465 C.ar    1  UNL1        0.0045
     15 C           4.5837   -2.4709   33.3122 C.ar    1  UNL1        0.0001
     16 C           4.7788    0.4182   36.0260 C.2     1  UNL1        0.2492
     17 O           5.4217    0.2439   37.3700 O.2     1  UNL1       -0.2699
     18 N           3.7604    1.4994   35.8163 N.am    1  UNL1       -0.2709
     19 C           3.1175    1.6737   34.4724 C.3     1  UNL1        0.1258
     20 C           2.0990    2.7549   34.2627 C.3     1  UNL1        0.1637
     21 O           1.7235    3.6616   35.3970 O.3     1  UNL1       -0.3501
     22 C           2.3665    3.4873   36.7410 C.3     1  UNL1        0.1637
     23 C           3.3849    2.4062   36.9507 C.3     1  UNL1        0.1258
     24 C           7.2454   -4.9232   25.3458 C.3     1  UNL1        0.2129
     25 C           6.8954   -3.8430   24.3658 C.2     1  UNL1        0.2430
     26 O           7.9485   -3.2888   23.4526 O.2     1  UNL1       -0.2735
     27 N           5.4922   -3.3170   24.2988 N.am    1  UNL1       -0.2955
     28 H           4.8010   -3.6807   24.8981 H       1  UNL1        0.1499
     29 C           5.1422   -2.2367   23.3186 C.3     1  UNL1        0.1757
     30 C           4.7593   -2.5946   21.9132 C.2     1  UNL1        0.2425
     31 O           4.5630   -1.5143   20.8911 O.2     1  UNL1       -0.2733
     32 N           4.5726   -4.0327   21.5298 N.am    1  UNL1       -0.3046
     33 H           4.7014   -4.7417   22.2005 H       1  UNL1        0.1494
     34 C           4.1896   -4.3905   20.1243 C.3     1  UNL1        0.0717
     35 C           3.1428   -4.5337   19.0596 C.3     1  UNL1        0.0213
     36 C           4.5732   -4.8672   18.7548 C.3     1  UNL1        0.0213
     37 N           8.2916   -7.5579   24.3639 N.1     1  UNL1       -0.1950
     38 C           7.7685   -6.2405   24.8549 C.1     1  UNL1        0.0881
@<TRIPOS>BOND
     1    37    38    3
     2    38    24    1
     3    24    25    1
     4    25    26    2
     5    25    27   am
     6    27    29    1
     7    29    30    1
     8    30    31    2
     9    30    32   am
    10    32    34    1
    11    34    35    1
    12    35    36    1
    13    24     1    1
    14     1     2   ar
    15     2     3   ar
    16     3     4   ar
    17     4     5   ar
    18     5     6   ar
    19     6    10    1
    20    10    11   ar
    21    11    12   ar
    22    12    13   ar
    23    13    16    1
    24    16    17    2
    25    16    18   am
    26    18    19    1
    27    19    20    1
    28    20    21    1
    29    21    22    1
    30    22    23    1
    31    13    14   ar
    32    14    15   ar
    33     6     7   ar
    34     7     8   ar
    35     8     9   ar
    36    36    34    1
    37     9     1   ar
    38     8     3   ar
    39    15    10   ar
    40    23    18    1
    41    27    28    1
    42    32    33    1
@<TRIPOS>MOLECULE
*****
 38 42 0 0 0
SMALL
GASTEIGER

@<TRIPOS>ATOM
      1 C           3.5121    0.4152   32.9160 C.ar    1  UNL1        0.1110
      2 N           2.7410    1.6393   33.3122 N.ar    1  UNL1       -0.2412
      3 C           1.9796    2.1165   32.1111 C.ar    1  UNL1        0.0875
      4 C           1.0515    3.2770   31.9070 C.ar    1  UNL1        0.0196
      5 C           0.4240    3.5084   30.5644 C.ar    1  UNL1        0.0016
      6 C           0.7246    2.5792   29.4259 C.ar    1  UNL1        0.0006
      7 C           1.6527    1.4187   29.6299 C.ar    1  UNL1        0.0080
      8 C           2.2802    1.1873   30.9725 C.ar    1  UNL1        0.0482
      9 S           3.2274    0.1359   31.4700 S.2     1  UNL1       -0.0693
     10 C           0.0970    2.8106   28.0832 C.ar    1  UNL1        0.0000
     11 C          -0.1467    1.6539   27.1599 C.ar    1  UNL1        0.0001
     12 C          -0.7743    1.8853   25.8172 C.ar    1  UNL1        0.0045
     13 C          -1.1581    3.2735   25.3980 C.ar    1  UNL1        0.0536
     14 C          -0.9144    4.4302   26.3214 C.ar    1  UNL1        0.0045
     15 C          -0.2868    4.1988   27.6640 C.ar    1  UNL1        0.0001
     16 C          -1.7857    3.5049   24.0554 C.2     1  UNL1        0.2492
     17 O          -0.9379    3.4870   22.8181 O.2     1  UNL1       -0.2699
     18 N          -3.2610    3.7543   23.9501 N.am    1  UNL1       -0.2709
     19 C          -4.1088    3.7722   25.1874 C.3     1  UNL1        0.1258
     20 C          -5.5843    4.0216   25.0821 C.3     1  UNL1        0.1637
     21 O          -6.2118    4.2530   23.7395 O.3     1  UNL1       -0.3501
     22 C          -5.3640    4.2351   22.5022 C.3     1  UNL1        0.1637
     23 C          -3.8887    3.9858   22.6075 C.3     1  UNL1        0.1258
     24 C           4.4103   -0.3884   33.8090 C.3     1  UNL1        0.2129
     25 C           4.7445    0.1119   35.1830 C.2     1  UNL1        0.2430
     26 O           5.1674   -0.8534   36.2505 O.2     1  UNL1       -0.2735
     27 N           4.6558    1.5776   35.4896 N.am    1  UNL1       -0.2955
     28 H           4.3782    2.2112   34.7890 H       1  UNL1        0.1499
     29 C           4.9900    2.0779   36.8637 C.3     1  UNL1        0.1757
     30 C           4.0540    1.8146   38.0059 C.2     1  UNL1        0.2425
     31 O           4.5207    2.0096   39.4182 O.2     1  UNL1       -0.2733
     32 N           2.6515    1.3564   37.7360 N.am    1  UNL1       -0.3046
     33 H           2.3452    1.2285   36.8091 H       1  UNL1        0.1494
     34 C           1.7155    1.0931   38.8782 C.3     1  UNL1        0.0717
     35 C           0.6481    1.5680   39.8189 C.3     1  UNL1        0.0213
     36 C           1.1620    0.1621   39.9159 C.3     1  UNL1        0.0213
     37 N           5.5384   -2.9965   32.8470 N.1     1  UNL1       -0.1950
     38 C           4.9743   -1.6924   33.3280 C.1     1  UNL1        0.0881
@<TRIPOS>BOND
     1    37    38    3
     2    38    24    1
     3    24    25    1
     4    25    26    2
     5    25    27   am
     6    27    29    1
     7    29    30    1
     8    30    31    2
     9    30    32   am
    10    32    34    1
    11    34    35    1
    12    35    36    1
    13    24     1    1
    14     1     2   ar
    15     2     3   ar
    16     3     4   ar
    17     4     5   ar
    18     5     6   ar
    19     6    10    1
    20    10    11   ar
    21    11    12   ar
    22    12    13   ar
    23    13    16    1
    24    16    17    2
    25    16    18   am
    26    18    19    1
    27    19    20    1
    28    20    21    1
    29    21    22    1
    30    22    23    1
    31    13    14   ar
    32    14    15   ar
    33     6     7   ar
    34     7     8   ar
    35     8     9   ar
    36    36    34    1
    37     9     1   ar
    38     8     3   ar
    39    15    10   ar
    40    23    18    1
    41    27    28    1
    42    32    33    1
@<TRIPOS>MOLECULE
*****
 38 42 0 0 0
SMALL
GASTEIGER

@<TRIPOS>ATOM
      1 C           2.6271    0.6317   31.1435 C.ar    1  UNL1        0.1110
      2 N           1.1808    0.8211   30.7939 N.ar    1  UNL1       -0.2412
      3 C           1.0794    0.9701   29.3048 C.ar    1  UNL1        0.0875
      4 C          -0.0941    1.1818   28.3948 C.ar    1  UNL1        0.0196
      5 C           0.1162    1.2962   26.9141 C.ar    1  UNL1        0.0016
      6 C           1.4999    1.1989   26.3433 C.ar    1  UNL1        0.0006
      7 C           2.6734    0.9872   27.2532 C.ar    1  UNL1        0.0080
      8 C           2.4631    0.8728   28.7340 C.ar    1  UNL1        0.0482
      9 S           3.4196    0.6636   29.8703 S.2     1  UNL1       -0.0693
     10 C           1.7101    1.3133   24.8624 C.ar    1  UNL1        0.0000
     11 C           3.0746    1.6197   24.3201 C.ar    1  UNL1        0.0001
     12 C           3.2848    1.7341   22.8392 C.ar    1  UNL1        0.0045
     13 C           2.1305    1.5420   21.9008 C.ar    1  UNL1        0.0536
     14 C           0.7659    1.2356   22.4433 C.ar    1  UNL1        0.0045
     15 C           0.5557    1.1212   23.9240 C.ar    1  UNL1        0.0001
     16 C           2.3406    1.6564   20.4201 C.2     1  UNL1        0.2492
     17 O           2.0355    2.9456   19.7166 O.2     1  UNL1       -0.2699
     18 N           2.8558    0.4816   19.6427 N.am    1  UNL1       -0.2709
     19 C           3.1608   -0.8077   20.3462 C.3     1  UNL1        0.1258
     20 C           3.6761   -1.9825   19.5688 C.3     1  UNL1        0.1637
     21 O           3.8862   -1.8682   18.0880 O.3     1  UNL1       -0.3501
     22 C           3.5812   -0.5789   17.3846 C.3     1  UNL1        0.1637
     23 C           3.0660    0.5959   18.1619 C.3     1  UNL1        0.1258
     24 C           3.1832    0.4434   32.5238 C.3     1  UNL1        0.2129
     25 C           2.9406    1.4822   33.5783 C.2     1  UNL1        0.2430
     26 O           1.6935    2.3148   33.5379 O.2     1  UNL1       -0.2735
     27 N           3.9449    1.6883   34.6732 N.am    1  UNL1       -0.2955
     28 H           4.7634    1.1419   34.6997 H       1  UNL1        0.1499
     29 C           3.7021    2.7272   35.7277 C.3     1  UNL1        0.1757
     30 C           2.6987    2.4735   36.8134 C.2     1  UNL1        0.2425
     31 O           1.5396    3.4078   36.9966 O.2     1  UNL1       -0.2733
     32 N           2.8544    1.2856   37.7160 N.am    1  UNL1       -0.3046
     33 H           3.6152    0.6724   37.5957 H       1  UNL1        0.1494
     34 C           1.8510    1.0319   38.8017 C.3     1  UNL1        0.0717
     35 C           0.7815    1.5348   39.7254 C.3     1  UNL1        0.0213
     36 C           1.1825    0.0897   39.7584 C.3     1  UNL1        0.0213
     37 N           4.7809   -2.0107   33.1754 N.1     1  UNL1       -0.1950
     38 C           3.9821   -0.7836   32.8496 C.1     1  UNL1        0.0881
@<TRIPOS>BOND
     1    37    38    3
     2    38    24    1
     3    24    25    1
     4    25    26    2
     5    25    27   am
     6    27    29    1
     7    29    30    1
     8    30    31    2
     9    30    32   am
    10    32    34    1
    11    34    35    1
    12    35    36    1
    13    24     1    1
    14     1     2   ar
    15     2     3   ar
    16     3     4   ar
    17     4     5   ar
    18     5     6   ar
    19     6    10    1
    20    10    11   ar
    21    11    12   ar
    22    12    13   ar
    23    13    16    1
    24    16    17    2
    25    16    18   am
    26    18    19    1
    27    19    20    1
    28    20    21    1
    29    21    22    1
    30    22    23    1
    31    13    14   ar
    32    14    15   ar
    33     6     7   ar
    34     7     8   ar
    35     8     9   ar
    36    36    34    1
    37     9     1   ar
    38     8     3   ar
    39    15    10   ar
    40    23    18    1
    41    27    28    1
    42    32    33    1
@<TRIPOS>MOLECULE
*****
 38 42 0 0 0
SMALL
GASTEIGER

@<TRIPOS>ATOM
      1 C          -5.2037    4.1237   23.1769 C.ar    1  UNL1        0.1110
      2 N          -3.8378    4.0954   22.5576 N.ar    1  UNL1       -0.2412
      3 C          -2.8534    3.7142   23.6232 C.ar    1  UNL1        0.0875
      4 C          -1.3652    3.5291   23.5950 C.ar    1  UNL1        0.0196
      5 C          -0.6344    3.1367   24.8448 C.ar    1  UNL1        0.0016
      6 C          -1.3919    2.9295   26.1228 C.ar    1  UNL1        0.0006
      7 C          -2.8801    3.1146   26.1510 C.ar    1  UNL1        0.0080
      8 C          -3.6109    3.5070   24.9012 C.ar    1  UNL1        0.0482
      9 S          -5.0634    3.7601   24.6254 S.2     1  UNL1       -0.0693
     10 C          -0.6611    2.5371   27.3726 C.ar    1  UNL1        0.0000
     11 C          -0.9339    1.2096   28.0156 C.ar    1  UNL1        0.0001
     12 C          -0.2031    0.8172   29.2654 C.ar    1  UNL1        0.0045
     13 C           0.8006    1.7523   29.8722 C.ar    1  UNL1        0.0536
     14 C           1.0735    3.0798   29.2291 C.ar    1  UNL1        0.0045
     15 C           0.3427    3.4721   27.9794 C.ar    1  UNL1        0.0001
     16 C           1.5314    1.3600   31.1219 C.2     1  UNL1        0.2492
     17 O           1.0411    1.8344   32.4578 O.2     1  UNL1       -0.2699
     18 N           2.7526    0.4932   31.0358 N.am    1  UNL1       -0.2709
     19 C           3.2429    0.0188   29.7000 C.3     1  UNL1        0.1258
     20 C           4.4642   -0.8479   29.6139 C.3     1  UNL1        0.1637
     21 O           5.1950   -1.2403   30.8637 O.3     1  UNL1       -0.3501
     22 C           4.7047   -0.7659   32.1995 C.3     1  UNL1        0.1637
     23 C           3.4835    0.1009   32.2856 C.3     1  UNL1        0.1258
     24 C          -6.4849    4.4572   22.4716 C.3     1  UNL1        0.2129
     25 C          -6.5163    4.5437   20.9745 C.2     1  UNL1        0.2430
     26 O          -7.4592    5.4940   20.2977 O.2     1  UNL1       -0.2735
     27 N          -5.6048    3.6800   20.1540 N.am    1  UNL1       -0.2955
     28 H          -4.9859    3.0563   20.5981 H       1  UNL1        0.1499
     29 C          -5.6362    3.7666   18.6568 C.3     1  UNL1        0.1757
     30 C          -4.3571    3.7097   17.8752 C.2     1  UNL1        0.2425
     31 O          -4.3550    3.1609   16.4792 O.2     1  UNL1       -0.2733
     32 N          -3.0803    4.2016   18.4897 N.am    1  UNL1       -0.3046
     33 H          -3.0817    4.5618   19.4059 H       1  UNL1        0.1494
     34 C          -1.8012    4.1447   17.7081 C.3     1  UNL1        0.0717
     35 C          -0.9380    4.6510   16.5908 C.3     1  UNL1        0.0213
     36 C          -0.4491    3.5398   17.4718 C.3     1  UNL1        0.0213
     37 N          -8.9845    4.9510   24.0553 N.1     1  UNL1       -0.1950
     38 C          -7.7346    4.7041   23.2635 C.1     1  UNL1        0.0881
@<TRIPOS>BOND
     1    37    38    3
     2    38    24    1
     3    24    25    1
     4    25    26    2
     5    25    27   am
     6    27    29    1
     7    29    30    1
     8    30    31    2
     9    30    32   am
    10    32    34    1
    11    34    35    1
    12    35    36    1
    13    24     1    1
    14     1     2   ar
    15     2     3   ar
    16     3     4   ar
    17     4     5   ar
    18     5     6   ar
    19     6    10    1
    20    10    11   ar
    21    11    12   ar
    22    12    13   ar
    23    13    16    1
    24    16    17    2
    25    16    18   am
    26    18    19    1
    27    19    20    1
    28    20    21    1
    29    21    22    1
    30    22    23    1
    31    13    14   ar
    32    14    15   ar
    33     6     7   ar
    34     7     8   ar
    35     8     9   ar
    36    36    34    1
    37     9     1   ar
    38     8     3   ar
    39    15    10   ar
    40    23    18    1
    41    27    28    1
    42    32    33    1
@<TRIPOS>MOLECULE
*****
 38 42 0 0 0
SMALL
GASTEIGER

@<TRIPOS>ATOM
      1 C           8.1045   -6.0670   26.2032 C.ar    1  UNL1        0.1110
      2 N           8.9349   -6.2025   24.9614 N.ar    1  UNL1       -0.2412
      3 C           8.2787   -5.4027   23.8753 C.ar    1  UNL1        0.0875
      4 C           8.6470   -5.1665   22.4406 C.ar    1  UNL1        0.0196
      5 C           7.7792   -4.3004   21.5764 C.ar    1  UNL1        0.0016
      6 C           6.5432   -3.6706   22.1469 C.ar    1  UNL1        0.0006
      7 C           6.1749   -3.9068   23.5816 C.ar    1  UNL1        0.0080
      8 C           7.0427   -4.7728   24.4459 C.ar    1  UNL1        0.0482
      9 S           6.9350   -5.1834   25.8845 S.2     1  UNL1       -0.0693
     10 C           5.6754   -2.8045   21.2826 C.ar    1  UNL1        0.0000
     11 C           6.1135   -1.4125   20.9360 C.ar    1  UNL1        0.0001
     12 C           5.2457   -0.5464   20.0717 C.ar    1  UNL1        0.0045
     13 C           3.9398   -1.0725   19.5540 C.ar    1  UNL1        0.0536
     14 C           3.5018   -2.4646   19.9007 C.ar    1  UNL1        0.0045
     15 C           4.3695   -3.3306   20.7649 C.ar    1  UNL1        0.0001
     16 C           3.0721   -0.2065   18.6898 C.2     1  UNL1        0.2492
     17 O           3.2862   -0.1741   17.2055 O.2     1  UNL1       -0.2699
     18 N           1.9902    0.6272   19.3098 N.am    1  UNL1       -0.2709
     19 C           1.7760    0.5948   20.7941 C.3     1  UNL1        0.1258
     20 C           0.6940    1.4285   21.4141 C.3     1  UNL1        0.1637
     21 O          -0.1737    2.2945   20.5498 O.3     1  UNL1       -0.3501
     22 C           0.0404    2.3269   19.0655 C.3     1  UNL1        0.1637
     23 C           1.1223    1.4932   18.4455 C.3     1  UNL1        0.1258
     24 C           8.3929   -6.7034   27.5306 C.3     1  UNL1        0.2129
     25 C           8.4646   -5.8583   28.7677 C.2     1  UNL1        0.2430
     26 O           9.4724   -4.7514   28.8625 O.2     1  UNL1       -0.2735
     27 N           7.5284   -6.1201   29.9101 N.am    1  UNL1       -0.2955
     28 H           6.8670   -6.8466   29.8480 H       1  UNL1        0.1499
     29 C           7.6002   -5.2749   31.1473 C.3     1  UNL1        0.1757
     30 C           6.7041   -4.0808   31.2929 C.2     1  UNL1        0.2425
     31 O           6.5314   -3.1286   30.1467 O.2     1  UNL1       -0.2733
     32 N           5.9809   -3.8388   32.5845 N.am    1  UNL1       -0.3046
     33 H           6.0943   -4.4637   33.3367 H       1  UNL1        0.1494
     34 C           5.0848   -2.6447   32.7300 C.3     1  UNL1        0.0717
     35 C           4.2648   -1.5527   32.1095 C.3     1  UNL1        0.0213
     36 C           4.3530   -1.6684   33.6025 C.3     1  UNL1        0.0213
     37 N           8.8262   -9.6665   27.7109 N.1     1  UNL1       -0.1950
     38 C           8.6095   -8.1849   27.6207 C.1     1  UNL1        0.0881
@<TRIPOS>BOND
     1    37    38    3
     2    38    24    1
     3    24    25    1
     4    25    26    2
     5    25    27   am
     6    27    29    1
     7    29    30    1
     8    30    31    2
     9    30    32   am
    10    32    34    1
    11    34    35    1
    12    35    36    1
    13    24     1    1
    14     1     2   ar
    15     2     3   ar
    16     3     4   ar
    17     4     5   ar
    18     5     6   ar
    19     6    10    1
    20    10    11   ar
    21    11    12   ar
    22    12    13   ar
    23    13    16    1
    24    16    17    2
    25    16    18   am
    26    18    19    1
    27    19    20    1
    28    20    21    1
    29    21    22    1
    30    22    23    1
    31    13    14   ar
    32    14    15   ar
    33     6     7   ar
    34     7     8   ar
    35     8     9   ar
    36    36    34    1
    37     9     1   ar
    38     8     3   ar
    39    15    10   ar
    40    23    18    1
    41    27    28    1
    42    32    33    1
@<TRIPOS>MOLECULE
*****
 38 42 0 0 0
SMALL
GASTEIGER

@<TRIPOS>ATOM
      1 C           3.6245   -0.0843   31.9385 C.ar    1  UNL1        0.1110
      2 N           2.3231    0.6415   32.1101 N.ar    1  UNL1       -0.2412
      3 C           1.8724    1.1110   30.7586 C.ar    1  UNL1        0.0875
      4 C           0.6627    1.8789   30.3148 C.ar    1  UNL1        0.0196
      5 C           0.4760    2.2111   28.8640 C.ar    1  UNL1        0.0016
      6 C           1.4989    1.7754   27.8571 C.ar    1  UNL1        0.0006
      7 C           2.7085    1.0075   28.3010 C.ar    1  UNL1        0.0080
      8 C           2.8953    0.6753   29.7517 C.ar    1  UNL1        0.0482
      9 S           3.9782   -0.0634   30.4810 S.2     1  UNL1       -0.0693
     10 C           1.3121    2.1076   26.4063 C.ar    1  UNL1        0.0000
     11 C           2.5076    2.3037   25.5219 C.ar    1  UNL1        0.0001
     12 C           2.3208    2.6359   24.0710 C.ar    1  UNL1        0.0045
     13 C           0.9385    2.7721   23.5048 C.ar    1  UNL1        0.0536
     14 C          -0.2571    2.5760   24.3893 C.ar    1  UNL1        0.0045
     15 C          -0.0702    2.2438   25.8401 C.ar    1  UNL1        0.0001
     16 C           0.7516    3.1043   22.0540 C.2     1  UNL1        0.2492
     17 O           0.4210    4.5084   21.6427 O.2     1  UNL1       -0.2699
     18 N           0.8955    2.0324   21.0147 N.am    1  UNL1       -0.2709
     19 C           1.2261    0.6284   21.4260 C.3     1  UNL1        0.1258
     20 C           1.3699   -0.4435   20.3865 C.3     1  UNL1        0.1637
     21 O           1.1831   -0.1113   18.9358 O.3     1  UNL1       -0.3501
     22 C           0.8524    1.2928   18.5244 C.3     1  UNL1        0.1637
     23 C           0.7086    2.3646   19.5638 C.3     1  UNL1        0.1258
     24 C           4.4308   -0.7194   33.0324 C.3     1  UNL1        0.2129
     25 C           4.4930   -0.0785   34.3871 C.2     1  UNL1        0.2430
     26 O           4.8221   -0.9063   35.5941 O.2     1  UNL1       -0.2735
     27 N           4.2261    1.3901   34.5350 N.am    1  UNL1       -0.2955
     28 H           4.0101    1.9334   33.7429 H       1  UNL1        0.1499
     29 C           4.2883    2.0310   35.8899 C.3     1  UNL1        0.1757
     30 C           3.1320    1.8984   36.8361 C.2     1  UNL1        0.2425
     31 O           1.9647    2.8344   36.7297 O.2     1  UNL1       -0.2733
     32 N           3.1429    0.8298   37.8886 N.am    1  UNL1       -0.3046
     33 H           3.9091    0.2154   37.9584 H       1  UNL1        0.1494
     34 C           1.9866    0.6972   38.8348 C.3     1  UNL1        0.0717
     35 C           0.8110    1.3031   39.5423 C.3     1  UNL1        0.0213
     36 C           1.1595   -0.1385   39.7662 C.3     1  UNL1        0.0213
     37 N           5.9188   -3.2716   32.5107 N.1     1  UNL1       -0.1950
     38 C           5.1748   -1.9955   32.7716 C.1     1  UNL1        0.0881
@<TRIPOS>BOND
     1    37    38    3
     2    38    24    1
     3    24    25    1
     4    25    26    2
     5    25    27   am
     6    27    29    1
     7    29    30    1
     8    30    31    2
     9    30    32   am
    10    32    34    1
    11    34    35    1
    12    35    36    1
    13    24     1    1
    14     1     2   ar
    15     2     3   ar
    16     3     4   ar
    17     4     5   ar
    18     5     6   ar
    19     6    10    1
    20    10    11   ar
    21    11    12   ar
    22    12    13   ar
    23    13    16    1
    24    16    17    2
    25    16    18   am
    26    18    19    1
    27    19    20    1
    28    20    21    1
    29    21    22    1
    30    22    23    1
    31    13    14   ar
    32    14    15   ar
    33     6     7   ar
    34     7     8   ar
    35     8     9   ar
    36    36    34    1
    37     9     1   ar
    38     8     3   ar
    39    15    10   ar
    40    23    18    1
    41    27    28    1
    42    32    33    1
