@<TRIPOS>MOLECULE
*****
 32 37 0 0 0
SMALL
GASTEIGER

@<TRIPOS>ATOM
      1 C           6.9300   -2.4169   19.9496 C.ar    1  UNL1        0.1025
      2 N           8.0631   -2.2983   18.9740 N.ar    1  UNL1       -0.1480
      3 N           9.3659   -2.9884   19.2502 N.ar    1  UNL1       -0.1464
      4 C           9.5356   -3.7971   20.5021 C.ar    1  UNL1        0.1221
      5 C           8.4025   -3.9157   21.4777 C.ar    1  UNL1        0.0225
      6 C           8.5722   -4.7245   22.7296 C.ar    1  UNL1        0.0017
      7 C           7.4391   -4.8431   23.7052 C.ar    1  UNL1        0.0028
      8 C           6.1362   -4.1530   23.4290 C.ar    1  UNL1        0.0001
      9 C           5.9665   -3.3442   22.1772 C.ar    1  UNL1        0.0016
     10 C           7.0997   -3.2256   21.2015 C.ar    1  UNL1        0.0209
     11 C           7.6088   -5.6518   24.9571 C.ar    1  UNL1        0.0333
     12 C           8.2182   -7.0207   24.8888 C.ar    1  UNL1       -0.0188
     13 C           8.6578   -7.5809   23.5686 C.3     1  UNL1        0.0311
     14 C           8.3879   -7.8294   26.1406 C.ar    1  UNL1       -0.0040
     15 C           7.9483   -7.2693   27.4608 C.ar    1  UNL1        0.0057
     16 C           7.3389   -5.9003   27.5291 C.ar    1  UNL1        0.0717
     17 C           6.8153   -5.0909   28.6784 C.ar    1  UNL1        0.1704
     18 N           6.3220   -3.7820   28.1368 N.ar    1  UNL1       -0.0621
     19 O           6.5407   -3.7823   26.6529 O.2     1  UNL1       -0.3522
     20 C           7.1692   -5.0915   26.2773 C.ar    1  UNL1        0.1777
     21 N           6.7896   -5.5158   30.1167 N.pl3   1  UNL1       -0.3171
     22 H           6.6748   -6.4661   30.3472 H       1  UNL1        0.1482
     23 C           6.9387   -4.4931   31.2037 C.3     1  UNL1        0.0706
     24 C           6.3493   -3.7054   32.3360 C.3     1  UNL1        0.0212
     25 C           7.7865   -3.5092   31.9543 C.3     1  UNL1        0.0212
     26 C           4.6531   -3.9431   18.7303 C.3     1  UNL1        0.0311
     27 C           4.4886   -2.4899   19.0638 C.ar    1  UNL1       -0.0203
     28 C           3.1858   -1.7999   18.7876 C.ar    1  UNL1       -0.0042
     29 C           3.0212   -0.3466   19.1211 C.ar    1  UNL1       -0.0003
     30 C           4.1597    0.4165   19.7307 C.ar    1  UNL1        0.0000
     31 C           5.4626   -0.2736   20.0069 C.ar    1  UNL1        0.0012
     32 C           5.6270   -1.7268   19.6734 C.ar    1  UNL1        0.0155
@<TRIPOS>BOND
     1    26    27    1
     2    27    28   ar
     3    28    29   ar
     4    29    30   ar
     5    30    31   ar
     6    31    32   ar
     7    32     1    1
     8     1     2   ar
     9     2     3   ar
    10     3     4   ar
    11     4     5   ar
    12     5     6   ar
    13     6     7   ar
    14     7    11    1
    15    11    12   ar
    16    12    13    1
    17    12    14   ar
    18    14    15   ar
    19    15    16   ar
    20    16    17   ar
    21    17    21    1
    22    21    23    1
    23    23    24    1
    24    24    25    1
    25    17    18   ar
    26    18    19   ar
    27    19    20   ar
    28     7     8   ar
    29     8     9   ar
    30     9    10   ar
    31    32    27   ar
    32    10     1   ar
    33    10     5   ar
    34    20    11   ar
    35    20    16   ar
    36    25    23    1
    37    21    22    1
@<TRIPOS>MOLECULE
*****
 32 37 0 0 0
SMALL
GASTEIGER

@<TRIPOS>ATOM
      1 C           3.4724   -1.8326   20.8564 C.ar    1  UNL1        0.1025
      2 N           3.7596   -3.1485   20.1962 N.ar    1  UNL1       -0.1480
      3 N           4.4973   -4.2182   20.9454 N.ar    1  UNL1       -0.1464
      4 C           4.9478   -3.9721   22.3549 C.ar    1  UNL1        0.1221
      5 C           4.6605   -2.6562   23.0151 C.ar    1  UNL1        0.0225
      6 C           5.1110   -2.4101   24.4245 C.ar    1  UNL1        0.0017
      7 C           4.8238   -1.0942   25.0847 C.ar    1  UNL1        0.0028
      8 C           4.0861   -0.0244   24.3355 C.ar    1  UNL1        0.0001
      9 C           3.6356   -0.2705   22.9261 C.ar    1  UNL1        0.0016
     10 C           3.9229   -1.5865   22.2659 C.ar    1  UNL1        0.0209
     11 C           5.2743   -0.8481   26.4942 C.ar    1  UNL1        0.0333
     12 C           6.7264   -0.6127   26.7871 C.ar    1  UNL1       -0.0188
     13 C           7.7281   -0.6235   25.6707 C.3     1  UNL1        0.0311
     14 C           7.1769   -0.3666   28.1966 C.ar    1  UNL1       -0.0040
     15 C           6.1753   -0.3559   29.3130 C.ar    1  UNL1        0.0057
     16 C           4.7230   -0.5913   29.0201 C.ar    1  UNL1        0.0717
     17 C           3.5148   -0.6386   29.9078 C.ar    1  UNL1        0.1704
     18 N           2.3177   -0.9140   29.0470 N.ar    1  UNL1       -0.0621
     19 O           2.7860   -1.0368   27.6273 O.2     1  UNL1       -0.3522
     20 C           4.2726   -0.8374   27.6107 C.ar    1  UNL1        0.1777
     21 N           3.5055   -0.4447   31.3952 N.pl3   1  UNL1       -0.3171
     22 H           3.0472    0.3335   31.7872 H       1  UNL1        0.1482
     23 C           4.1944   -1.4362   32.2852 C.3     1  UNL1        0.0706
     24 C           4.2875   -2.1607   33.5953 C.3     1  UNL1        0.0212
     25 C           5.2946   -2.4292   32.5166 C.3     1  UNL1        0.0212
     26 C           4.9188   -0.1403   18.8455 C.3     1  UNL1        0.0311
     27 C           3.4579    0.0834   19.1017 C.ar    1  UNL1       -0.0203
     28 C           2.7202    1.1532   18.3525 C.ar    1  UNL1       -0.0042
     29 C           1.2592    1.3769   18.6088 C.ar    1  UNL1       -0.0003
     30 C           0.5360    0.5308   19.6143 C.ar    1  UNL1        0.0000
     31 C           1.2737   -0.5391   20.3635 C.ar    1  UNL1        0.0012
     32 C           2.7346   -0.7627   20.1072 C.ar    1  UNL1        0.0155
@<TRIPOS>BOND
     1    26    27    1
     2    27    28   ar
     3    28    29   ar
     4    29    30   ar
     5    30    31   ar
     6    31    32   ar
     7    32     1    1
     8     1     2   ar
     9     2     3   ar
    10     3     4   ar
    11     4     5   ar
    12     5     6   ar
    13     6     7   ar
    14     7    11    1
    15    11    12   ar
    16    12    13    1
    17    12    14   ar
    18    14    15   ar
    19    15    16   ar
    20    16    17   ar
    21    17    21    1
    22    21    23    1
    23    23    24    1
    24    24    25    1
    25    17    18   ar
    26    18    19   ar
    27    19    20   ar
    28     7     8   ar
    29     8     9   ar
    30     9    10   ar
    31    32    27   ar
    32    10     1   ar
    33    10     5   ar
    34    20    11   ar
    35    20    16   ar
    36    25    23    1
    37    21    22    1
@<TRIPOS>MOLECULE
*****
 32 37 0 0 0
SMALL
GASTEIGER

@<TRIPOS>ATOM
      1 C           7.9850   -3.6986   24.3118 C.ar    1  UNL1        0.1025
      2 N           9.2587   -2.9593   24.5964 N.ar    1  UNL1       -0.1480
      3 N           9.4794   -1.5943   24.0150 N.ar    1  UNL1       -0.1464
      4 C           8.4265   -0.9687   23.1490 C.ar    1  UNL1        0.1221
      5 C           7.1528   -1.7081   22.8644 C.ar    1  UNL1        0.0225
      6 C           6.0999   -1.0825   21.9984 C.ar    1  UNL1        0.0017
      7 C           4.8262   -1.8219   21.7138 C.ar    1  UNL1        0.0028
      8 C           4.6054   -3.1870   22.2952 C.ar    1  UNL1        0.0001
      9 C           5.6584   -3.8125   23.1612 C.ar    1  UNL1        0.0016
     10 C           6.9321   -3.0731   23.4458 C.ar    1  UNL1        0.0209
     11 C           3.7733   -1.1963   20.8478 C.ar    1  UNL1        0.0333
     12 C           3.8043   -1.4021   19.3623 C.ar    1  UNL1       -0.0188
     13 C           4.8883   -2.2335   18.7429 C.3     1  UNL1        0.0311
     14 C           2.7514   -0.7765   18.4963 C.ar    1  UNL1       -0.0040
     15 C           1.6674    0.0548   19.1157 C.ar    1  UNL1        0.0057
     16 C           1.6363    0.2607   20.6013 C.ar    1  UNL1        0.0717
     17 C           0.6987    1.0235   21.4895 C.ar    1  UNL1        0.1704
     18 N           1.1722    0.8694   22.9044 N.ar    1  UNL1       -0.0621
     19 O           2.4023    0.0113   22.8907 O.2     1  UNL1       -0.3522
     20 C           2.6893   -0.3649   21.4673 C.ar    1  UNL1        0.1777
     21 N          -0.5016    1.8035   21.0414 N.pl3   1  UNL1       -0.3171
     22 H          -1.3900    1.5954   21.4110 H       1  UNL1        0.1482
     23 C          -0.3484    2.9007   20.0301 C.3     1  UNL1        0.0706
     24 C           0.1177    3.3710   18.6841 C.3     1  UNL1        0.0212
     25 C          -0.5490    4.3308   19.6245 C.3     1  UNL1        0.0212
     26 C           8.9374   -6.1300   22.8350 C.3     1  UNL1        0.0311
     27 C           8.2404   -6.2794   24.1548 C.ar    1  UNL1       -0.0203
     28 C           8.0197   -7.6444   24.7362 C.ar    1  UNL1       -0.0042
     29 C           7.3227   -7.7937   26.0560 C.ar    1  UNL1       -0.0003
     30 C           6.8465   -6.5780   26.7945 C.ar    1  UNL1        0.0000
     31 C           7.0672   -5.2130   26.2130 C.ar    1  UNL1        0.0012
     32 C           7.7642   -5.0637   24.8933 C.ar    1  UNL1        0.0155
@<TRIPOS>BOND
     1    26    27    1
     2    27    28   ar
     3    28    29   ar
     4    29    30   ar
     5    30    31   ar
     6    31    32   ar
     7    32     1    1
     8     1     2   ar
     9     2     3   ar
    10     3     4   ar
    11     4     5   ar
    12     5     6   ar
    13     6     7   ar
    14     7    11    1
    15    11    12   ar
    16    12    13    1
    17    12    14   ar
    18    14    15   ar
    19    15    16   ar
    20    16    17   ar
    21    17    21    1
    22    21    23    1
    23    23    24    1
    24    24    25    1
    25    17    18   ar
    26    18    19   ar
    27    19    20   ar
    28     7     8   ar
    29     8     9   ar
    30     9    10   ar
    31    32    27   ar
    32    10     1   ar
    33    10     5   ar
    34    20    11   ar
    35    20    16   ar
    36    25    23    1
    37    21    22    1
@<TRIPOS>MOLECULE
*****
 32 37 0 0 0
SMALL
GASTEIGER

@<TRIPOS>ATOM
      1 C           6.8077   -0.4793   19.8925 C.ar    1  UNL1        0.1025
      2 N           7.9127    0.4980   19.6210 N.ar    1  UNL1       -0.1480
      3 N           9.2336    0.3485   20.3159 N.ar    1  UNL1       -0.1464
      4 C           9.4494   -0.7782   21.2823 C.ar    1  UNL1        0.1221
      5 C           8.3444   -1.7555   21.5537 C.ar    1  UNL1        0.0225
      6 C           8.5602   -2.8823   22.5201 C.ar    1  UNL1        0.0017
      7 C           7.4551   -3.8596   22.7915 C.ar    1  UNL1        0.0028
      8 C           6.1342   -3.7101   22.0966 C.ar    1  UNL1        0.0001
      9 C           5.9184   -2.5833   21.1303 C.ar    1  UNL1        0.0016
     10 C           7.0235   -1.6060   20.8588 C.ar    1  UNL1        0.0209
     11 C           7.6710   -4.9863   23.7579 C.ar    1  UNL1        0.0333
     12 C           8.3249   -6.2550   23.2967 C.ar    1  UNL1       -0.0188
     13 C           8.7631   -6.3969   21.8692 C.3     1  UNL1        0.0311
     14 C           8.5408   -7.3818   24.2630 C.ar    1  UNL1       -0.0040
     15 C           8.1026   -7.2399   25.6905 C.ar    1  UNL1        0.0057
     16 C           7.4486   -5.9711   26.1518 C.ar    1  UNL1        0.0717
     17 C           6.9155   -5.5447   27.4875 C.ar    1  UNL1        0.1704
     18 N           6.3703   -4.1545   27.3466 N.ar    1  UNL1       -0.0621
     19 O           6.5664   -3.7216   25.9239 O.2     1  UNL1       -0.3522
     20 C           7.2328   -4.8444   25.1854 C.ar    1  UNL1        0.1777
     21 N           6.9260   -6.3647   28.7435 N.pl3   1  UNL1       -0.3171
     22 H           6.8690   -7.3462   28.6911 H       1  UNL1        0.1482
     23 C           7.0231   -5.6893   30.0793 C.3     1  UNL1        0.0706
     24 C           7.1552   -4.4379   30.8957 C.3     1  UNL1        0.0212
     25 C           7.0592   -5.7709   31.5766 C.3     1  UNL1        0.0212
     26 C           4.5958    1.0747   21.1935 C.3     1  UNL1        0.0311
     27 C           4.3808    0.4472   19.8481 C.ar    1  UNL1       -0.0203
     28 C           3.0599    0.5967   19.1533 C.ar    1  UNL1       -0.0042
     29 C           2.8449   -0.0309   17.8079 C.ar    1  UNL1       -0.0003
     30 C           3.9508   -0.8078   17.1574 C.ar    1  UNL1        0.0000
     31 C           5.2718   -0.9573   17.8523 C.ar    1  UNL1        0.0012
     32 C           5.4867   -0.3298   19.1976 C.ar    1  UNL1        0.0155
@<TRIPOS>BOND
     1    26    27    1
     2    27    28   ar
     3    28    29   ar
     4    29    30   ar
     5    30    31   ar
     6    31    32   ar
     7    32     1    1
     8     1     2   ar
     9     2     3   ar
    10     3     4   ar
    11     4     5   ar
    12     5     6   ar
    13     6     7   ar
    14     7    11    1
    15    11    12   ar
    16    12    13    1
    17    12    14   ar
    18    14    15   ar
    19    15    16   ar
    20    16    17   ar
    21    17    21    1
    22    21    23    1
    23    23    24    1
    24    24    25    1
    25    17    18   ar
    26    18    19   ar
    27    19    20   ar
    28     7     8   ar
    29     8     9   ar
    30     9    10   ar
    31    32    27   ar
    32    10     1   ar
    33    10     5   ar
    34    20    11   ar
    35    20    16   ar
    36    25    23    1
    37    21    22    1
@<TRIPOS>MOLECULE
*****
 32 37 0 0 0
SMALL
GASTEIGER

@<TRIPOS>ATOM
      1 C           0.4861    4.4665   17.9190 C.ar    1  UNL1        0.1025
      2 N           1.2184    5.7745   17.8666 N.ar    1  UNL1       -0.1480
      3 N           2.6936    5.8192   18.1343 N.ar    1  UNL1       -0.1464
      4 C           3.4365    4.5560   18.4544 C.ar    1  UNL1        0.1221
      5 C           2.7041    3.2480   18.5068 C.ar    1  UNL1        0.0225
      6 C           3.4470    1.9848   18.8268 C.ar    1  UNL1        0.0017
      7 C           2.7146    0.6768   18.8792 C.ar    1  UNL1        0.0028
      8 C           1.2394    0.6320   18.6115 C.ar    1  UNL1        0.0001
      9 C           0.4965    1.8952   18.2915 C.ar    1  UNL1        0.0016
     10 C           1.2289    3.2033   18.2391 C.ar    1  UNL1        0.0209
     11 C           3.4575   -0.5864   19.1993 C.ar    1  UNL1        0.0333
     12 C           4.0731   -1.3946   18.0958 C.ar    1  UNL1       -0.0188
     13 C           3.9458   -0.9395   16.6722 C.3     1  UNL1        0.0311
     14 C           4.8159   -2.6578   18.4158 C.ar    1  UNL1       -0.0040
     15 C           4.9432   -3.1128   19.8394 C.ar    1  UNL1        0.0057
     16 C           4.3276   -2.3046   20.9431 C.ar    1  UNL1        0.0717
     17 C           4.2891   -2.5010   22.4297 C.ar    1  UNL1        0.1704
     18 N           3.5224   -1.3592   23.0283 N.ar    1  UNL1       -0.0621
     19 O           3.0871   -0.4571   21.9118 O.2     1  UNL1       -0.3522
     20 C           3.5848   -1.0414   20.6230 C.ar    1  UNL1        0.1777
     21 N           4.9085   -3.6394   23.1849 N.pl3   1  UNL1       -0.3171
     22 H           4.3358   -4.2885   23.6539 H       1  UNL1        0.1482
     23 C           6.4004   -3.7888   23.2257 C.3     1  UNL1        0.0706
     24 C           7.6506   -4.4736   22.7587 C.3     1  UNL1        0.0212
     25 C           7.7344   -3.3629   23.7632 C.3     1  UNL1        0.0212
     26 C          -1.4588    4.7381   20.1870 C.3     1  UNL1        0.0311
     27 C          -1.9617    4.5575   18.7853 C.ar    1  UNL1       -0.0203
     28 C          -3.4369    4.5126   18.5177 C.ar    1  UNL1       -0.0042
     29 C          -3.9398    4.3320   17.1160 C.ar    1  UNL1       -0.0003
     30 C          -2.9673    4.1962   15.9821 C.ar    1  UNL1        0.0000
     31 C          -1.4920    4.2410   16.2497 C.ar    1  UNL1        0.0012
     32 C          -0.9892    4.4217   17.6514 C.ar    1  UNL1        0.0155
@<TRIPOS>BOND
     1    26    27    1
     2    27    28   ar
     3    28    29   ar
     4    29    30   ar
     5    30    31   ar
     6    31    32   ar
     7    32     1    1
     8     1     2   ar
     9     2     3   ar
    10     3     4   ar
    11     4     5   ar
    12     5     6   ar
    13     6     7   ar
    14     7    11    1
    15    11    12   ar
    16    12    13    1
    17    12    14   ar
    18    14    15   ar
    19    15    16   ar
    20    16    17   ar
    21    17    21    1
    22    21    23    1
    23    23    24    1
    24    24    25    1
    25    17    18   ar
    26    18    19   ar
    27    19    20   ar
    28     7     8   ar
    29     8     9   ar
    30     9    10   ar
    31    32    27   ar
    32    10     1   ar
    33    10     5   ar
    34    20    11   ar
    35    20    16   ar
    36    25    23    1
    37    21    22    1
@<TRIPOS>MOLECULE
*****
 32 37 0 0 0
SMALL
GASTEIGER

@<TRIPOS>ATOM
      1 C           3.9462    0.4263   20.4985 C.ar    1  UNL1        0.1025
      2 N           4.8979    0.9247   21.5453 N.ar    1  UNL1       -0.1480
      3 N           4.6552    2.2468   22.2110 N.ar    1  UNL1       -0.1464
      4 C           3.4609    3.0704   21.8299 C.ar    1  UNL1        0.1221
      5 C           2.5093    2.5721   20.7831 C.ar    1  UNL1        0.0225
      6 C           1.3150    3.3957   20.4020 C.ar    1  UNL1        0.0017
      7 C           0.3633    2.8974   19.3552 C.ar    1  UNL1        0.0028
      8 C           0.6059    1.5752   18.6894 C.ar    1  UNL1        0.0001
      9 C           1.8002    0.7516   19.0705 C.ar    1  UNL1        0.0016
     10 C           2.7519    1.2500   20.1174 C.ar    1  UNL1        0.0209
     11 C          -0.8310    3.7210   18.9741 C.ar    1  UNL1        0.0333
     12 C          -0.7214    4.7382   17.8772 C.ar    1  UNL1       -0.0188
     13 C           0.5825    4.9318   17.1614 C.3     1  UNL1        0.0311
     14 C          -1.9157    5.5619   17.4961 C.ar    1  UNL1       -0.0040
     15 C          -3.2196    5.3684   18.2120 C.ar    1  UNL1        0.0057
     16 C          -3.3292    4.3511   19.3089 C.ar    1  UNL1        0.0717
     17 C          -4.4744    3.9408   20.1866 C.ar    1  UNL1        0.1704
     18 N          -3.9878    2.8636   21.1100 N.ar    1  UNL1       -0.0621
     19 O          -2.5420    2.6081   20.8032 O.2     1  UNL1       -0.3522
     20 C          -2.1349    3.5275   19.6900 C.ar    1  UNL1        0.1777
     21 N          -5.8624    4.5082   20.1475 N.pl3   1  UNL1       -0.3171
     22 H          -6.2894    4.7054   19.2826 H       1  UNL1        0.1482
     23 C          -6.5998    4.7751   21.4262 C.3     1  UNL1        0.0706
     24 C          -7.1598    4.2864   22.7291 C.3     1  UNL1        0.0212
     25 C          -7.3169    5.7260   22.3380 C.3     1  UNL1        0.0212
     26 C           5.6372    0.2805   18.0248 C.3     1  UNL1        0.0311
     27 C           5.0343   -0.9687   18.5958 C.ar    1  UNL1       -0.0203
     28 C           5.2769   -2.2907   17.9300 C.ar    1  UNL1       -0.0042
     29 C           4.6740   -3.5400   18.5011 C.ar    1  UNL1       -0.0003
     30 C           3.8284   -3.4670   19.7379 C.ar    1  UNL1        0.0000
     31 C           3.5859   -2.1449   20.4037 C.ar    1  UNL1        0.0012
     32 C           4.1888   -0.8958   19.8327 C.ar    1  UNL1        0.0155
@<TRIPOS>BOND
     1    26    27    1
     2    27    28   ar
     3    28    29   ar
     4    29    30   ar
     5    30    31   ar
     6    31    32   ar
     7    32     1    1
     8     1     2   ar
     9     2     3   ar
    10     3     4   ar
    11     4     5   ar
    12     5     6   ar
    13     6     7   ar
    14     7    11    1
    15    11    12   ar
    16    12    13    1
    17    12    14   ar
    18    14    15   ar
    19    15    16   ar
    20    16    17   ar
    21    17    21    1
    22    21    23    1
    23    23    24    1
    24    24    25    1
    25    17    18   ar
    26    18    19   ar
    27    19    20   ar
    28     7     8   ar
    29     8     9   ar
    30     9    10   ar
    31    32    27   ar
    32    10     1   ar
    33    10     5   ar
    34    20    11   ar
    35    20    16   ar
    36    25    23    1
    37    21    22    1
@<TRIPOS>MOLECULE
*****
 32 37 0 0 0
SMALL
GASTEIGER

@<TRIPOS>ATOM
      1 C           4.2638   -0.4274   19.7666 C.ar    1  UNL1        0.1025
      2 N           5.6098    0.2064   19.5756 N.ar    1  UNL1       -0.1480
      3 N           5.7271    1.6971   19.4584 N.ar    1  UNL1       -0.1464
      4 C           4.4983    2.5542   19.5321 C.ar    1  UNL1        0.1221
      5 C           3.1522    1.9205   19.7231 C.ar    1  UNL1        0.0225
      6 C           1.9234    2.7776   19.7968 C.ar    1  UNL1        0.0017
      7 C           0.5773    2.1438   19.9878 C.ar    1  UNL1        0.0028
      8 C           0.4601    0.6530   20.1050 C.ar    1  UNL1        0.0001
      9 C           1.6889   -0.2041   20.0313 C.ar    1  UNL1        0.0016
     10 C           3.0350    0.4297   19.8403 C.ar    1  UNL1        0.0209
     11 C          -0.6515    3.0009   20.0615 C.ar    1  UNL1        0.0333
     12 C          -1.2345    3.5853   18.8091 C.ar    1  UNL1       -0.0188
     13 C          -0.5888    3.3127   17.4830 C.3     1  UNL1        0.0311
     14 C          -2.4633    4.4424   18.8829 C.ar    1  UNL1       -0.0040
     15 C          -3.1091    4.7151   20.2090 C.ar    1  UNL1        0.0057
     16 C          -2.5261    4.1306   21.4614 C.ar    1  UNL1        0.0717
     17 C          -2.9402    4.2243   22.9001 C.ar    1  UNL1        0.1704
     18 N          -1.9674    3.4251   23.7154 N.ar    1  UNL1       -0.0621
     19 O          -0.9520    2.8375   22.7808 O.2     1  UNL1       -0.3522
     20 C          -1.2973    3.2736   21.3877 C.ar    1  UNL1        0.1777
     21 N          -4.1201    4.9838   23.4302 N.pl3   1  UNL1       -0.3171
     22 H          -3.9859    5.7102   24.0811 H       1  UNL1        0.1482
     23 C          -5.5045    4.6366   22.9688 C.3     1  UNL1        0.0706
     24 C          -6.9581    4.4207   23.2694 C.3     1  UNL1        0.0212
     25 C          -6.4486    4.2510   21.8688 C.3     1  UNL1        0.0212
     26 C           4.5041   -1.7443   22.4513 C.3     1  UNL1        0.0311
     27 C           4.2667   -2.5767   21.2262 C.ar    1  UNL1       -0.0203
     28 C           4.1494   -4.0675   21.3435 C.ar    1  UNL1       -0.0042
     29 C           3.9120   -4.8998   20.1183 C.ar    1  UNL1       -0.0003
     30 C           3.7918   -4.2414   18.7760 C.ar    1  UNL1        0.0000
     31 C           3.9091   -2.7505   18.6587 C.ar    1  UNL1        0.0012
     32 C           4.1465   -1.9182   19.8838 C.ar    1  UNL1        0.0155
@<TRIPOS>BOND
     1    26    27    1
     2    27    28   ar
     3    28    29   ar
     4    29    30   ar
     5    30    31   ar
     6    31    32   ar
     7    32     1    1
     8     1     2   ar
     9     2     3   ar
    10     3     4   ar
    11     4     5   ar
    12     5     6   ar
    13     6     7   ar
    14     7    11    1
    15    11    12   ar
    16    12    13    1
    17    12    14   ar
    18    14    15   ar
    19    15    16   ar
    20    16    17   ar
    21    17    21    1
    22    21    23    1
    23    23    24    1
    24    24    25    1
    25    17    18   ar
    26    18    19   ar
    27    19    20   ar
    28     7     8   ar
    29     8     9   ar
    30     9    10   ar
    31    32    27   ar
    32    10     1   ar
    33    10     5   ar
    34    20    11   ar
    35    20    16   ar
    36    25    23    1
    37    21    22    1
@<TRIPOS>MOLECULE
*****
 32 37 0 0 0
SMALL
GASTEIGER

@<TRIPOS>ATOM
      1 C           7.0437   -2.4036   21.4371 C.ar    1  UNL1        0.1025
      2 N           8.0452   -1.4498   20.8564 N.ar    1  UNL1       -0.1480
      3 N           9.2412   -1.0360   21.6616 N.ar    1  UNL1       -0.1464
      4 C           9.4356   -1.5759   23.0475 C.ar    1  UNL1        0.1221
      5 C           8.4340   -2.5296   23.6282 C.ar    1  UNL1        0.0225
      6 C           8.6284   -3.0695   25.0141 C.ar    1  UNL1        0.0017
      7 C           7.6269   -4.0233   25.5948 C.ar    1  UNL1        0.0028
      8 C           6.4309   -4.4372   24.7895 C.ar    1  UNL1        0.0001
      9 C           6.2365   -3.8973   23.4036 C.ar    1  UNL1        0.0016
     10 C           7.2381   -2.9435   22.8230 C.ar    1  UNL1        0.0209
     11 C           7.8213   -4.5632   26.9807 C.ar    1  UNL1        0.0333
     12 C           8.6890   -5.7665   27.2019 C.ar    1  UNL1       -0.0188
     13 C           9.3624   -6.4299   26.0373 C.3     1  UNL1        0.0311
     14 C           8.8834   -6.3064   28.5878 C.ar    1  UNL1       -0.0040
     15 C           8.2101   -5.6430   29.7525 C.ar    1  UNL1        0.0057
     16 C           7.3423   -4.4396   29.5312 C.ar    1  UNL1        0.0717
     17 C           6.5561   -3.5814   30.4775 C.ar    1  UNL1        0.1704
     18 N           5.8759   -2.5111   29.6764 N.ar    1  UNL1       -0.0621
     19 O           6.2416   -2.7078   28.2351 O.2     1  UNL1       -0.3522
     20 C           7.1479   -3.8997   28.1453 C.ar    1  UNL1        0.1777
     21 N           6.4660   -3.7618   31.9639 N.pl3   1  UNL1       -0.3171
     22 H           6.9641   -4.4889   32.4026 H       1  UNL1        0.1482
     23 C           5.6171   -2.8344   32.7819 C.3     1  UNL1        0.0706
     24 C           5.4334   -1.5231   33.4867 C.3     1  UNL1        0.0212
     25 C           4.3303   -2.5394   33.4940 C.3     1  UNL1        0.0212
     26 C           4.5397   -0.7531   21.5137 C.3     1  UNL1        0.0311
     27 C           4.5957   -1.9923   20.6701 C.ar    1  UNL1       -0.0203
     28 C           3.3997   -2.4061   19.8650 C.ar    1  UNL1       -0.0042
     29 C           3.4557   -3.6452   19.0214 C.ar    1  UNL1       -0.0003
     30 C           4.7077   -4.4705   18.9831 C.ar    1  UNL1        0.0000
     31 C           5.9037   -4.0566   19.7883 C.ar    1  UNL1        0.0012
     32 C           5.8477   -2.8175   20.6318 C.ar    1  UNL1        0.0155
@<TRIPOS>BOND
     1    26    27    1
     2    27    28   ar
     3    28    29   ar
     4    29    30   ar
     5    30    31   ar
     6    31    32   ar
     7    32     1    1
     8     1     2   ar
     9     2     3   ar
    10     3     4   ar
    11     4     5   ar
    12     5     6   ar
    13     6     7   ar
    14     7    11    1
    15    11    12   ar
    16    12    13    1
    17    12    14   ar
    18    14    15   ar
    19    15    16   ar
    20    16    17   ar
    21    17    21    1
    22    21    23    1
    23    23    24    1
    24    24    25    1
    25    17    18   ar
    26    18    19   ar
    27    19    20   ar
    28     7     8   ar
    29     8     9   ar
    30     9    10   ar
    31    32    27   ar
    32    10     1   ar
    33    10     5   ar
    34    20    11   ar
    35    20    16   ar
    36    25    23    1
    37    21    22    1
@<TRIPOS>MOLECULE
*****
 32 37 0 0 0
SMALL
GASTEIGER

@<TRIPOS>ATOM
      1 C           1.0140    2.0494   29.7225 C.ar    1  UNL1        0.1025
      2 N           0.0065    1.3289   30.5685 N.ar    1  UNL1       -0.1480
      3 N          -1.0372    0.4675   29.9216 N.ar    1  UNL1       -0.1464
      4 C          -1.0735    0.3266   28.4287 C.ar    1  UNL1        0.1221
      5 C          -0.0661    1.0471   27.5827 C.ar    1  UNL1        0.0225
      6 C          -0.1024    0.9063   26.0897 C.ar    1  UNL1        0.0017
      7 C           0.9051    1.6268   25.2437 C.ar    1  UNL1        0.0028
      8 C           1.9489    2.4882   25.8906 C.ar    1  UNL1        0.0001
      9 C           1.9852    2.6291   27.3835 C.ar    1  UNL1        0.0016
     10 C           0.9777    1.9085   28.2296 C.ar    1  UNL1        0.0209
     11 C           0.8688    1.4859   23.7508 C.ar    1  UNL1        0.0333
     12 C          -0.0049    2.3904   22.9331 C.ar    1  UNL1       -0.0188
     13 C          -0.8423    3.4357   23.6084 C.3     1  UNL1        0.0311
     14 C          -0.0412    2.2495   21.4402 C.ar    1  UNL1       -0.0040
     15 C           0.7962    1.2042   20.7649 C.ar    1  UNL1        0.0057
     16 C           1.6699    0.2997   21.5826 C.ar    1  UNL1        0.0717
     17 C           2.5983   -0.8145   21.1994 C.ar    1  UNL1        0.1704
     18 N           3.2083   -1.3622   22.4555 N.ar    1  UNL1       -0.0621
     19 O           2.6570   -0.5866   23.6150 O.2     1  UNL1       -0.3522
     20 C           1.7062    0.4405   23.0755 C.ar    1  UNL1        0.1777
     21 N           2.8690   -1.2963   19.8049 N.pl3   1  UNL1       -0.3171
     22 H           2.6238   -0.7353   19.0340 H       1  UNL1        0.1482
     23 C           3.5134   -2.6329   19.5851 C.3     1  UNL1        0.0706
     24 C           3.4116   -4.0728   19.1772 C.3     1  UNL1        0.0212
     25 C           4.7314   -3.5080   19.6122 C.3     1  UNL1        0.0212
     26 C           0.4654    4.9578   30.2128 C.3     1  UNL1        0.0311
     27 C           1.7836    4.3650   30.6146 C.ar    1  UNL1       -0.0203
     28 C           2.8273    5.2264   31.2614 C.ar    1  UNL1       -0.0042
     29 C           4.1454    4.6337   31.6631 C.ar    1  UNL1       -0.0003
     30 C           4.4197    3.1795   31.4179 C.ar    1  UNL1        0.0000
     31 C           3.3759    2.3181   30.7710 C.ar    1  UNL1        0.0012
     32 C           2.0578    2.9108   30.3694 C.ar    1  UNL1        0.0155
@<TRIPOS>BOND
     1    26    27    1
     2    27    28   ar
     3    28    29   ar
     4    29    30   ar
     5    30    31   ar
     6    31    32   ar
     7    32     1    1
     8     1     2   ar
     9     2     3   ar
    10     3     4   ar
    11     4     5   ar
    12     5     6   ar
    13     6     7   ar
    14     7    11    1
    15    11    12   ar
    16    12    13    1
    17    12    14   ar
    18    14    15   ar
    19    15    16   ar
    20    16    17   ar
    21    17    21    1
    22    21    23    1
    23    23    24    1
    24    24    25    1
    25    17    18   ar
    26    18    19   ar
    27    19    20   ar
    28     7     8   ar
    29     8     9   ar
    30     9    10   ar
    31    32    27   ar
    32    10     1   ar
    33    10     5   ar
    34    20    11   ar
    35    20    16   ar
    36    25    23    1
    37    21    22    1
