@<TRIPOS>MOLECULE
*****
 44 47 0 0 0
SMALL
GASTEIGER

@<TRIPOS>ATOM
      1 C           6.1334   -3.6572   22.5186 C.2     1  UNL1        0.2672
      2 O           5.0244   -4.6654   22.5802 O.2     1  UNL1       -0.2682
      3 N           7.3291   -3.8020   23.4126 N.am    1  UNL1       -0.2791
      4 H           8.0570   -3.1403   23.3722 H       1  UNL1        0.1552
      5 C           5.8728   -0.1981   19.6520 C.ar    1  UNL1        0.1575
      6 C           5.8208   -1.6056   19.1358 C.ar    1  UNL1        0.0402
      7 C           5.9076   -2.7585   20.0914 C.ar    1  UNL1        0.0269
      8 C           6.0465   -2.5041   21.5631 C.ar    1  UNL1        0.1350
      9 N           6.0986   -1.0967   22.0793 N.ar    1  UNL1       -0.2361
     10 C           6.0117    0.0563   21.1237 C.ar    1  UNL1        0.1357
     11 O           5.7860    0.9549   18.6965 O.3     1  UNL1       -0.4775
     12 N           1.9133    3.1970   18.2217 N.3     1  UNL1       -0.2774
     13 C           1.8979    1.7429   18.5895 C.3     1  UNL1        0.0488
     14 C           0.4238    2.0184   18.5548 C.3     1  UNL1        0.0161
     15 C           1.3705    0.3845   18.9453 C.3     1  UNL1        0.0161
     16 C           3.1888    0.9955   18.7478 C.3     1  UNL1        0.0582
     17 C           4.4951    1.7023   18.5382 C.3     1  UNL1        0.1686
     18 C           4.5105    3.1563   18.1704 C.3     1  UNL1        0.0582
     19 C           3.2196    3.9037   18.0122 C.3     1  UNL1        0.0488
     20 C           4.1954    5.0025   17.7114 C.3     1  UNL1        0.0161
     21 C           2.2677    5.0327   17.7494 C.3     1  UNL1        0.0161
     22 C           0.0550    4.7143   19.2190 C.3     1  UNL1        0.0188
     23 C           0.6224    3.9443   18.0635 C.3     1  UNL1        0.0720
     24 C           7.4159   -4.9550   24.3680 C.ar    1  UNL1        0.0507
     25 C           6.8379   -4.8318   25.7467 C.ar    1  UNL1        0.0160
     26 C           6.9247   -5.9848   26.7022 C.ar    1  UNL1        0.0160
     27 C           7.5895   -7.2611   26.2791 C.ar    1  UNL1        0.0517
     28 C           8.1675   -7.3844   24.9004 C.ar    1  UNL1        0.0160
     29 C           8.0807   -6.2313   23.9449 C.ar    1  UNL1        0.0160
     30 N           7.6763   -8.4141   27.2345 N.am    1  UNL1       -0.2680
     31 C           6.6799   -9.5324   27.1529 C.2     1  UNL1        0.3093
     32 O           5.5967   -9.4977   26.1159 O.2     1  UNL1       -0.2521
     33 N           6.7667  -10.6854   28.1084 N.am    1  UNL1       -0.2508
     34 H           8.3872   -8.4369   27.9152 H       1  UNL1        0.1564
     35 H           7.4776  -10.7082   28.7891 H       1  UNL1        0.1579
     36 C           5.7703  -11.8038   28.0268 C.ar    1  UNL1        0.1771
     37 C           4.3812  -11.7900   28.5926 C.ar    1  UNL1        0.0734
     38 C           3.7405  -13.1099   28.2806 C.ar    1  UNL1        0.1549
     39 O           4.7337  -13.9395   27.5219 O.2     1  UNL1       -0.3565
     40 N           5.9882  -13.1322   27.3651 N.ar    1  UNL1       -0.0621
     41 C           2.3506  -13.5271   28.6605 C.3     1  UNL1        0.0539
     42 C           2.3573  -12.5291   29.7803 C.3     1  UNL1        0.0076
     43 C           2.3441  -14.5251   27.5407 C.3     1  UNL1        0.0076
     44 C           0.9609  -13.9443   29.0404 C.3     1  UNL1        0.0076
@<TRIPOS>BOND
     1    22    23    1
     2    23    12    1
     3    12    13    1
     4    13    14    1
     5    13    15    1
     6    13    16    1
     7    16    17    1
     8    17    11    1
     9    11     5    1
    10     5     6   ar
    11     6     7   ar
    12     7     8   ar
    13     8     1    1
    14     1     2    2
    15     1     3   am
    16     3    24    1
    17    24    25   ar
    18    25    26   ar
    19    26    27   ar
    20    27    30    1
    21    30    31   am
    22    31    32    2
    23    31    33   am
    24    33    36    1
    25    36    37   ar
    26    37    38   ar
    27    38    41    1
    28    41    42    1
    29    41    43    1
    30    41    44    1
    31    38    39   ar
    32    39    40   ar
    33    27    28   ar
    34    28    29   ar
    35     8     9   ar
    36     9    10   ar
    37    17    18    1
    38    18    19    1
    39    19    20    1
    40    19    21    1
    41    19    12    1
    42    10     5   ar
    43    29    24   ar
    44    40    36   ar
    45     3     4    1
    46    30    34    1
    47    33    35    1
@<TRIPOS>MOLECULE
*****
 44 47 0 0 0
SMALL
GASTEIGER

@<TRIPOS>ATOM
      1 C           6.1251   -3.6860   22.5071 C.2     1  UNL1        0.2672
      2 O           4.9911   -4.6625   22.6090 O.2     1  UNL1       -0.2682
      3 N           7.3400   -3.8546   23.3706 N.am    1  UNL1       -0.2791
      4 H           8.0843   -3.2137   23.3037 H       1  UNL1        0.1552
      5 C           5.8827   -0.2505   19.6106 C.ar    1  UNL1        0.1575
      6 C           5.8756    0.0117   21.0875 C.ar    1  UNL1        0.0402
      7 C           5.9564   -1.1334   22.0530 C.ar    1  UNL1        0.0269
      8 C           6.0443   -2.5408   21.5415 C.ar    1  UNL1        0.1350
      9 N           6.0514   -2.8031   20.0647 N.ar    1  UNL1       -0.2361
     10 C           5.9706   -1.6579   19.0992 C.ar    1  UNL1        0.1357
     11 O           5.8019    0.8946   18.6452 O.3     1  UNL1       -0.4775
     12 N           1.9671    3.2100   18.2168 N.3     1  UNL1       -0.2774
     13 C           3.2853    3.9010   18.0303 C.3     1  UNL1        0.0488
     14 C           2.3524    5.0517   17.7942 C.3     1  UNL1        0.0161
     15 C           4.2795    4.9917   17.7618 C.3     1  UNL1        0.0161
     16 C           4.5636    3.1292   18.1731 C.3     1  UNL1        0.0582
     17 C           4.5236    1.6664   18.5024 C.3     1  UNL1        0.1686
     18 C           3.2054    0.9754   18.6889 C.3     1  UNL1        0.0582
     19 C           1.9272    1.7472   18.5461 C.3     1  UNL1        0.0488
     20 C           1.3769    0.3885   18.8642 C.3     1  UNL1        0.0161
     21 C           0.4578    2.0471   18.5138 C.3     1  UNL1        0.0161
     22 C           0.1114    4.7019   19.2563 C.3     1  UNL1        0.0188
     23 C           0.6889    3.9818   18.0740 C.3     1  UNL1        0.0720
     24 C           7.4208   -4.9997   24.3360 C.ar    1  UNL1        0.0507
     25 C           8.0592   -6.2907   23.9167 C.ar    1  UNL1        0.0160
     26 C           8.1400   -7.4358   24.8821 C.ar    1  UNL1        0.0160
     27 C           7.5823   -7.2900   26.2669 C.ar    1  UNL1        0.0517
     28 C           6.9439   -5.9991   26.6863 C.ar    1  UNL1        0.0160
     29 C           6.8631   -4.8539   25.7209 C.ar    1  UNL1        0.0160
     30 N           7.6631   -8.4352   27.2324 N.am    1  UNL1       -0.2680
     31 C           6.6669   -9.5539   27.1541 C.2     1  UNL1        0.3093
     32 O           5.5899   -9.5274   26.1103 O.2     1  UNL1       -0.2521
     33 N           6.7477  -10.6990   28.1195 N.am    1  UNL1       -0.2508
     34 H           8.3699   -8.4525   27.9174 H       1  UNL1        0.1564
     35 H           7.4545  -10.7164   28.8046 H       1  UNL1        0.1579
     36 C           5.7514  -11.8178   28.0412 C.ar    1  UNL1        0.1771
     37 C           4.3559  -11.7957   28.5908 C.ar    1  UNL1        0.0734
     38 C           3.7179  -13.1193   28.2888 C.ar    1  UNL1        0.1549
     39 O           4.7192  -13.9593   27.5526 O.2     1  UNL1       -0.3565
     40 N           5.9760  -13.1549   27.3996 N.ar    1  UNL1       -0.0621
     41 C           2.3235  -13.5306   28.6582 C.3     1  UNL1        0.0539
     42 C           2.3127  -14.5123   27.5241 C.3     1  UNL1        0.0076
     43 C           2.3343  -12.5489   29.7923 C.3     1  UNL1        0.0076
     44 C           0.9291  -13.9419   29.0275 C.3     1  UNL1        0.0076
@<TRIPOS>BOND
     1    22    23    1
     2    23    12    1
     3    12    13    1
     4    13    14    1
     5    13    15    1
     6    13    16    1
     7    16    17    1
     8    17    11    1
     9    11     5    1
    10     5     6   ar
    11     6     7   ar
    12     7     8   ar
    13     8     1    1
    14     1     2    2
    15     1     3   am
    16     3    24    1
    17    24    25   ar
    18    25    26   ar
    19    26    27   ar
    20    27    30    1
    21    30    31   am
    22    31    32    2
    23    31    33   am
    24    33    36    1
    25    36    37   ar
    26    37    38   ar
    27    38    41    1
    28    41    42    1
    29    41    43    1
    30    41    44    1
    31    38    39   ar
    32    39    40   ar
    33    27    28   ar
    34    28    29   ar
    35     8     9   ar
    36     9    10   ar
    37    17    18    1
    38    18    19    1
    39    19    20    1
    40    19    21    1
    41    19    12    1
    42    10     5   ar
    43    29    24   ar
    44    40    36   ar
    45     3     4    1
    46    30    34    1
    47    33    35    1
@<TRIPOS>MOLECULE
*****
 44 47 0 0 0
SMALL
GASTEIGER

@<TRIPOS>ATOM
      1 C          -2.1128    3.0773   20.8747 C.2     1  UNL1        0.2672
      2 O          -3.3642    3.3649   20.0992 O.2     1  UNL1       -0.2682
      3 N          -2.0302    3.4420   22.3273 N.am    1  UNL1       -0.2791
      4 H          -1.2089    3.2532   22.8362 H       1  UNL1        0.1552
      5 C           1.3935    1.1207   18.8430 C.ar    1  UNL1        0.1575
      6 C           0.8965    2.4525   18.3640 C.ar    1  UNL1        0.0402
      7 C          -0.2722    3.1047   19.0412 C.ar    1  UNL1        0.0269
      8 C          -0.9440    2.4251   20.1974 C.ar    1  UNL1        0.1350
      9 N          -0.4471    1.0934   20.6764 N.ar    1  UNL1       -0.2361
     10 C           0.7217    0.4411   19.9992 C.ar    1  UNL1        0.1357
     11 O           2.5622    0.4685   18.1657 O.3     1  UNL1       -0.4775
     12 N           5.4727   -1.9839   20.5667 N.3     1  UNL1       -0.2774
     13 C           5.5755   -0.4875   20.5649 C.3     1  UNL1        0.0488
     14 C           6.7194   -0.8260   21.4743 C.3     1  UNL1        0.0161
     15 C           6.0756    0.8914   20.8790 C.3     1  UNL1        0.0161
     16 C           4.6054    0.3300   19.7646 C.3     1  UNL1        0.0582
     17 C           3.5324   -0.3489   18.9660 C.3     1  UNL1        0.1686
     18 C           3.4296   -1.8454   18.9678 C.3     1  UNL1        0.0582
     19 C           4.3998   -2.6629   19.7681 C.3     1  UNL1        0.0488
     20 C           3.5628   -3.7578   19.1761 C.3     1  UNL1        0.0161
     21 C           5.0792   -3.8607   20.3628 C.3     1  UNL1        0.0161
     22 C           7.6938   -3.3226   20.7240 C.3     1  UNL1        0.0188
     23 C           6.4429   -2.8014   21.3670 C.3     1  UNL1        0.0720
     24 C          -3.1990    4.0942   23.0044 C.ar    1  UNL1        0.0507
     25 C          -4.1225    3.2772   23.8587 C.ar    1  UNL1        0.0160
     26 C          -5.2913    3.9294   24.5358 C.ar    1  UNL1        0.0160
     27 C          -5.5366    5.3986   24.3588 C.ar    1  UNL1        0.0517
     28 C          -4.6131    6.2156   23.5046 C.ar    1  UNL1        0.0160
     29 C          -3.4442    5.5634   22.8274 C.ar    1  UNL1        0.0160
     30 N          -6.7053    6.0508   25.0360 N.am    1  UNL1       -0.2680
     31 C          -8.0758    5.9431   24.4356 C.2     1  UNL1        0.3093
     32 O          -8.2774    5.1832   23.1582 O.2     1  UNL1       -0.2521
     33 N          -9.2446    6.5953   25.1128 N.am    1  UNL1       -0.2508
     34 H          -6.5730    6.5495   25.8744 H       1  UNL1        0.1564
     35 H          -9.1122    7.0940   25.9512 H       1  UNL1        0.1579
     36 C         -10.6150    6.4877   24.5125 C.ar    1  UNL1        0.1771
     37 C         -11.7020    5.5551   24.9581 C.ar    1  UNL1        0.0734
     38 C         -12.8979    5.7847   24.0822 C.ar    1  UNL1        0.1549
     39 O         -12.5499    6.8594   23.0951 O.2     1  UNL1       -0.3565
     40 N         -11.1389    7.2938   23.3611 N.ar    1  UNL1       -0.0621
     41 C         -14.2111    5.0660   24.1767 C.3     1  UNL1        0.0539
     42 C         -14.2856    5.0057   22.6797 C.3     1  UNL1        0.0076
     43 C         -14.1364    5.1265   25.6736 C.3     1  UNL1        0.0076
     44 C         -15.5242    4.3474   24.2712 C.3     1  UNL1        0.0076
@<TRIPOS>BOND
     1    22    23    1
     2    23    12    1
     3    12    13    1
     4    13    14    1
     5    13    15    1
     6    13    16    1
     7    16    17    1
     8    17    11    1
     9    11     5    1
    10     5     6   ar
    11     6     7   ar
    12     7     8   ar
    13     8     1    1
    14     1     2    2
    15     1     3   am
    16     3    24    1
    17    24    25   ar
    18    25    26   ar
    19    26    27   ar
    20    27    30    1
    21    30    31   am
    22    31    32    2
    23    31    33   am
    24    33    36    1
    25    36    37   ar
    26    37    38   ar
    27    38    41    1
    28    41    42    1
    29    41    43    1
    30    41    44    1
    31    38    39   ar
    32    39    40   ar
    33    27    28   ar
    34    28    29   ar
    35     8     9   ar
    36     9    10   ar
    37    17    18    1
    38    18    19    1
    39    19    20    1
    40    19    21    1
    41    19    12    1
    42    10     5   ar
    43    29    24   ar
    44    40    36   ar
    45     3     4    1
    46    30    34    1
    47    33    35    1
@<TRIPOS>MOLECULE
*****
 44 47 0 0 0
SMALL
GASTEIGER

@<TRIPOS>ATOM
      1 C          -2.1044    3.1352   20.8172 C.2     1  UNL1        0.2672
      2 O          -3.2829    3.5841   20.0051 O.2     1  UNL1       -0.2682
      3 N          -2.0854    3.3610   22.2999 N.am    1  UNL1       -0.2791
      4 H          -1.3119    3.0664   22.8329 H       1  UNL1        0.1552
      5 C           1.3746    1.1107   18.8049 C.ar    1  UNL1        0.1575
      6 C           0.8704    2.4255   18.2879 C.ar    1  UNL1        0.0402
      7 C          -0.2892    3.1003   18.9586 C.ar    1  UNL1        0.0269
      8 C          -0.9447    2.4603   20.1464 C.ar    1  UNL1        0.1350
      9 N          -0.4406    1.1456   20.6634 N.ar    1  UNL1       -0.2361
     10 C           0.7191    0.4708   19.9927 C.ar    1  UNL1        0.1357
     11 O           2.5342    0.4360   18.1341 O.3     1  UNL1       -0.4775
     12 N           5.4345   -1.9984   20.5655 N.3     1  UNL1       -0.2774
     13 C           4.3869   -2.6847   19.7400 C.3     1  UNL1        0.0488
     14 C           5.0725   -3.8785   20.3355 C.3     1  UNL1        0.0161
     15 C           3.5774   -3.7855   19.1213 C.3     1  UNL1        0.0161
     16 C           3.4202   -1.8732   18.9295 C.3     1  UNL1        0.0582
     17 C           3.5010   -0.3755   18.9446 C.3     1  UNL1        0.1686
     18 C           4.5486    0.3107   19.7701 C.3     1  UNL1        0.0582
     19 C           5.5153   -0.5007   20.5806 C.3     1  UNL1        0.0488
     20 C           5.9890    0.8820   20.9178 C.3     1  UNL1        0.0161
     21 C           6.6466   -0.8319   21.5082 C.3     1  UNL1        0.0161
     22 C           7.6626   -3.3225   20.7464 C.3     1  UNL1        0.0188
     23 C           6.4013   -2.8099   21.3760 C.3     1  UNL1        0.0720
     24 C          -3.2450    4.0358   22.9706 C.ar    1  UNL1        0.0507
     25 C          -3.4530    5.5119   22.8032 C.ar    1  UNL1        0.0160
     26 C          -4.6127    6.1867   23.4739 C.ar    1  UNL1        0.0160
     27 C          -5.5644    5.3855   24.3120 C.ar    1  UNL1        0.0517
     28 C          -5.3564    3.9095   24.4793 C.ar    1  UNL1        0.0160
     29 C          -4.1967    3.2346   23.8086 C.ar    1  UNL1        0.0160
     30 N          -6.7240    6.0603   24.9826 N.am    1  UNL1       -0.2680
     31 C          -8.0995    5.9481   24.3947 C.2     1  UNL1        0.3093
     32 O          -8.3152    5.1611   23.1362 O.2     1  UNL1       -0.2521
     33 N          -9.2591    6.6229   25.0654 N.am    1  UNL1       -0.2508
     34 H          -6.5824    6.5769   25.8087 H       1  UNL1        0.1564
     35 H          -9.1175    7.1395   25.8915 H       1  UNL1        0.1579
     36 C         -10.6346    6.5107   24.4775 C.ar    1  UNL1        0.1771
     37 C         -11.7117    5.5689   24.9277 C.ar    1  UNL1        0.0734
     38 C         -12.9172    5.7967   24.0646 C.ar    1  UNL1        0.1549
     39 O         -12.5851    6.8794   23.0810 O.2     1  UNL1       -0.3565
     40 N         -11.1743    7.3207   23.3362 N.ar    1  UNL1       -0.0621
     41 C         -14.2251    5.0696   24.1672 C.3     1  UNL1        0.0539
     42 C         -14.1201    5.0918   25.6633 C.3     1  UNL1        0.0076
     43 C         -14.3301    5.0474   22.6710 C.3     1  UNL1        0.0076
     44 C         -15.5330    4.3424   24.2697 C.3     1  UNL1        0.0076
@<TRIPOS>BOND
     1    22    23    1
     2    23    12    1
     3    12    13    1
     4    13    14    1
     5    13    15    1
     6    13    16    1
     7    16    17    1
     8    17    11    1
     9    11     5    1
    10     5     6   ar
    11     6     7   ar
    12     7     8   ar
    13     8     1    1
    14     1     2    2
    15     1     3   am
    16     3    24    1
    17    24    25   ar
    18    25    26   ar
    19    26    27   ar
    20    27    30    1
    21    30    31   am
    22    31    32    2
    23    31    33   am
    24    33    36    1
    25    36    37   ar
    26    37    38   ar
    27    38    41    1
    28    41    42    1
    29    41    43    1
    30    41    44    1
    31    38    39   ar
    32    39    40   ar
    33    27    28   ar
    34    28    29   ar
    35     8     9   ar
    36     9    10   ar
    37    17    18    1
    38    18    19    1
    39    19    20    1
    40    19    21    1
    41    19    12    1
    42    10     5   ar
    43    29    24   ar
    44    40    36   ar
    45     3     4    1
    46    30    34    1
    47    33    35    1
@<TRIPOS>MOLECULE
*****
 44 47 0 0 0
SMALL
GASTEIGER

@<TRIPOS>ATOM
      1 C           5.8111   -1.9659   30.3187 C.2     1  UNL1        0.2672
      2 O           4.9672   -1.2593   29.2996 O.2     1  UNL1       -0.2682
      3 N           6.7834   -3.0224   29.8849 N.am    1  UNL1       -0.2791
      4 H           7.3374   -3.4861   30.5537 H       1  UNL1        0.1552
      5 C           5.4258   -0.9158   34.6775 C.ar    1  UNL1        0.1575
      6 C           4.3237   -1.6618   33.9855 C.ar    1  UNL1        0.0402
      7 C           4.4522   -2.0118   32.5326 C.ar    1  UNL1        0.0269
      8 C           5.6827   -1.6158   31.7717 C.ar    1  UNL1        0.1350
      9 N           6.7848   -0.8698   32.4636 N.ar    1  UNL1       -0.2361
     10 C           6.6564   -0.5198   33.9166 C.ar    1  UNL1        0.1357
     11 O           5.2974   -0.5658   36.1304 O.3     1  UNL1       -0.4775
     12 N           3.1762    3.2088   37.3566 N.3     1  UNL1       -0.2774
     13 C           4.2607    3.2603   36.3216 C.3     1  UNL1        0.0488
     14 C           3.8850    4.7114   36.3776 C.3     1  UNL1        0.0161
     15 C           5.2147    3.8157   35.3061 C.3     1  UNL1        0.0161
     16 C           4.9677    2.0021   35.9129 C.3     1  UNL1        0.0582
     17 C           4.5903    0.6924   36.5391 C.3     1  UNL1        0.1686
     18 C           3.5058    0.6409   37.5741 C.3     1  UNL1        0.0582
     19 C           2.7988    1.8991   37.9828 C.3     1  UNL1        0.0488
     20 C           2.0904    0.9066   38.8564 C.3     1  UNL1        0.0161
     21 C           1.8456    2.8125   38.6950 C.3     1  UNL1        0.0161
     22 C           1.2842    4.9496   36.9823 C.3     1  UNL1        0.0188
     23 C           2.4691    4.4669   37.7653 C.3     1  UNL1        0.0720
     24 C           6.9118   -3.3724   28.4320 C.ar    1  UNL1        0.0507
     25 C           7.4763   -2.3726   27.4667 C.ar    1  UNL1        0.0160
     26 C           7.6047   -2.7226   26.0138 C.ar    1  UNL1        0.0160
     27 C           7.1686   -4.0724   25.5261 C.ar    1  UNL1        0.0517
     28 C           6.6041   -5.0722   26.4913 C.ar    1  UNL1        0.0160
     29 C           6.4757   -4.7222   27.9443 C.ar    1  UNL1        0.0160
     30 N           7.2969   -4.4223   24.0732 N.am    1  UNL1       -0.2680
     31 C           6.2711   -3.9382   23.0916 C.2     1  UNL1        0.3093
     32 O           5.1170   -3.1041   23.5630 O.2     1  UNL1       -0.2521
     33 N           6.3995   -4.2882   21.6387 N.am    1  UNL1       -0.2508
     34 H           8.0544   -4.9698   23.7638 H       1  UNL1        0.1564
     35 H           7.1570   -4.8357   21.3293 H       1  UNL1        0.1579
     36 C           5.3737   -3.8041   20.6571 C.ar    1  UNL1        0.1771
     37 C           5.0997   -2.3728   20.3019 C.ar    1  UNL1        0.0734
     38 C           3.9985   -2.3504   19.2837 C.ar    1  UNL1        0.1549
     39 O           3.5918   -3.7680   19.0096 O.2     1  UNL1       -0.3565
     40 N           4.4418   -4.6665   19.8584 N.ar    1  UNL1       -0.0621
     41 C           3.4077   -1.1256   18.6507 C.3     1  UNL1        0.0539
     42 C           2.4860   -0.9644   19.8232 C.3     1  UNL1        0.0076
     43 C           4.3293   -1.2869   17.4783 C.3     1  UNL1        0.0076
     44 C           2.8169    0.0992   18.0178 C.3     1  UNL1        0.0076
@<TRIPOS>BOND
     1    22    23    1
     2    23    12    1
     3    12    13    1
     4    13    14    1
     5    13    15    1
     6    13    16    1
     7    16    17    1
     8    17    11    1
     9    11     5    1
    10     5     6   ar
    11     6     7   ar
    12     7     8   ar
    13     8     1    1
    14     1     2    2
    15     1     3   am
    16     3    24    1
    17    24    25   ar
    18    25    26   ar
    19    26    27   ar
    20    27    30    1
    21    30    31   am
    22    31    32    2
    23    31    33   am
    24    33    36    1
    25    36    37   ar
    26    37    38   ar
    27    38    41    1
    28    41    42    1
    29    41    43    1
    30    41    44    1
    31    38    39   ar
    32    39    40   ar
    33    27    28   ar
    34    28    29   ar
    35     8     9   ar
    36     9    10   ar
    37    17    18    1
    38    18    19    1
    39    19    20    1
    40    19    21    1
    41    19    12    1
    42    10     5   ar
    43    29    24   ar
    44    40    36   ar
    45     3     4    1
    46    30    34    1
    47    33    35    1
@<TRIPOS>MOLECULE
*****
 44 47 0 0 0
SMALL
GASTEIGER

@<TRIPOS>ATOM
      1 C           6.8435   -2.6931   27.4715 C.2     1  UNL1        0.2672
      2 O           8.2655   -2.7018   27.9490 O.2     1  UNL1       -0.2682
      3 N           5.7394   -2.3076   28.4108 N.am    1  UNL1       -0.2791
      4 H           4.8061   -2.3018   28.0974 H       1  UNL1        0.1552
      5 C           5.8902   -3.8234   23.2213 C.ar    1  UNL1        0.1575
      6 C           6.9239   -4.5936   23.9885 C.ar    1  UNL1        0.0402
      7 C           7.2416   -4.2168   25.4052 C.ar    1  UNL1        0.0269
      8 C           6.5258   -3.0698   26.0548 C.ar    1  UNL1        0.1350
      9 N           5.4921   -2.2997   25.2877 N.ar    1  UNL1       -0.2361
     10 C           5.1744   -2.6764   23.8710 C.ar    1  UNL1        0.1357
     11 O           5.5725   -4.2002   21.8047 O.3     1  UNL1       -0.4775
     12 N           5.0576   -0.9973   18.6859 N.3     1  UNL1       -0.2774
     13 C           6.3987   -1.6376   18.8892 C.3     1  UNL1        0.0488
     14 C           6.7333   -0.6764   17.7873 C.3     1  UNL1        0.0161
     15 C           7.8561   -1.9440   18.7097 C.3     1  UNL1        0.0161
     16 C           6.5704   -2.7052   19.9287 C.3     1  UNL1        0.0582
     17 C           5.4008   -3.1326   20.7651 C.3     1  UNL1        0.1686
     18 C           4.0597   -2.4923   20.5619 C.3     1  UNL1        0.0582
     19 C           3.8881   -1.4247   19.5223 C.3     1  UNL1        0.0488
     20 C           2.4903   -1.4891   20.0628 C.3     1  UNL1        0.0161
     21 C           3.2309   -0.3795   18.6705 C.3     1  UNL1        0.0161
     22 C           5.0418    1.5143   18.0214 C.3     1  UNL1        0.0188
     23 C           4.8859    0.0703   17.6464 C.3     1  UNL1        0.0720
     24 C           6.0572   -1.9308   29.8274 C.ar    1  UNL1        0.0507
     25 C           6.1092   -2.9875   30.8909 C.ar    1  UNL1        0.0160
     26 C           6.4270   -2.6107   32.3076 C.ar    1  UNL1        0.0160
     27 C           6.6929   -1.1774   32.6609 C.ar    1  UNL1        0.0517
     28 C           6.6410   -0.1208   31.5975 C.ar    1  UNL1        0.0160
     29 C           6.3231   -0.4975   30.1807 C.ar    1  UNL1        0.0160
     30 N           7.0107   -0.8006   34.0775 N.am    1  UNL1       -0.2680
     31 C           6.0153   -0.0252   34.8888 C.2     1  UNL1        0.3093
     32 O           4.7021    0.3734   34.2833 O.2     1  UNL1       -0.2521
     33 N           6.3331    0.3516   36.3054 N.am    1  UNL1       -0.2508
     34 H           7.8726   -1.0622   34.4750 H       1  UNL1        0.1564
     35 H           7.1950    0.0899   36.7029 H       1  UNL1        0.1579
     36 C           5.3378    1.1270   37.1167 C.ar    1  UNL1        0.1771
     37 C           3.9213    0.7209   37.3971 C.ar    1  UNL1        0.0734
     38 C           3.2923    1.7875   38.2436 C.ar    1  UNL1        0.1549
     39 O           4.3200    2.8529   38.4864 O.2     1  UNL1       -0.3565
     40 N           5.5843    2.4446   37.7898 N.ar    1  UNL1       -0.0621
     41 C           1.8829    1.7887   38.7573 C.3     1  UNL1        0.0539
     42 C           2.0804    0.4050   39.3018 C.3     1  UNL1        0.0076
     43 C           1.6856    3.1723   38.2127 C.3     1  UNL1        0.0076
     44 C           0.4737    1.7898   39.2709 C.3     1  UNL1        0.0076
@<TRIPOS>BOND
     1    22    23    1
     2    23    12    1
     3    12    13    1
     4    13    14    1
     5    13    15    1
     6    13    16    1
     7    16    17    1
     8    17    11    1
     9    11     5    1
    10     5     6   ar
    11     6     7   ar
    12     7     8   ar
    13     8     1    1
    14     1     2    2
    15     1     3   am
    16     3    24    1
    17    24    25   ar
    18    25    26   ar
    19    26    27   ar
    20    27    30    1
    21    30    31   am
    22    31    32    2
    23    31    33   am
    24    33    36    1
    25    36    37   ar
    26    37    38   ar
    27    38    41    1
    28    41    42    1
    29    41    43    1
    30    41    44    1
    31    38    39   ar
    32    39    40   ar
    33    27    28   ar
    34    28    29   ar
    35     8     9   ar
    36     9    10   ar
    37    17    18    1
    38    18    19    1
    39    19    20    1
    40    19    21    1
    41    19    12    1
    42    10     5   ar
    43    29    24   ar
    44    40    36   ar
    45     3     4    1
    46    30    34    1
    47    33    35    1
@<TRIPOS>MOLECULE
*****
 44 47 0 0 0
SMALL
GASTEIGER

@<TRIPOS>ATOM
      1 C           7.0270   -2.7014   27.8093 C.2     1  UNL1        0.2672
      2 O           8.4287   -2.7604   28.3402 O.2     1  UNL1       -0.2682
      3 N           5.9097   -2.2307   28.6925 N.am    1  UNL1       -0.2791
      4 H           4.9898   -2.1919   28.3440 H       1  UNL1        0.1552
      5 C           6.1740   -3.9365   23.5670 C.ar    1  UNL1        0.1575
      6 C           5.4648   -2.7560   24.1615 C.ar    1  UNL1        0.0402
      7 C           5.7491   -2.3443   25.5756 C.ar    1  UNL1        0.0269
      8 C           6.7427   -3.1131   26.3952 C.ar    1  UNL1        0.1350
      9 N           7.4519   -4.2936   25.8007 N.ar    1  UNL1       -0.2361
     10 C           7.1676   -4.7053   24.3866 C.ar    1  UNL1        0.1357
     11 O           5.8897   -4.3482   22.1529 O.3     1  UNL1       -0.4775
     12 N           5.0530   -1.2234   19.0247 N.3     1  UNL1       -0.2774
     13 C           4.0019   -1.5722   20.0363 C.3     1  UNL1        0.0488
     14 C           3.2695   -0.5255   19.2502 C.3     1  UNL1        0.0161
     15 C           2.6964   -1.5575   20.7749 C.3     1  UNL1        0.0161
     16 C           4.2808   -2.6138   21.0791 C.3     1  UNL1        0.0582
     17 C           5.6108   -3.3066   21.1102 C.3     1  UNL1        0.1686
     18 C           6.6619   -2.9578   20.0985 C.3     1  UNL1        0.0582
     19 C           6.3830   -1.9163   19.0558 C.3     1  UNL1        0.0488
     20 C           7.7853   -2.2928   18.6794 C.3     1  UNL1        0.0161
     21 C           6.5912   -1.0055   17.8823 C.3     1  UNL1        0.0161
     22 C           4.0763   -0.5621   16.7098 C.3     1  UNL1        0.0188
     23 C           4.7741   -0.1818   17.9820 C.3     1  UNL1        0.0720
     24 C           6.1941   -1.8190   30.1065 C.ar    1  UNL1        0.0507
     25 C           6.5054   -0.3860   30.4223 C.ar    1  UNL1        0.0160
     26 C           6.7897    0.0257   31.8364 C.ar    1  UNL1        0.0160
     27 C           6.7629   -0.9955   32.9347 C.ar    1  UNL1        0.0517
     28 C           6.4516   -2.4285   32.6190 C.ar    1  UNL1        0.0160
     29 C           6.1672   -2.8402   31.2048 C.ar    1  UNL1        0.0160
     30 N           7.0472   -0.5838   34.3487 N.am    1  UNL1       -0.2680
     31 C           6.0019    0.1415   35.1434 C.2     1  UNL1        0.3093
     32 O           4.6723    0.4551   34.5239 O.2     1  UNL1       -0.2521
     33 N           6.2863    0.5532   36.5574 N.am    1  UNL1       -0.2508
     34 H           7.9199   -0.7896   34.7553 H       1  UNL1        0.1564
     35 H           7.1590    0.3474   36.9640 H       1  UNL1        0.1579
     36 C           5.2410    1.2785   37.3521 C.ar    1  UNL1        0.1771
     37 C           3.8193    0.8413   37.5454 C.ar    1  UNL1        0.0734
     38 C           3.1336    1.8609   38.4056 C.ar    1  UNL1        0.1549
     39 O           4.1316    2.9284   38.7441 O.2     1  UNL1       -0.3565
     40 N           5.4341    2.5685   38.0929 N.ar    1  UNL1       -0.0621
     41 C           1.7013    1.8203   38.8496 C.3     1  UNL1        0.0539
     42 C           1.5049    3.2186   38.3436 C.3     1  UNL1        0.0076
     43 C           1.8979    0.4219   39.3556 C.3     1  UNL1        0.0076
     44 C           0.2692    1.7796   39.2935 C.3     1  UNL1        0.0076
@<TRIPOS>BOND
     1    22    23    1
     2    23    12    1
     3    12    13    1
     4    13    14    1
     5    13    15    1
     6    13    16    1
     7    16    17    1
     8    17    11    1
     9    11     5    1
    10     5     6   ar
    11     6     7   ar
    12     7     8   ar
    13     8     1    1
    14     1     2    2
    15     1     3   am
    16     3    24    1
    17    24    25   ar
    18    25    26   ar
    19    26    27   ar
    20    27    30    1
    21    30    31   am
    22    31    32    2
    23    31    33   am
    24    33    36    1
    25    36    37   ar
    26    37    38   ar
    27    38    41    1
    28    41    42    1
    29    41    43    1
    30    41    44    1
    31    38    39   ar
    32    39    40   ar
    33    27    28   ar
    34    28    29   ar
    35     8     9   ar
    36     9    10   ar
    37    17    18    1
    38    18    19    1
    39    19    20    1
    40    19    21    1
    41    19    12    1
    42    10     5   ar
    43    29    24   ar
    44    40    36   ar
    45     3     4    1
    46    30    34    1
    47    33    35    1
@<TRIPOS>MOLECULE
*****
 44 47 0 0 0
SMALL
GASTEIGER

@<TRIPOS>ATOM
      1 C           0.9778    1.9680   25.6069 C.2     1  UNL1        0.2672
      2 O           0.4349    3.3317   25.9164 O.2     1  UNL1       -0.2682
      3 N           1.4246    1.0681   26.7207 N.am    1  UNL1       -0.2791
      4 H           1.7809    0.1731   26.5175 H       1  UNL1        0.1552
      5 C           1.2656    0.5769   21.3370 C.ar    1  UNL1        0.1575
      6 C           0.2388    1.5992   21.7252 C.ar    1  UNL1        0.0402
      7 C           0.1429    2.0628   23.1484 C.ar    1  UNL1        0.0269
      8 C           1.0737    1.5043   24.1836 C.ar    1  UNL1        0.1350
      9 N           2.1005    0.4820   23.7954 N.ar    1  UNL1       -0.2361
     10 C           2.1965    0.0183   22.3721 C.ar    1  UNL1        0.1357
     11 O           1.3615    0.1132   19.9137 O.3     1  UNL1       -0.4775
     12 N           5.2381   -1.5486   18.3450 N.3     1  UNL1       -0.2774
     13 C           4.2103   -2.4697   18.9324 C.3     1  UNL1        0.0488
     14 C           5.2737   -3.4635   18.5698 C.3     1  UNL1        0.0161
     15 C           3.5518   -3.7360   19.3938 C.3     1  UNL1        0.0161
     16 C           2.9181   -1.9158   19.4553 C.3     1  UNL1        0.0582
     17 C           2.6537   -0.4407   19.3908 C.3     1  UNL1        0.1686
     18 C           3.6815    0.4804   18.8034 C.3     1  UNL1        0.0582
     19 C           4.9737   -0.0735   18.2806 C.3     1  UNL1        0.0488
     20 C           5.1834    1.3852   18.0007 C.3     1  UNL1        0.0161
     21 C           6.3387   -0.1208   17.6605 C.3     1  UNL1        0.0161
     22 C           7.7199   -2.2142   18.7289 C.3     1  UNL1        0.0188
     23 C           6.5303   -2.1025   17.8221 C.3     1  UNL1        0.0720
     24 C           1.3287    1.5319   28.1439 C.ar    1  UNL1        0.0507
     25 C           0.2162    1.0377   29.0204 C.ar    1  UNL1        0.0160
     26 C           0.1202    1.5014   30.4436 C.ar    1  UNL1        0.0160
     27 C           1.1367    2.4594   30.9905 C.ar    1  UNL1        0.0517
     28 C           2.2491    2.9536   30.1141 C.ar    1  UNL1        0.0160
     29 C           2.3452    2.4898   28.6907 C.ar    1  UNL1        0.0160
     30 N           1.0407    2.9231   32.4137 N.am    1  UNL1       -0.2680
     31 C           1.9718    2.3649   33.4489 C.2     1  UNL1        0.3093
     32 O           2.9989    1.3430   33.0607 O.2     1  UNL1       -0.2521
     33 N           1.8759    2.8287   34.8721 N.am    1  UNL1       -0.2508
     34 H           0.3666    3.5939   32.6685 H       1  UNL1        0.1564
     35 H           1.2018    3.4994   35.1269 H       1  UNL1        0.1579
     36 C           2.8070    2.2705   35.9073 C.ar    1  UNL1        0.1771
     37 C           4.3044    2.2441   35.8238 C.ar    1  UNL1        0.0734
     38 C           4.8270    1.5980   37.0725 C.ar    1  UNL1        0.1549
     39 O           3.6526    1.2250   37.9278 O.2     1  UNL1       -0.3565
     40 N           2.4040    1.6406   37.2076 N.ar    1  UNL1       -0.0621
     41 C           6.2707    1.3657   37.4072 C.3     1  UNL1        0.0539
     42 C           6.2726    2.6020   38.2566 C.3     1  UNL1        0.0076
     43 C           6.2686    0.1293   36.5578 C.3     1  UNL1        0.0076
     44 C           7.7142    1.1333   37.7419 C.3     1  UNL1        0.0076
@<TRIPOS>BOND
     1    22    23    1
     2    23    12    1
     3    12    13    1
     4    13    14    1
     5    13    15    1
     6    13    16    1
     7    16    17    1
     8    17    11    1
     9    11     5    1
    10     5     6   ar
    11     6     7   ar
    12     7     8   ar
    13     8     1    1
    14     1     2    2
    15     1     3   am
    16     3    24    1
    17    24    25   ar
    18    25    26   ar
    19    26    27   ar
    20    27    30    1
    21    30    31   am
    22    31    32    2
    23    31    33   am
    24    33    36    1
    25    36    37   ar
    26    37    38   ar
    27    38    41    1
    28    41    42    1
    29    41    43    1
    30    41    44    1
    31    38    39   ar
    32    39    40   ar
    33    27    28   ar
    34    28    29   ar
    35     8     9   ar
    36     9    10   ar
    37    17    18    1
    38    18    19    1
    39    19    20    1
    40    19    21    1
    41    19    12    1
    42    10     5   ar
    43    29    24   ar
    44    40    36   ar
    45     3     4    1
    46    30    34    1
    47    33    35    1
@<TRIPOS>MOLECULE
*****
 44 47 0 0 0
SMALL
GASTEIGER

@<TRIPOS>ATOM
      1 C           2.1787    2.1576   27.2480 C.2     1  UNL1        0.2672
      2 O           3.4083    1.9002   28.0676 O.2     1  UNL1       -0.2682
      3 N           0.9443    2.7066   27.8998 N.am    1  UNL1       -0.2791
      4 H           0.1372    2.8756   27.3619 H       1  UNL1        0.1552
      5 C           2.1930    1.2829   22.8338 C.ar    1  UNL1        0.1575
      6 C           0.9491    1.0529   23.6400 C.ar    1  UNL1        0.0402
      7 C           0.9444    1.3445   25.1114 C.ar    1  UNL1        0.0269
      8 C           2.1835    1.8661   25.7766 C.ar    1  UNL1        0.1350
      9 N           3.4274    2.0960   24.9705 N.ar    1  UNL1       -0.2361
     10 C           3.4322    1.8044   23.4991 C.ar    1  UNL1        0.1357
     11 O           2.1978    0.9913   21.3625 O.3     1  UNL1       -0.4775
     12 N           4.5275   -2.5143   19.7709 N.3     1  UNL1       -0.2774
     13 C           4.0518   -1.4429   18.8352 C.3     1  UNL1        0.0488
     14 C           4.7470   -2.3485   17.8623 C.3     1  UNL1        0.0161
     15 C           3.8175   -0.6859   17.5615 C.3     1  UNL1        0.0161
     16 C           3.2752   -0.2743   19.3657 C.3     1  UNL1        0.0582
     17 C           2.9744   -0.1772   20.8320 C.3     1  UNL1        0.1686
     18 C           3.4500   -1.2487   21.7677 C.3     1  UNL1        0.0582
     19 C           4.2266   -2.4172   21.2372 C.3     1  UNL1        0.0488
     20 C           4.1911   -2.7683   22.6951 C.3     1  UNL1        0.0161
     21 C           4.9908   -3.7077   21.2131 C.3     1  UNL1        0.0161
     22 C           4.5844   -4.9200   18.7915 C.3     1  UNL1        0.0188
     23 C           5.3040   -3.6829   19.2404 C.3     1  UNL1        0.0720
     24 C           0.9395    2.9982   29.3712 C.ar    1  UNL1        0.0507
     25 C           1.2121    4.3896   29.8610 C.ar    1  UNL1        0.0160
     26 C           1.2074    4.6811   31.3323 C.ar    1  UNL1        0.0160
     27 C           0.9300    3.5813   32.3139 C.ar    1  UNL1        0.0517
     28 C           0.6574    2.1900   31.8242 C.ar    1  UNL1        0.0160
     29 C           0.6622    1.8984   30.3528 C.ar    1  UNL1        0.0160
     30 N           0.9252    3.8729   33.7853 N.am    1  UNL1       -0.2680
     31 C           1.9209    3.2035   34.6858 C.2     1  UNL1        0.3093
     32 O           2.9212    2.2426   34.1148 O.2     1  UNL1       -0.2521
     33 N           1.9161    3.4951   36.1571 N.am    1  UNL1       -0.2508
     34 H           0.2687    4.5036   34.1600 H       1  UNL1        0.1564
     35 H           1.2595    4.1258   36.5318 H       1  UNL1        0.1579
     36 C           2.9117    2.8257   37.0576 C.ar    1  UNL1        0.1771
     37 C           4.3402    3.2389   37.2541 C.ar    1  UNL1        0.0734
     38 C           4.9649    2.2942   38.2376 C.ar    1  UNL1        0.1549
     39 O           3.9224    1.2971   38.6490 O.2     1  UNL1       -0.3565
     40 N           2.6534    1.6256   37.9196 N.ar    1  UNL1       -0.0621
     41 C           6.3831    2.3387   38.7243 C.3     1  UNL1        0.0539
     42 C           6.8435    1.7170   37.4392 C.3     1  UNL1        0.0076
     43 C           5.9225    2.9604   40.0093 C.3     1  UNL1        0.0076
     44 C           7.8011    2.3832   39.2110 C.3     1  UNL1        0.0076
@<TRIPOS>BOND
     1    22    23    1
     2    23    12    1
     3    12    13    1
     4    13    14    1
     5    13    15    1
     6    13    16    1
     7    16    17    1
     8    17    11    1
     9    11     5    1
    10     5     6   ar
    11     6     7   ar
    12     7     8   ar
    13     8     1    1
    14     1     2    2
    15     1     3   am
    16     3    24    1
    17    24    25   ar
    18    25    26   ar
    19    26    27   ar
    20    27    30    1
    21    30    31   am
    22    31    32    2
    23    31    33   am
    24    33    36    1
    25    36    37   ar
    26    37    38   ar
    27    38    41    1
    28    41    42    1
    29    41    43    1
    30    41    44    1
    31    38    39   ar
    32    39    40   ar
    33    27    28   ar
    34    28    29   ar
    35     8     9   ar
    36     9    10   ar
    37    17    18    1
    38    18    19    1
    39    19    20    1
    40    19    21    1
    41    19    12    1
    42    10     5   ar
    43    29    24   ar
    44    40    36   ar
    45     3     4    1
    46    30    34    1
    47    33    35    1
