@<TRIPOS>MOLECULE
*****
 27 30 0 0 0
SMALL
GASTEIGER

@<TRIPOS>ATOM
      1 C          -7.9905  -15.2149   24.2739 C.3     1  UNL1        0.0327
      2 C          -6.8377  -16.0434   23.7896 C.2     1  UNL1       -0.0013
      3 C          -5.3986  -15.6213   23.7623 C.2     1  UNL1        0.0943
      4 N          -4.5930  -16.7565   23.2034 N.2     1  UNL1       -0.2449
      5 C          -5.5342  -17.8802   22.8852 C.2     1  UNL1        0.0999
      6 C          -5.3073  -19.2478   22.3123 C.3     1  UNL1        0.2160
      7 N          -6.4677  -20.1747   22.1017 N.2     1  UNL1       -0.2447
      8 C          -7.8549  -19.7341   22.4640 C.2     1  UNL1        0.1000
      9 C          -8.0819  -18.3664   23.0369 C.2     1  UNL1        0.0733
     10 C          -6.9215  -17.4395   23.2474 C.2     1  UNL1        0.0205
     11 C          -9.4692  -17.9258   23.3991 C.2     1  UNL1        0.2507
     12 O          -9.8723  -17.8271   24.8405 O.2     1  UNL1       -0.2698
     13 N         -10.4533  -17.5838   22.3200 N.am    1  UNL1       -0.2709
     14 C         -10.0501  -17.6825   20.8785 C.3     1  UNL1        0.1258
     15 C         -11.0343  -17.3405   19.7994 C.3     1  UNL1        0.1637
     16 O         -12.4216  -16.8999   20.1618 O.3     1  UNL1       -0.3501
     17 C         -12.8247  -16.8013   21.6032 C.3     1  UNL1        0.1637
     18 C         -11.8406  -17.1432   22.6823 C.3     1  UNL1        0.1258
     19 N          -3.9200  -19.6885   21.9500 N.pl3   1  UNL1       -0.3108
     20 H          -3.4972  -20.4327   22.4364 H       1  UNL1        0.1489
     21 C          -3.1769  -18.9953   20.8467 C.ar    1  UNL1        0.0470
     22 C          -3.8838  -18.6457   19.5707 C.ar    1  UNL1        0.0144
     23 C          -3.1408  -17.9525   18.4674 C.ar    1  UNL1        0.0021
     24 C          -1.6908  -17.6088   18.6401 C.ar    1  UNL1        0.0115
     25 C          -0.9841  -17.9583   19.9161 C.ar    1  UNL1        0.0589
     26 CL          0.4658  -17.6147   20.0888 Cl      1  UNL1       -0.0822
     27 C          -1.7271  -18.6516   21.0195 C.ar    1  UNL1        0.0257
@<TRIPOS>BOND
     1     1     2    1
     2     2     3    2
     3     3     4    1
     4     4     5    2
     5     5     6    1
     6     6    19    1
     7    19    21    1
     8    21    22   ar
     9    22    23   ar
    10    23    24   ar
    11    24    25   ar
    12    25    26    1
    13    25    27   ar
    14     6     7    1
    15     7     8    2
    16     8     9    1
    17     9    11    1
    18    11    12    2
    19    11    13   am
    20    13    14    1
    21    14    15    1
    22    15    16    1
    23    16    17    1
    24    17    18    1
    25     9    10    2
    26    10     2    1
    27    10     5    1
    28    27    21   ar
    29    18    13    1
    30    19    20    1
@<TRIPOS>MOLECULE
*****
 27 30 0 0 0
SMALL
GASTEIGER

@<TRIPOS>ATOM
      1 C          -8.7055  -15.8102   23.3651 C.3     1  UNL1        0.0327
      2 C          -7.6057  -16.7434   22.9532 C.2     1  UNL1       -0.0013
      3 C          -6.2027  -16.7413   23.4838 C.2     1  UNL1        0.0943
      4 N          -5.4457  -17.8392   22.7970 N.2     1  UNL1       -0.2449
      5 C          -6.3809  -18.5198   21.8419 C.2     1  UNL1        0.0999
      6 C          -6.1894  -19.6687   20.8967 C.3     1  UNL1        0.2160
      7 N          -7.3329  -20.1403   20.0482 N.2     1  UNL1       -0.2447
      8 C          -8.6677  -19.4632   20.1448 C.2     1  UNL1        0.1000
      9 C          -8.8593  -18.3142   21.0899 C.2     1  UNL1        0.0733
     10 C          -7.7159  -17.8425   21.9385 C.2     1  UNL1        0.0205
     11 C         -10.1943  -17.6370   21.1865 C.2     1  UNL1        0.2507
     12 O         -10.6141  -16.6535   20.1346 O.2     1  UNL1       -0.2698
     13 N         -11.1093  -17.9433   22.3349 N.am    1  UNL1       -0.2709
     14 C         -10.6895  -18.9268   23.3868 C.3     1  UNL1        0.1258
     15 C         -11.6046  -19.2330   24.5351 C.3     1  UNL1        0.1637
     16 O         -12.9396  -18.5558   24.6316 O.3     1  UNL1       -0.3501
     17 C         -13.3594  -17.5723   23.5797 C.3     1  UNL1        0.1637
     18 C         -12.4443  -17.2661   22.4313 C.3     1  UNL1        0.1258
     19 N          -4.8545  -20.3459   20.8001 N.pl3   1  UNL1       -0.3108
     20 H          -4.7897  -21.3229   20.9023 H       1  UNL1        0.1489
     21 C          -3.6184  -19.5345   20.5480 C.ar    1  UNL1        0.0470
     22 C          -2.5689  -19.4160   21.6131 C.ar    1  UNL1        0.0144
     23 C          -1.3327  -18.6046   21.3609 C.ar    1  UNL1        0.0021
     24 C          -1.1461  -17.9118   20.0436 C.ar    1  UNL1        0.0115
     25 C          -2.1956  -18.0304   18.9785 C.ar    1  UNL1        0.0589
     26 CL         -2.0090  -17.3376   17.6613 Cl      1  UNL1       -0.0822
     27 C          -3.4318  -18.8418   19.2307 C.ar    1  UNL1        0.0257
@<TRIPOS>BOND
     1     1     2    1
     2     2     3    2
     3     3     4    1
     4     4     5    2
     5     5     6    1
     6     6    19    1
     7    19    21    1
     8    21    22   ar
     9    22    23   ar
    10    23    24   ar
    11    24    25   ar
    12    25    26    1
    13    25    27   ar
    14     6     7    1
    15     7     8    2
    16     8     9    1
    17     9    11    1
    18    11    12    2
    19    11    13   am
    20    13    14    1
    21    14    15    1
    22    15    16    1
    23    16    17    1
    24    17    18    1
    25     9    10    2
    26    10     2    1
    27    10     5    1
    28    27    21   ar
    29    18    13    1
    30    19    20    1
@<TRIPOS>MOLECULE
*****
 27 30 0 0 0
SMALL
GASTEIGER

@<TRIPOS>ATOM
      1 C          -8.9838  -16.5524   25.4048 C.3     1  UNL1        0.0327
      2 C          -8.1431  -16.7469   24.1779 C.2     1  UNL1       -0.0013
      3 C          -7.0567  -15.8302   23.6990 C.2     1  UNL1        0.0943
      4 N          -6.4833  -16.4091   22.4396 N.2     1  UNL1       -0.2449
      5 C          -7.2152  -17.6837   22.1402 C.2     1  UNL1        0.0999
      6 C          -7.0801  -18.6811   21.0281 C.3     1  UNL1        0.2160
      7 N          -7.9709  -19.8874   20.9903 N.2     1  UNL1       -0.2447
      8 C          -8.9966  -20.0962   22.0645 C.2     1  UNL1        0.1000
      9 C          -9.1317  -19.0987   23.1767 C.2     1  UNL1        0.0733
     10 C          -8.2410  -17.8925   23.2145 C.2     1  UNL1        0.0205
     11 C         -10.1576  -19.3076   24.2510 C.2     1  UNL1        0.2507
     12 O          -9.7969  -20.0632   25.4956 O.2     1  UNL1       -0.2698
     13 N         -11.5439  -18.7610   24.0807 N.am    1  UNL1       -0.2709
     14 C         -11.9046  -18.0054   22.8361 C.3     1  UNL1        0.1258
     15 C         -13.2910  -17.4588   22.6658 C.3     1  UNL1        0.1637
     16 O         -14.3168  -17.6677   23.7401 O.3     1  UNL1       -0.3501
     17 C         -13.9561  -18.4233   24.9847 C.3     1  UNL1        0.1637
     18 C         -12.5697  -18.9699   25.1550 C.3     1  UNL1        0.1258
     19 N          -6.0543  -18.4723   19.9538 N.pl3   1  UNL1       -0.3108
     20 H          -6.3328  -18.1688   19.0596 H       1  UNL1        0.1489
     21 C          -4.6043  -18.7260   20.2418 C.ar    1  UNL1        0.0470
     22 C          -4.2079  -19.5262   21.4471 C.ar    1  UNL1        0.0144
     23 C          -2.7579  -19.7799   21.7351 C.ar    1  UNL1        0.0021
     24 C          -1.7042  -19.2333   20.8179 C.ar    1  UNL1        0.0115
     25 C          -2.1006  -18.4331   19.6128 C.ar    1  UNL1        0.0589
     26 CL         -1.0470  -17.8866   18.6957 Cl      1  UNL1       -0.0822
     27 C          -3.5507  -18.1794   19.3247 C.ar    1  UNL1        0.0257
@<TRIPOS>BOND
     1     1     2    1
     2     2     3    2
     3     3     4    1
     4     4     5    2
     5     5     6    1
     6     6    19    1
     7    19    21    1
     8    21    22   ar
     9    22    23   ar
    10    23    24   ar
    11    24    25   ar
    12    25    26    1
    13    25    27   ar
    14     6     7    1
    15     7     8    2
    16     8     9    1
    17     9    11    1
    18    11    12    2
    19    11    13   am
    20    13    14    1
    21    14    15    1
    22    15    16    1
    23    16    17    1
    24    17    18    1
    25     9    10    2
    26    10     2    1
    27    10     5    1
    28    27    21   ar
    29    18    13    1
    30    19    20    1
@<TRIPOS>MOLECULE
*****
 27 30 0 0 0
SMALL
GASTEIGER

@<TRIPOS>ATOM
      1 C          -8.9065  -15.5708   26.6864 C.3     1  UNL1        0.0327
      2 C          -7.5564  -15.5559   26.0330 C.2     1  UNL1       -0.0013
      3 C          -6.3618  -14.7753   26.4951 C.2     1  UNL1        0.0943
      4 N          -5.2309  -15.0559   25.5504 N.2     1  UNL1       -0.2449
      5 C          -5.7266  -16.0100   24.5045 C.2     1  UNL1        0.0999
      6 C          -5.0550  -16.6373   23.3190 C.3     1  UNL1        0.2160
      7 N          -5.8205  -17.5736   22.4318 N.2     1  UNL1       -0.2447
      8 C          -7.2577  -17.8826   22.7300 C.2     1  UNL1        0.1000
      9 C          -7.9294  -17.2553   23.9155 C.2     1  UNL1        0.0733
     10 C          -7.1638  -16.3190   24.8027 C.2     1  UNL1        0.0205
     11 C          -9.3666  -17.5644   24.2137 C.2     1  UNL1        0.2507
     12 O          -9.7319  -18.2872   25.4762 O.2     1  UNL1       -0.2698
     13 N         -10.4384  -17.1506   23.2494 N.am    1  UNL1       -0.2709
     14 C         -10.0731  -16.4277   21.9868 C.3     1  UNL1        0.1258
     15 C         -11.1450  -16.0139   21.0226 C.3     1  UNL1        0.1637
     16 O         -12.5822  -16.3230   21.3208 O.3     1  UNL1       -0.3501
     17 C         -12.9475  -17.0459   22.5834 C.3     1  UNL1        0.1637
     18 C         -11.8756  -17.4597   23.5476 C.3     1  UNL1        0.1258
     19 N          -3.6177  -16.3283   23.0207 N.pl3   1  UNL1       -0.3108
     20 H          -3.2004  -15.5189   23.3949 H       1  UNL1        0.1489
     21 C          -2.8165  -17.2524   22.1525 C.ar    1  UNL1        0.0470
     22 C          -3.1300  -18.7191   22.1286 C.ar    1  UNL1        0.0144
     23 C          -2.3288  -19.6433   21.2603 C.ar    1  UNL1        0.0021
     24 C          -1.2139  -19.1007   20.4159 C.ar    1  UNL1        0.0115
     25 C          -0.9004  -17.6341   20.4398 C.ar    1  UNL1        0.0589
     26 CL          0.2143  -17.0915   19.5955 Cl      1  UNL1       -0.0822
     27 C          -1.7017  -16.7099   21.3081 C.ar    1  UNL1        0.0257
@<TRIPOS>BOND
     1     1     2    1
     2     2     3    2
     3     3     4    1
     4     4     5    2
     5     5     6    1
     6     6    19    1
     7    19    21    1
     8    21    22   ar
     9    22    23   ar
    10    23    24   ar
    11    24    25   ar
    12    25    26    1
    13    25    27   ar
    14     6     7    1
    15     7     8    2
    16     8     9    1
    17     9    11    1
    18    11    12    2
    19    11    13   am
    20    13    14    1
    21    14    15    1
    22    15    16    1
    23    16    17    1
    24    17    18    1
    25     9    10    2
    26    10     2    1
    27    10     5    1
    28    27    21   ar
    29    18    13    1
    30    19    20    1
@<TRIPOS>MOLECULE
*****
 27 30 0 0 0
SMALL
GASTEIGER

@<TRIPOS>ATOM
      1 C          -9.7952   -4.0067   18.6325 C.3     1  UNL1        0.0327
      2 C         -10.5640   -5.2785   18.4290 C.2     1  UNL1       -0.0013
      3 C         -10.2062   -6.6240   18.9872 C.2     1  UNL1        0.0943
      4 N         -11.2467   -7.6052   18.5348 N.2     1  UNL1       -0.2449
      5 C         -12.2476   -6.8661   17.6970 C.2     1  UNL1        0.0999
      6 C         -13.4887   -7.3167   16.9852 C.3     1  UNL1        0.2160
      7 N         -14.3079   -6.3293   16.2080 N.2     1  UNL1       -0.2447
      8 C         -13.8860   -4.8914   16.1426 C.2     1  UNL1        0.1000
      9 C         -12.6449   -4.4408   16.8545 C.2     1  UNL1        0.0733
     10 C         -11.8257   -5.4281   17.6316 C.2     1  UNL1        0.0205
     11 C         -12.2230   -3.0028   16.7890 C.2     1  UNL1        0.2507
     12 O         -11.0209   -2.6099   15.9825 O.2     1  UNL1       -0.2698
     13 N         -13.0033   -1.9578   17.5301 N.am    1  UNL1       -0.2709
     14 C         -14.2054   -2.3507   18.3366 C.3     1  UNL1        0.1258
     15 C         -14.9856   -1.3056   19.0776 C.3     1  UNL1        0.1637
     16 O         -14.5637    0.1323   19.0121 O.3     1  UNL1       -0.3501
     17 C         -13.3615    0.5252   18.2056 C.3     1  UNL1        0.1637
     18 C         -12.5813   -0.5198   17.4646 C.3     1  UNL1        0.1258
     19 N         -13.9106   -8.7546   17.0506 N.pl3   1  UNL1       -0.3108
     20 H         -13.3852   -9.4436   16.5832 H       1  UNL1        0.1489
     21 C         -15.1332   -9.1429   17.8282 C.ar    1  UNL1        0.0470
     22 C         -15.5804  -10.5745   17.8570 C.ar    1  UNL1        0.0144
     23 C         -16.8029  -10.9628   18.6345 C.ar    1  UNL1        0.0021
     24 C         -17.5783   -9.9195   19.3832 C.ar    1  UNL1        0.0115
     25 C         -17.1311   -8.4881   19.3544 C.ar    1  UNL1        0.0589
     26 CL        -17.9065   -7.4449   20.1031 Cl      1  UNL1       -0.0822
     27 C         -15.9085   -8.0997   18.5768 C.ar    1  UNL1        0.0257
@<TRIPOS>BOND
     1     1     2    1
     2     2     3    2
     3     3     4    1
     4     4     5    2
     5     5     6    1
     6     6    19    1
     7    19    21    1
     8    21    22   ar
     9    22    23   ar
    10    23    24   ar
    11    24    25   ar
    12    25    26    1
    13    25    27   ar
    14     6     7    1
    15     7     8    2
    16     8     9    1
    17     9    11    1
    18    11    12    2
    19    11    13   am
    20    13    14    1
    21    14    15    1
    22    15    16    1
    23    16    17    1
    24    17    18    1
    25     9    10    2
    26    10     2    1
    27    10     5    1
    28    27    21   ar
    29    18    13    1
    30    19    20    1
@<TRIPOS>MOLECULE
*****
 27 30 0 0 0
SMALL
GASTEIGER

@<TRIPOS>ATOM
      1 C           6.6429    0.0870   29.7327 C.3     1  UNL1        0.0327
      2 C           6.3611   -1.1820   28.9842 C.2     1  UNL1       -0.0013
      3 C           5.7651   -1.2822   27.6113 C.2     1  UNL1        0.0943
      4 N           5.6614   -2.7357   27.2558 N.2     1  UNL1       -0.2449
      5 C           6.1934   -3.5340   28.4090 C.2     1  UNL1        0.0999
      6 C           6.3399   -5.0112   28.6244 C.3     1  UNL1        0.2160
      7 N           6.9188   -5.5282   29.9080 N.2     1  UNL1       -0.2447
      8 C           7.3512   -4.5680   30.9761 C.2     1  UNL1        0.1000
      9 C           7.2047   -3.0907   30.7607 C.2     1  UNL1        0.0733
     10 C           6.6258   -2.5738   29.4771 C.2     1  UNL1        0.0205
     11 C           7.6371   -2.1305   31.8290 C.2     1  UNL1        0.2507
     12 O           9.0399   -1.5993   31.8367 O.2     1  UNL1       -0.2698
     13 N           6.6668   -1.7016   32.8894 N.am    1  UNL1       -0.2709
     14 C           5.2641   -2.2328   32.8816 C.3     1  UNL1        0.1258
     15 C           4.2938   -1.8038   33.9421 C.3     1  UNL1        0.1637
     16 O           4.7263   -0.8437   35.0102 O.3     1  UNL1       -0.3501
     17 C           6.1291   -0.3125   35.0180 C.3     1  UNL1        0.1637
     18 C           7.0993   -0.7414   33.9575 C.3     1  UNL1        0.1258
     19 N           5.9075   -5.9714   27.5562 N.pl3   1  UNL1       -0.3108
     20 H           5.0044   -6.3626   27.5822 H       1  UNL1        0.1489
     21 C           6.8510   -6.3356   26.4484 C.ar    1  UNL1        0.0470
     22 C           7.6322   -7.6143   26.5187 C.ar    1  UNL1        0.0144
     23 C           8.5757   -7.9785   25.4109 C.ar    1  UNL1        0.0021
     24 C           8.7380   -7.0640   24.2329 C.ar    1  UNL1        0.0115
     25 C           7.9569   -5.7855   24.1627 C.ar    1  UNL1        0.0589
     26 CL          8.1191   -4.8711   22.9848 Cl      1  UNL1       -0.0822
     27 C           7.0133   -5.4212   25.2705 C.ar    1  UNL1        0.0257
@<TRIPOS>BOND
     1     1     2    1
     2     2     3    2
     3     3     4    1
     4     4     5    2
     5     5     6    1
     6     6    19    1
     7    19    21    1
     8    21    22   ar
     9    22    23   ar
    10    23    24   ar
    11    24    25   ar
    12    25    26    1
    13    25    27   ar
    14     6     7    1
    15     7     8    2
    16     8     9    1
    17     9    11    1
    18    11    12    2
    19    11    13   am
    20    13    14    1
    21    14    15    1
    22    15    16    1
    23    16    17    1
    24    17    18    1
    25     9    10    2
    26    10     2    1
    27    10     5    1
    28    27    21   ar
    29    18    13    1
    30    19    20    1
@<TRIPOS>MOLECULE
*****
 27 30 0 0 0
SMALL
GASTEIGER

@<TRIPOS>ATOM
      1 C           6.0741    1.1983   17.8818 C.3     1  UNL1        0.0327
      2 C           4.9113    2.0750   18.2416 C.2     1  UNL1       -0.0013
      3 C           4.9790    3.5353   18.5777 C.2     1  UNL1        0.0943
      4 N           3.5863    4.0082   18.8723 N.2     1  UNL1       -0.2449
      5 C           2.6579    2.8401   18.7182 C.2     1  UNL1        0.0999
      6 C           1.1726    2.7101   18.8825 C.3     1  UNL1        0.2160
      7 N           0.5063    1.3853   18.6571 N.2     1  UNL1       -0.2447
      8 C           1.3251    0.1906   18.2673 C.2     1  UNL1        0.1000
      9 C           2.8105    0.3206   18.1030 C.2     1  UNL1        0.0733
     10 C           3.4768    1.6454   18.3285 C.2     1  UNL1        0.0205
     11 C           3.6294   -0.8743   17.7132 C.2     1  UNL1        0.2507
     12 O           3.9487   -1.1259   16.2694 O.2     1  UNL1       -0.2698
     13 N           4.1289   -1.8173   18.7673 N.am    1  UNL1       -0.2709
     14 C           3.8096   -1.5657   20.2111 C.3     1  UNL1        0.1258
     15 C           4.3092   -2.5088   21.2651 C.3     1  UNL1        0.1637
     16 O           5.1280   -3.7036   20.8753 O.3     1  UNL1       -0.3501
     17 C           5.4473   -3.9552   19.4314 C.3     1  UNL1        0.1637
     18 C           4.9477   -3.0121   18.3774 C.3     1  UNL1        0.1258
     19 N           0.3536    3.9048   19.2723 N.pl3   1  UNL1       -0.3108
     20 H           0.7925    4.6992   19.6539 H       1  UNL1        0.1489
     21 C          -1.1340    3.8892   19.0807 C.ar    1  UNL1        0.0470
     22 C          -1.7241    4.2839   17.7593 C.ar    1  UNL1        0.0144
     23 C          -3.2118    4.2684   17.5678 C.ar    1  UNL1        0.0021
     24 C          -4.1092    3.8581   18.6976 C.ar    1  UNL1        0.0115
     25 C          -3.5191    3.4635   20.0188 C.ar    1  UNL1        0.0589
     26 CL         -4.4165    3.0532   21.1486 Cl      1  UNL1       -0.0822
     27 C          -2.0314    3.4790   20.2105 C.ar    1  UNL1        0.0257
@<TRIPOS>BOND
     1     1     2    1
     2     2     3    2
     3     3     4    1
     4     4     5    2
     5     5     6    1
     6     6    19    1
     7    19    21    1
     8    21    22   ar
     9    22    23   ar
    10    23    24   ar
    11    24    25   ar
    12    25    26    1
    13    25    27   ar
    14     6     7    1
    15     7     8    2
    16     8     9    1
    17     9    11    1
    18    11    12    2
    19    11    13   am
    20    13    14    1
    21    14    15    1
    22    15    16    1
    23    16    17    1
    24    17    18    1
    25     9    10    2
    26    10     2    1
    27    10     5    1
    28    27    21   ar
    29    18    13    1
    30    19    20    1
@<TRIPOS>MOLECULE
*****
 27 30 0 0 0
SMALL
GASTEIGER

@<TRIPOS>ATOM
      1 C           6.2513    1.0513   18.9966 C.3     1  UNL1        0.0327
      2 C           6.9159   -0.0909   19.7064 C.2     1  UNL1       -0.0013
      3 C           8.1853   -0.0158   20.5019 C.2     1  UNL1        0.0943
      4 N           8.4817   -1.3872   21.0325 N.2     1  UNL1       -0.2449
      5 C           7.3955   -2.3099   20.5648 C.2     1  UNL1        0.0999
      6 C           7.1625   -3.7760   20.7793 C.3     1  UNL1        0.2160
      7 N           5.9618   -4.4411   20.1743 N.2     1  UNL1       -0.2447
      8 C           4.9941   -3.6400   19.3548 C.2     1  UNL1        0.1000
      9 C           5.2270   -2.1737   19.1402 C.2     1  UNL1        0.0733
     10 C           6.4277   -1.5087   19.7453 C.2     1  UNL1        0.0205
     11 C           4.2592   -1.3726   18.3207 C.2     1  UNL1        0.2507
     12 O           4.4432   -1.2652   16.8359 O.2     1  UNL1       -0.2698
     13 N           3.1076   -0.6790   18.9859 N.am    1  UNL1       -0.2709
     14 C           2.9236   -0.7865   20.4707 C.3     1  UNL1        0.1258
     15 C           1.7719   -0.0928   21.1358 C.3     1  UNL1        0.1637
     16 O           0.8042    0.7082   20.3162 O.3     1  UNL1       -0.3501
     17 C           0.9882    0.8157   18.8314 C.3     1  UNL1        0.1637
     18 C           2.1399    0.1220   18.1662 C.3     1  UNL1        0.1258
     19 N           8.1302   -4.5772   21.5989 N.pl3   1  UNL1       -0.3108
     20 H           8.9831   -4.8716   21.2050 H       1  UNL1        0.1489
     21 C           7.7985   -4.9298   23.0186 C.ar    1  UNL1        0.0470
     22 C           7.0126   -3.9727   23.8650 C.ar    1  UNL1        0.0144
     23 C           6.6809   -4.3253   25.2848 C.ar    1  UNL1        0.0021
     24 C           7.1351   -5.6350   25.8580 C.ar    1  UNL1        0.0115
     25 C           7.9209   -6.5920   25.0116 C.ar    1  UNL1        0.0589
     26 CL          8.3751   -7.9016   25.5849 Cl      1  UNL1       -0.0822
     27 C           8.2527   -6.2394   23.5918 C.ar    1  UNL1        0.0257
@<TRIPOS>BOND
     1     1     2    1
     2     2     3    2
     3     3     4    1
     4     4     5    2
     5     5     6    1
     6     6    19    1
     7    19    21    1
     8    21    22   ar
     9    22    23   ar
    10    23    24   ar
    11    24    25   ar
    12    25    26    1
    13    25    27   ar
    14     6     7    1
    15     7     8    2
    16     8     9    1
    17     9    11    1
    18    11    12    2
    19    11    13   am
    20    13    14    1
    21    14    15    1
    22    15    16    1
    23    16    17    1
    24    17    18    1
    25     9    10    2
    26    10     2    1
    27    10     5    1
    28    27    21   ar
    29    18    13    1
    30    19    20    1
@<TRIPOS>MOLECULE
*****
 27 30 0 0 0
SMALL
GASTEIGER

@<TRIPOS>ATOM
      1 C           5.4209    0.5066   22.4181 C.3     1  UNL1        0.0327
      2 C           4.0764    1.1711   22.3858 C.2     1  UNL1       -0.0013
      3 C           3.7180    2.4684   23.0478 C.2     1  UNL1        0.0943
      4 N           2.2744    2.7540   22.7569 N.2     1  UNL1       -0.2449
      5 C           1.7407    1.6331   21.9150 C.2     1  UNL1        0.0999
      6 C           0.3845    1.3769   21.3276 C.3     1  UNL1        0.2160
      7 N           0.1420    0.1423   20.5109 N.2     1  UNL1       -0.2447
      8 C           1.2557   -0.8359   20.2815 C.2     1  UNL1        0.1000
      9 C           2.6119   -0.5797   20.8689 C.2     1  UNL1        0.0733
     10 C           2.8544    0.6548   21.6857 C.2     1  UNL1        0.0205
     11 C           3.7256   -1.5581   20.6395 C.2     1  UNL1        0.2507
     12 O           3.9232   -2.7049   21.5859 O.2     1  UNL1       -0.2698
     13 N           4.6417   -1.3895   19.4638 N.am    1  UNL1       -0.2709
     14 C           4.4441   -0.2427   18.5174 C.3     1  UNL1        0.1258
     15 C           5.3602   -0.0742   17.3416 C.3     1  UNL1        0.1637
     16 O           6.4739   -1.0526   17.1123 O.3     1  UNL1       -0.3501
     17 C           6.6714   -2.1995   18.0587 C.3     1  UNL1        0.1637
     18 C           5.7553   -2.3679   19.2344 C.3     1  UNL1        0.1258
     19 N          -0.7292    2.3552   21.5570 N.pl3   1  UNL1       -0.3108
     20 H          -0.9996    2.5869   22.4748 H       1  UNL1        0.1489
     21 C          -1.4310    2.9803   20.3879 C.ar    1  UNL1        0.0470
     22 C          -2.9062    3.2443   20.4524 C.ar    1  UNL1        0.0144
     23 C          -3.6079    3.8695   19.2833 C.ar    1  UNL1        0.0021
     24 C          -2.8345    4.2306   18.0498 C.ar    1  UNL1        0.0115
     25 C          -1.3594    3.9666   17.9854 C.ar    1  UNL1        0.0589
     26 CL         -0.5860    4.3277   16.7520 Cl      1  UNL1       -0.0822
     27 C          -0.6575    3.3414   19.1545 C.ar    1  UNL1        0.0257
@<TRIPOS>BOND
     1     1     2    1
     2     2     3    2
     3     3     4    1
     4     4     5    2
     5     5     6    1
     6     6    19    1
     7    19    21    1
     8    21    22   ar
     9    22    23   ar
    10    23    24   ar
    11    24    25   ar
    12    25    26    1
    13    25    27   ar
    14     6     7    1
    15     7     8    2
    16     8     9    1
    17     9    11    1
    18    11    12    2
    19    11    13   am
    20    13    14    1
    21    14    15    1
    22    15    16    1
    23    16    17    1
    24    17    18    1
    25     9    10    2
    26    10     2    1
    27    10     5    1
    28    27    21   ar
    29    18    13    1
    30    19    20    1
