@<TRIPOS>MOLECULE
*****
 30 31 0 0 0
SMALL
GASTEIGER

@<TRIPOS>ATOM
      1 C          -6.3840  -19.0824   21.1861 C.ar    1  UNL1        0.1344
      2 C          -7.4801  -19.6857   20.3588 C.ar    1  UNL1        0.0310
      3 C          -8.8426  -19.0584   20.3468 C.ar    1  UNL1       -0.0067
      4 C          -9.9388  -19.6617   19.5194 C.3     1  UNL1        0.0319
      5 C          -9.1090  -17.8279   21.1621 C.ar    1  UNL1        0.0959
      6 C          -8.0129  -17.2246   21.9895 C.ar    1  UNL1        0.1392
      7 N          -6.6504  -17.8519   22.0015 N.ar    1  UNL1       -0.2155
      8 N          -5.0215  -19.7097   21.1982 N.pl3   1  UNL1       -0.2819
      9 H          -4.8781  -20.5665   21.6613 H       1  UNL1        0.1551
     10 C          -0.1555  -18.0706   19.9670 C.3     1  UNL1        0.0515
     11 C          -1.6408  -18.2781   19.9386 C.ar    1  UNL1        0.0548
     12 C          -2.4346  -19.1025   20.9083 C.ar    1  UNL1        0.0502
     13 C          -3.8775  -19.0315   20.5045 C.ar    1  UNL1        0.1539
     14 N          -3.9754  -18.1632   19.2852 N.ar    1  UNL1       -0.1577
     15 N          -2.5931  -17.6976   18.9354 N.ar    1  UNL1       -0.2786
     16 H          -2.3530  -17.1136   18.1801 H       1  UNL1        0.1886
     17 C         -10.4715  -17.2006   21.1501 C.1     1  UNL1        0.1029
     18 N         -11.8340  -16.5734   21.1381 N.1     1  UNL1       -0.1907
     19 N          -8.2792  -15.9940   22.8048 N.pl3   1  UNL1       -0.3192
     20 H          -8.7645  -15.2354   22.4069 H       1  UNL1        0.1482
     21 C          -7.8063  -15.9193   24.2263 C.3     1  UNL1        0.0704
     22 C          -6.5837  -15.1206   24.5690 C.3     1  UNL1        0.0212
     23 C          -8.5559  -16.6433   25.3052 C.3     1  UNL1        0.0196
     24 C          -9.8349  -17.3565   24.9807 C.3     1  UNL1        0.0041
     25 C          -9.9009  -18.8529   25.0627 C.3     1  UNL1        0.0270
     26 C         -10.4881  -19.6410   23.9296 C.3     1  UNL1        0.0885
     27 C          -9.2109  -20.4182   23.8083 C.3     1  UNL1        0.0293
     28 C         -11.7652  -18.8637   24.0508 C.3     1  UNL1        0.0293
     29 O         -11.0752  -20.4291   22.7964 O.3     1  UNL1       -0.3867
     30 H         -10.4231  -21.0728   22.4782 H       1  UNL1        0.2102
@<TRIPOS>BOND
     1    10    11    1
     2    11    12   ar
     3    12    13   ar
     4    13     8    1
     5     8     1    1
     6     1     2   ar
     7     2     3   ar
     8     3     4    1
     9     3     5   ar
    10     5    17    1
    11    17    18    3
    12     5     6   ar
    13     6    19    1
    14    19    21    1
    15    21    22    1
    16    21    23    1
    17    23    24    1
    18    24    25    1
    19    25    26    1
    20    26    27    1
    21    26    28    1
    22    26    29    1
    23     6     7   ar
    24    13    14   ar
    25    14    15   ar
    26    15    11   ar
    27     7     1   ar
    28     8     9    1
    29    19    20    1
    30    29    30    1
    31    15    16    1
@<TRIPOS>MOLECULE
*****
 30 31 0 0 0
SMALL
GASTEIGER

@<TRIPOS>ATOM
      1 C          -6.2717  -19.1868   21.8474 C.ar    1  UNL1        0.1344
      2 C          -6.7806  -19.6745   20.5233 C.ar    1  UNL1        0.0310
      3 C          -8.1944  -19.3886   20.1118 C.ar    1  UNL1       -0.0067
      4 C          -8.7033  -19.8762   18.7877 C.3     1  UNL1        0.0319
      5 C          -9.0993  -18.6151   21.0244 C.ar    1  UNL1        0.0959
      6 C          -8.5904  -18.1274   22.3485 C.ar    1  UNL1        0.1392
      7 N          -7.1766  -18.4133   22.7600 N.ar    1  UNL1       -0.2155
      8 N          -4.8578  -19.4727   22.2590 N.pl3   1  UNL1       -0.2819
      9 H          -4.6481  -20.2914   22.7639 H       1  UNL1        0.1551
     10 C          -0.5042  -17.3909   20.1159 C.3     1  UNL1        0.0515
     11 C          -1.7624  -17.5543   20.9161 C.ar    1  UNL1        0.0548
     12 C          -2.6071  -18.7918   20.9879 C.ar    1  UNL1        0.0502
     13 C          -3.7635  -18.5112   21.9012 C.ar    1  UNL1        0.1539
     14 N          -3.6335  -17.1004   22.3938 N.ar    1  UNL1       -0.1577
     15 N          -2.3968  -16.5090   21.7850 N.ar    1  UNL1       -0.2786
     16 H          -2.0604  -15.5952   21.9302 H       1  UNL1        0.1886
     17 C         -10.5132  -18.3292   20.6128 C.1     1  UNL1        0.1029
     18 N         -11.9270  -18.0433   20.2013 N.1     1  UNL1       -0.1907
     19 N          -9.4953  -17.3539   23.2610 N.pl3   1  UNL1       -0.3192
     20 H          -9.9110  -16.5177   22.9492 H       1  UNL1        0.1482
     21 C          -9.7669  -17.8544   24.6487 C.3     1  UNL1        0.0704
     22 C         -10.6910  -19.0170   24.8592 C.3     1  UNL1        0.0212
     23 C          -9.1144  -17.1922   25.8260 C.3     1  UNL1        0.0196
     24 C          -8.5702  -15.8004   25.6971 C.3     1  UNL1        0.0041
     25 C          -7.1032  -15.5485   25.8833 C.3     1  UNL1        0.0270
     26 C          -6.2453  -15.2050   24.7018 C.3     1  UNL1        0.0885
     27 C          -5.0384  -15.7202   25.4283 C.3     1  UNL1        0.0293
     28 C          -7.4522  -14.6898   23.9752 C.3     1  UNL1        0.0293
     29 O          -5.3875  -14.8615   23.5203 O.3     1  UNL1       -0.3867
     30 H          -4.4667  -15.1015   23.7085 H       1  UNL1        0.2102
@<TRIPOS>BOND
     1    10    11    1
     2    11    12   ar
     3    12    13   ar
     4    13     8    1
     5     8     1    1
     6     1     2   ar
     7     2     3   ar
     8     3     4    1
     9     3     5   ar
    10     5    17    1
    11    17    18    3
    12     5     6   ar
    13     6    19    1
    14    19    21    1
    15    21    22    1
    16    21    23    1
    17    23    24    1
    18    24    25    1
    19    25    26    1
    20    26    27    1
    21    26    28    1
    22    26    29    1
    23     6     7   ar
    24    13    14   ar
    25    14    15   ar
    26    15    11   ar
    27     7     1   ar
    28     8     9    1
    29    19    20    1
    30    29    30    1
    31    15    16    1
@<TRIPOS>MOLECULE
*****
 30 31 0 0 0
SMALL
GASTEIGER

@<TRIPOS>ATOM
      1 C          -9.1025  -16.7449   22.1106 C.ar    1  UNL1        0.1344
      2 C         -10.3409  -17.4712   21.6761 C.ar    1  UNL1        0.0310
      3 C         -10.2431  -18.5956   20.6882 C.ar    1  UNL1       -0.0067
      4 C         -11.4815  -19.3220   20.2536 C.3     1  UNL1        0.0319
      5 C          -8.9070  -18.9938   20.1348 C.ar    1  UNL1        0.0959
      6 C          -7.6686  -18.2675   20.5694 C.ar    1  UNL1        0.1392
      7 N          -7.7664  -17.1430   21.5573 N.ar    1  UNL1       -0.2155
      8 N          -9.2003  -15.6204   23.0986 N.pl3   1  UNL1       -0.2819
      9 H          -9.9305  -14.9639   23.0266 H       1  UNL1        0.1551
     10 C          -6.8020  -16.0016   27.7872 C.3     1  UNL1        0.0515
     11 C          -7.0831  -15.6713   26.3513 C.ar    1  UNL1        0.0548
     12 C          -8.3321  -16.0161   25.5955 C.ar    1  UNL1        0.0502
     13 C          -8.1855  -15.4960   24.1962 C.ar    1  UNL1        0.1539
     14 N          -6.8460  -14.8298   24.0872 N.ar    1  UNL1       -0.1577
     15 N          -6.1647  -14.9381   25.4191 N.ar    1  UNL1       -0.2786
     16 H          -5.2715  -14.5892   25.6423 H       1  UNL1        0.1886
     17 C          -8.8093  -20.1183   19.1468 C.1     1  UNL1        0.1029
     18 N          -8.7116  -21.2427   18.1589 N.1     1  UNL1       -0.1907
     19 N          -6.3325  -18.6656   20.0160 N.pl3   1  UNL1       -0.3192
     20 H          -5.9815  -18.2222   19.2101 H       1  UNL1        0.1482
     21 C          -5.5311  -19.7393   20.6904 C.3     1  UNL1        0.0704
     22 C          -6.0034  -20.3242   21.9884 C.3     1  UNL1        0.0212
     23 C          -4.2574  -20.2282   20.0669 C.3     1  UNL1        0.0196
     24 C          -3.0428  -19.3482   20.0538 C.3     1  UNL1        0.0041
     25 C          -2.5062  -18.7913   21.3392 C.3     1  UNL1        0.0270
     26 C          -2.5093  -17.3098   21.5739 C.3     1  UNL1        0.0885
     27 C          -3.3020  -17.5107   22.8314 C.3     1  UNL1        0.0293
     28 C          -1.7165  -17.1090   20.3165 C.3     1  UNL1        0.0293
     29 O          -2.5124  -15.8284   21.8087 O.3     1  UNL1       -0.3867
     30 H          -2.9964  -15.6315   22.6259 H       1  UNL1        0.2102
@<TRIPOS>BOND
     1    10    11    1
     2    11    12   ar
     3    12    13   ar
     4    13     8    1
     5     8     1    1
     6     1     2   ar
     7     2     3   ar
     8     3     4    1
     9     3     5   ar
    10     5    17    1
    11    17    18    3
    12     5     6   ar
    13     6    19    1
    14    19    21    1
    15    21    22    1
    16    21    23    1
    17    23    24    1
    18    24    25    1
    19    25    26    1
    20    26    27    1
    21    26    28    1
    22    26    29    1
    23     6     7   ar
    24    13    14   ar
    25    14    15   ar
    26    15    11   ar
    27     7     1   ar
    28     8     9    1
    29    19    20    1
    30    29    30    1
    31    15    16    1
@<TRIPOS>MOLECULE
*****
 30 31 0 0 0
SMALL
GASTEIGER

@<TRIPOS>ATOM
      1 C          -4.4044  -18.3844   22.4141 C.ar    1  UNL1        0.1344
      2 C          -4.2537  -17.4232   23.5557 C.ar    1  UNL1        0.0310
      3 C          -5.4391  -16.6418   24.0397 C.ar    1  UNL1       -0.0067
      4 C          -5.2884  -15.6805   25.1814 C.3     1  UNL1        0.0319
      5 C          -6.7752  -16.8216   23.3821 C.ar    1  UNL1        0.0959
      6 C          -6.9259  -17.7828   22.2405 C.ar    1  UNL1        0.1392
      7 N          -5.7405  -18.5642   21.7565 N.ar    1  UNL1       -0.2155
      8 N          -3.2190  -19.1658   21.9301 N.pl3   1  UNL1       -0.2819
      9 H          -2.9601  -19.9997   22.3849 H       1  UNL1        0.1551
     10 C          -1.9505  -17.3511   17.1366 C.3     1  UNL1        0.0515
     11 C          -1.8450  -17.8426   18.5499 C.ar    1  UNL1        0.0548
     12 C          -2.9891  -18.2574   19.4268 C.ar    1  UNL1        0.0502
     13 C          -2.4281  -18.6767   20.7532 C.ar    1  UNL1        0.1539
     14 N          -0.9373  -18.5211   20.6960 N.ar    1  UNL1       -0.1577
     15 N          -0.5769  -18.0056   19.3343 N.ar    1  UNL1       -0.2786
     16 H           0.3323  -17.8087   19.0120 H       1  UNL1        0.1886
     17 C          -7.9606  -16.0402   23.8661 C.1     1  UNL1        0.1029
     18 N          -9.1459  -15.2587   24.3501 N.1     1  UNL1       -0.1907
     19 N          -8.2620  -17.9627   21.5828 N.pl3   1  UNL1       -0.3192
     20 H          -8.5951  -17.2847   20.9514 H       1  UNL1        0.1482
     21 C          -9.0906  -19.1753   21.8873 C.3     1  UNL1        0.0704
     22 C          -8.8622  -19.9403   23.1572 C.3     1  UNL1        0.0212
     23 C         -10.1478  -19.6231   20.9218 C.3     1  UNL1        0.0196
     24 C         -11.0344  -18.6114   20.2582 C.3     1  UNL1        0.0041
     25 C         -12.1478  -17.9683   21.0308 C.3     1  UNL1        0.0270
     26 C         -11.8833  -16.7336   21.8404 C.3     1  UNL1        0.0885
     27 C         -11.3117  -16.0609   20.6277 C.3     1  UNL1        0.0293
     28 C         -12.4549  -17.4062   23.0531 C.3     1  UNL1        0.0293
     29 O         -11.6188  -15.4988   22.6499 O.3     1  UNL1       -0.3867
     30 H         -11.2133  -14.8225   22.0850 H       1  UNL1        0.2102
@<TRIPOS>BOND
     1    10    11    1
     2    11    12   ar
     3    12    13   ar
     4    13     8    1
     5     8     1    1
     6     1     2   ar
     7     2     3   ar
     8     3     4    1
     9     3     5   ar
    10     5    17    1
    11    17    18    3
    12     5     6   ar
    13     6    19    1
    14    19    21    1
    15    21    22    1
    16    21    23    1
    17    23    24    1
    18    24    25    1
    19    25    26    1
    20    26    27    1
    21    26    28    1
    22    26    29    1
    23     6     7   ar
    24    13    14   ar
    25    14    15   ar
    26    15    11   ar
    27     7     1   ar
    28     8     9    1
    29    19    20    1
    30    29    30    1
    31    15    16    1
@<TRIPOS>MOLECULE
*****
 30 31 0 0 0
SMALL
GASTEIGER

@<TRIPOS>ATOM
      1 C          -8.2744  -16.1760   22.0343 C.ar    1  UNL1        0.1344
      2 C          -7.6117  -15.3183   23.0712 C.ar    1  UNL1        0.0310
      3 C          -6.3526  -15.7864   23.7386 C.ar    1  UNL1       -0.0067
      4 C          -5.6898  -14.9287   24.7755 C.3     1  UNL1        0.0319
      5 C          -5.7562  -17.1123   23.3691 C.ar    1  UNL1        0.0959
      6 C          -6.4189  -17.9699   22.3322 C.ar    1  UNL1        0.1392
      7 N          -7.6780  -17.5018   21.6648 N.ar    1  UNL1       -0.2155
      8 N          -9.5336  -15.7078   21.3669 N.pl3   1  UNL1       -0.2819
      9 H          -9.5127  -14.9251   20.7701 H       1  UNL1        0.1551
     10 C         -13.6472  -17.9671   23.7865 C.3     1  UNL1        0.0515
     11 C         -12.7154  -17.4707   22.7209 C.ar    1  UNL1        0.0548
     12 C         -11.4283  -16.7346   22.9482 C.ar    1  UNL1        0.0502
     13 C         -10.8246  -16.4323   21.6088 C.ar    1  UNL1        0.1539
     14 N         -11.7385  -16.9815   20.5537 N.ar    1  UNL1       -0.1577
     15 N         -12.9071  -17.6233   21.2410 N.ar    1  UNL1       -0.2786
     16 H         -13.6665  -18.0669   20.7985 H       1  UNL1        0.1886
     17 C          -4.4970  -17.5804   24.0365 C.1     1  UNL1        0.1029
     18 N          -3.2379  -18.0485   24.7039 N.1     1  UNL1       -0.1907
     19 N          -5.8225  -19.2958   21.9627 N.pl3   1  UNL1       -0.3192
     20 H          -5.5562  -19.9293   22.6676 H       1  UNL1        0.1482
     21 C          -5.6320  -19.6563   20.5192 C.3     1  UNL1        0.0704
     22 C          -6.5336  -20.6660   19.8731 C.3     1  UNL1        0.0212
     23 C          -4.5398  -19.0071   19.7219 C.3     1  UNL1        0.0196
     24 C          -3.1036  -19.2533   20.0777 C.3     1  UNL1        0.0041
     25 C          -2.4166  -18.3706   21.0773 C.3     1  UNL1        0.0270
     26 C          -1.4076  -17.3605   20.6175 C.3     1  UNL1        0.0885
     27 C          -1.9938  -16.3478   21.5559 C.3     1  UNL1        0.0293
     28 C          -0.8214  -18.3733   19.6791 C.3     1  UNL1        0.0293
     29 O          -0.3986  -16.3504   20.1576 O.3     1  UNL1       -0.3867
     30 H          -0.5385  -15.5152   20.6307 H       1  UNL1        0.2102
@<TRIPOS>BOND
     1    10    11    1
     2    11    12   ar
     3    12    13   ar
     4    13     8    1
     5     8     1    1
     6     1     2   ar
     7     2     3   ar
     8     3     4    1
     9     3     5   ar
    10     5    17    1
    11    17    18    3
    12     5     6   ar
    13     6    19    1
    14    19    21    1
    15    21    22    1
    16    21    23    1
    17    23    24    1
    18    24    25    1
    19    25    26    1
    20    26    27    1
    21    26    28    1
    22    26    29    1
    23     6     7   ar
    24    13    14   ar
    25    14    15   ar
    26    15    11   ar
    27     7     1   ar
    28     8     9    1
    29    19    20    1
    30    29    30    1
    31    15    16    1
@<TRIPOS>MOLECULE
*****
 30 31 0 0 0
SMALL
GASTEIGER

@<TRIPOS>ATOM
      1 C          -6.2999  -17.8769   22.8116 C.ar    1  UNL1        0.1344
      2 C          -6.8483  -17.0630   23.9459 C.ar    1  UNL1        0.0310
      3 C          -8.2421  -16.5139   23.8697 C.ar    1  UNL1       -0.0067
      4 C          -8.7906  -15.7000   25.0041 C.3     1  UNL1        0.0319
      5 C          -9.0874  -16.7785   22.6592 C.ar    1  UNL1        0.0959
      6 C          -8.5390  -17.5924   21.5248 C.ar    1  UNL1        0.1392
      7 N          -7.1452  -18.1416   21.6010 N.ar    1  UNL1       -0.2155
      8 N          -4.9061  -18.4261   22.8877 N.pl3   1  UNL1       -0.2819
      9 H          -4.6913  -19.1356   23.5355 H       1  UNL1        0.1551
     10 C          -1.5444  -17.9246   18.8470 C.3     1  UNL1        0.0515
     11 C          -2.2944  -17.6637   20.1195 C.ar    1  UNL1        0.0548
     12 C          -3.3680  -18.5329   20.7042 C.ar    1  UNL1        0.0502
     13 C          -3.8396  -17.8942   21.9769 C.ar    1  UNL1        0.1539
     14 N          -3.0574  -16.6303   22.1787 N.ar    1  UNL1       -0.1577
     15 N          -2.1024  -16.4878   21.0309 N.ar    1  UNL1       -0.2786
     16 H          -1.4621  -15.7518   20.8988 H       1  UNL1        0.1886
     17 C         -10.4812  -16.2293   22.5830 C.1     1  UNL1        0.1029
     18 N         -11.8749  -15.6801   22.5069 N.1     1  UNL1       -0.1907
     19 N          -9.3843  -17.8571   20.3143 N.pl3   1  UNL1       -0.3192
     20 H          -9.6886  -17.1077   19.7530 H       1  UNL1        0.1482
     21 C          -9.7658  -19.2635   19.9589 C.3     1  UNL1        0.0704
     22 C          -8.9066  -20.0598   19.0222 C.3     1  UNL1        0.0212
     23 C         -11.0067  -19.8737   20.5403 C.3     1  UNL1        0.0196
     24 C         -11.4285  -19.5282   21.9377 C.3     1  UNL1        0.0041
     25 C         -10.9957  -20.3903   23.0865 C.3     1  UNL1        0.0270
     26 C         -10.4171  -19.7618   24.3194 C.3     1  UNL1        0.0885
     27 C          -9.1514  -20.5426   24.1235 C.3     1  UNL1        0.0293
     28 C         -11.6827  -18.9809   24.5153 C.3     1  UNL1        0.0293
     29 O          -9.8384  -19.1332   25.5523 O.3     1  UNL1       -0.3867
     30 H          -8.9420  -19.4738   25.6986 H       1  UNL1        0.2102
@<TRIPOS>BOND
     1    10    11    1
     2    11    12   ar
     3    12    13   ar
     4    13     8    1
     5     8     1    1
     6     1     2   ar
     7     2     3   ar
     8     3     4    1
     9     3     5   ar
    10     5    17    1
    11    17    18    3
    12     5     6   ar
    13     6    19    1
    14    19    21    1
    15    21    22    1
    16    21    23    1
    17    23    24    1
    18    24    25    1
    19    25    26    1
    20    26    27    1
    21    26    28    1
    22    26    29    1
    23     6     7   ar
    24    13    14   ar
    25    14    15   ar
    26    15    11   ar
    27     7     1   ar
    28     8     9    1
    29    19    20    1
    30    29    30    1
    31    15    16    1
@<TRIPOS>MOLECULE
*****
 30 31 0 0 0
SMALL
GASTEIGER

@<TRIPOS>ATOM
      1 C          -9.0797  -17.5406   23.8467 C.ar    1  UNL1        0.1344
      2 C          -9.3066  -16.8534   25.1605 C.ar    1  UNL1        0.0310
      3 C          -8.2070  -16.0462   25.7843 C.ar    1  UNL1       -0.0067
      4 C          -8.4338  -15.3589   27.0983 C.3     1  UNL1        0.0319
      5 C          -6.8806  -15.9260   25.0943 C.ar    1  UNL1        0.0959
      6 C          -6.6537  -16.6132   23.7804 C.ar    1  UNL1        0.1392
      7 N          -7.7533  -17.4205   23.1566 N.ar    1  UNL1       -0.2155
      8 N         -10.1793  -18.3479   23.2228 N.pl3   1  UNL1       -0.2819
      9 H         -10.5623  -19.1149   23.7068 H       1  UNL1        0.1551
     10 C         -11.8194  -15.5557   19.0521 C.3     1  UNL1        0.0515
     11 C         -11.4491  -16.7033   19.9444 C.ar    1  UNL1        0.0548
     12 C         -10.9336  -16.5972   21.3490 C.ar    1  UNL1        0.0502
     13 C         -10.6953  -17.9867   21.8615 C.ar    1  UNL1        0.1539
     14 N         -11.0636  -18.9515   20.7735 N.ar    1  UNL1       -0.1577
     15 N         -11.5295  -18.1583   19.5887 N.ar    1  UNL1       -0.2786
     16 H         -11.8345  -18.5278   18.7287 H       1  UNL1        0.1886
     17 C          -5.7810  -15.1187   25.7182 C.1     1  UNL1        0.1029
     18 N          -4.6814  -14.3114   26.3421 N.1     1  UNL1       -0.1907
     19 N          -5.3273  -16.4931   23.0904 N.pl3   1  UNL1       -0.3192
     20 H          -5.0159  -15.6152   22.7718 H       1  UNL1        0.1482
     21 C          -4.4754  -17.7106   22.8857 C.3     1  UNL1        0.0704
     22 C          -5.1032  -19.0000   22.4462 C.3     1  UNL1        0.0212
     23 C          -2.9956  -17.6386   23.1206 C.3     1  UNL1        0.0196
     24 C          -2.0666  -17.3672   21.9746 C.3     1  UNL1        0.0041
     25 C          -1.7195  -18.4658   21.0140 C.3     1  UNL1        0.0270
     26 C          -1.4355  -18.1435   19.5769 C.3     1  UNL1        0.0885
     27 C          -2.8214  -18.5804   19.2050 C.3     1  UNL1        0.0293
     28 C          -0.0496  -17.7067   19.9487 C.3     1  UNL1        0.0293
     29 O          -1.1515  -17.8213   18.1397 O.3     1  UNL1       -0.3867
     30 H          -1.9353  -18.0182   17.6032 H       1  UNL1        0.2102
@<TRIPOS>BOND
     1    10    11    1
     2    11    12   ar
     3    12    13   ar
     4    13     8    1
     5     8     1    1
     6     1     2   ar
     7     2     3   ar
     8     3     4    1
     9     3     5   ar
    10     5    17    1
    11    17    18    3
    12     5     6   ar
    13     6    19    1
    14    19    21    1
    15    21    22    1
    16    21    23    1
    17    23    24    1
    18    24    25    1
    19    25    26    1
    20    26    27    1
    21    26    28    1
    22    26    29    1
    23     6     7   ar
    24    13    14   ar
    25    14    15   ar
    26    15    11   ar
    27     7     1   ar
    28     8     9    1
    29    19    20    1
    30    29    30    1
    31    15    16    1
@<TRIPOS>MOLECULE
*****
 30 31 0 0 0
SMALL
GASTEIGER

@<TRIPOS>ATOM
      1 C          -5.8113  -16.0929   23.5534 C.ar    1  UNL1        0.1344
      2 C          -6.7428  -15.3850   24.4921 C.ar    1  UNL1        0.0310
      3 C          -8.1328  -15.9071   24.7048 C.ar    1  UNL1       -0.0067
      4 C          -9.0644  -15.1993   25.6436 C.3     1  UNL1        0.0319
      5 C          -8.5912  -17.1371   23.9788 C.ar    1  UNL1        0.0959
      6 C          -7.6597  -17.8449   23.0401 C.ar    1  UNL1        0.1392
      7 N          -6.2697  -17.3228   22.8274 N.ar    1  UNL1       -0.2155
      8 N          -4.4212  -15.5708   23.3407 N.pl3   1  UNL1       -0.2819
      9 H          -4.1648  -14.6918   23.7024 H       1  UNL1        0.1551
     10 C          -1.8078  -19.6744   21.2887 C.3     1  UNL1        0.0515
     11 C          -2.2206  -18.2742   21.6336 C.ar    1  UNL1        0.0548
     12 C          -3.3790  -17.8855   22.5036 C.ar    1  UNL1        0.0502
     13 C          -3.4218  -16.3879   22.5768 C.ar    1  UNL1        0.1539
     14 N          -2.2898  -15.8510   21.7520 N.ar    1  UNL1       -0.1577
     15 N          -1.5474  -17.0167   21.1691 N.ar    1  UNL1       -0.2786
     16 H          -0.7571  -16.9655   20.5843 H       1  UNL1        0.1886
     17 C          -9.9813  -17.6592   24.1916 C.1     1  UNL1        0.1029
     18 N         -11.3713  -18.1812   24.4043 N.1     1  UNL1       -0.1907
     19 N          -8.1182  -19.0748   22.3141 N.pl3   1  UNL1       -0.3192
     20 H          -8.9603  -19.5141   22.5731 H       1  UNL1        0.1482
     21 C          -7.2936  -19.6354   21.1935 C.3     1  UNL1        0.0704
     22 C          -6.2125  -20.6337   21.4845 C.3     1  UNL1        0.0212
     23 C          -7.5501  -19.1977   19.7819 C.3     1  UNL1        0.0196
     24 C          -8.9341  -19.2835   19.2098 C.3     1  UNL1        0.0041
     25 C         -10.0186  -19.9855   19.9721 C.3     1  UNL1        0.0270
     26 C         -11.0679  -19.1886   20.6889 C.3     1  UNL1        0.0885
     27 C         -11.2245  -20.2949   21.6897 C.3     1  UNL1        0.0293
     28 C         -10.9113  -18.0823   19.6882 C.3     1  UNL1        0.0293
     29 O         -12.1172  -18.3917   21.4058 O.3     1  UNL1       -0.3867
     30 H         -12.4388  -18.8944   22.1704 H       1  UNL1        0.2102
@<TRIPOS>BOND
     1    10    11    1
     2    11    12   ar
     3    12    13   ar
     4    13     8    1
     5     8     1    1
     6     1     2   ar
     7     2     3   ar
     8     3     4    1
     9     3     5   ar
    10     5    17    1
    11    17    18    3
    12     5     6   ar
    13     6    19    1
    14    19    21    1
    15    21    22    1
    16    21    23    1
    17    23    24    1
    18    24    25    1
    19    25    26    1
    20    26    27    1
    21    26    28    1
    22    26    29    1
    23     6     7   ar
    24    13    14   ar
    25    14    15   ar
    26    15    11   ar
    27     7     1   ar
    28     8     9    1
    29    19    20    1
    30    29    30    1
    31    15    16    1
@<TRIPOS>MOLECULE
*****
 30 31 0 0 0
SMALL
GASTEIGER

@<TRIPOS>ATOM
      1 C          -9.6877  -16.6670   23.1881 C.ar    1  UNL1        0.1344
      2 C         -10.5257  -16.4289   21.9671 C.ar    1  UNL1        0.0310
      3 C         -10.4666  -17.3908   20.8177 C.ar    1  UNL1       -0.0067
      4 C         -11.3047  -17.1528   19.5966 C.3     1  UNL1        0.0319
      5 C          -9.5694  -18.5908   20.8893 C.ar    1  UNL1        0.0959
      6 C          -8.7314  -18.8289   22.1104 C.ar    1  UNL1        0.1392
      7 N          -8.7905  -17.8669   23.2597 N.ar    1  UNL1       -0.2155
      8 N          -9.7468  -15.7050   24.3376 N.pl3   1  UNL1       -0.2819
      9 H         -10.5741  -15.2023   24.5167 H       1  UNL1        0.1551
     10 C          -4.7534  -15.1606   25.9654 C.3     1  UNL1        0.0515
     11 C          -6.2502  -15.2587   25.9622 C.ar    1  UNL1        0.0548
     12 C          -7.1169  -15.4769   24.7576 C.ar    1  UNL1        0.0502
     13 C          -8.5454  -15.5089   25.2140 C.ar    1  UNL1        0.1539
     14 N          -8.5615  -15.3105   26.7007 N.ar    1  UNL1       -0.1577
     15 N          -7.1430  -15.1558   27.1632 N.ar    1  UNL1       -0.2786
     16 H          -6.8495  -15.0120   28.0919 H       1  UNL1        0.1886
     17 C          -9.5103  -19.5528   19.7399 C.1     1  UNL1        0.1029
     18 N          -9.4513  -20.5147   18.5905 N.1     1  UNL1       -0.1907
     19 N          -7.8342  -20.0289   22.1820 N.pl3   1  UNL1       -0.3192
     20 H          -8.0439  -20.7639   22.8025 H       1  UNL1        0.1482
     21 C          -6.6176  -20.1089   21.3083 C.3     1  UNL1        0.0704
     22 C          -6.3822  -21.3233   20.4598 C.3     1  UNL1        0.0212
     23 C          -5.6363  -18.9747   21.2831 C.3     1  UNL1        0.0196
     24 C          -5.0914  -18.4833   19.9749 C.3     1  UNL1        0.0041
     25 C          -3.6668  -18.7683   19.6013 C.3     1  UNL1        0.0270
     26 C          -2.7574  -19.4518   20.5789 C.3     1  UNL1        0.0885
     27 C          -3.1209  -20.7814   19.9874 C.3     1  UNL1        0.0293
     28 C          -2.3939  -18.1222   21.1704 C.3     1  UNL1        0.0293
     29 O          -1.8480  -20.1353   21.5565 O.3     1  UNL1       -0.3867
     30 H          -1.8736  -21.0933   21.4066 H       1  UNL1        0.2102
@<TRIPOS>BOND
     1    10    11    1
     2    11    12   ar
     3    12    13   ar
     4    13     8    1
     5     8     1    1
     6     1     2   ar
     7     2     3   ar
     8     3     4    1
     9     3     5   ar
    10     5    17    1
    11    17    18    3
    12     5     6   ar
    13     6    19    1
    14    19    21    1
    15    21    22    1
    16    21    23    1
    17    23    24    1
    18    24    25    1
    19    25    26    1
    20    26    27    1
    21    26    28    1
    22    26    29    1
    23     6     7   ar
    24    13    14   ar
    25    14    15   ar
    26    15    11   ar
    27     7     1   ar
    28     8     9    1
    29    19    20    1
    30    29    30    1
    31    15    16    1
