@<TRIPOS>MOLECULE
*****
 34 38 0 0 0
SMALL
GASTEIGER

@<TRIPOS>ATOM
      1 C          -3.5732  -16.6400   23.1191 C.3     1  UNL1        0.0730
      2 N          -4.6269  -16.3353   24.1422 N.3     1  UNL1       -0.2726
      3 C          -4.3977  -16.1330   25.6107 C.3     1  UNL1        0.0721
      4 C          -5.7241  -15.8521   26.2525 C.3     1  UNL1        0.0190
      5 C          -6.7730  -15.8807   25.1806 C.3     1  UNL1        0.0201
      6 C          -7.9307  -15.5807   26.0860 C.3     1  UNL1        0.0061
      7 C          -8.1599  -15.7830   24.6175 C.3     1  UNL1        0.0237
      8 C          -6.0949  -16.1794   23.8764 C.3     1  UNL1        0.0724
      9 C          -9.0929  -15.8433   23.4446 C.ar    1  UNL1       -0.0225
     10 C          -8.5899  -15.5209   22.0687 C.ar    1  UNL1       -0.0043
     11 C          -9.5229  -15.5812   20.8958 C.ar    1  UNL1        0.0035
     12 C         -10.9589  -15.9639   21.0987 C.ar    1  UNL1        0.0714
     13 C         -11.4620  -16.2864   22.4746 C.ar    1  UNL1        0.0035
     14 C         -10.5290  -16.2260   23.6475 C.ar    1  UNL1       -0.0043
     15 C         -11.8920  -16.0243   19.9258 C.3     1  UNL1        0.4186
     16 F         -12.8251  -16.0846   18.7528 F       1  UNL1       -0.1659
     17 F         -10.9013  -15.2600   19.0985 F       1  UNL1       -0.1659
     18 F         -12.8826  -16.7886   20.7531 F       1  UNL1       -0.1659
     19 C          -2.6231  -17.7799   23.3376 C.3     1  UNL1        0.0294
     20 C          -1.8132  -18.3114   22.1923 C.3     1  UNL1        0.0666
     21 S          -2.4028  -19.3353   21.2682 S.3     1  UNL1       -0.0756
     22 C          -5.2775  -20.1042   22.6078 C.3     1  UNL1        0.1340
     23 N          -5.0731  -19.4566   21.2703 N.ar    1  UNL1       -0.2884
     24 C          -3.7518  -19.1032   20.6545 C.ar    1  UNL1        0.1932
     25 N          -4.0162  -18.4770   19.3174 N.ar    1  UNL1       -0.1221
     26 N          -5.5009  -18.4434   19.1068 N.ar    1  UNL1       -0.1282
     27 C          -6.1542  -19.0488   20.3137 C.ar    1  UNL1        0.1678
     28 C          -7.6295  -19.2169   20.5267 C.2     1  UNL1        0.0488
     29 C          -8.5507  -19.3190   19.3473 C.2     1  UNL1       -0.0121
     30 C         -10.0259  -19.4872   19.5602 C.3     1  UNL1        0.1133
     31 C         -10.5799  -19.5531   20.9527 C.2     1  UNL1        0.2500
     32 O         -12.0552  -19.7213   21.1657 O.2     1  UNL1       -0.2726
     33 N          -9.6587  -19.4510   22.1321 N.am    1  UNL1       -0.1775
     34 C          -8.1834  -19.2829   21.9190 C.2     1  UNL1        0.0913
@<TRIPOS>BOND
     1    22    23    1
     2    23    24   ar
     3    24    21    1
     4    21    20    1
     5    20    19    1
     6    19     1    1
     7     1     2    1
     8     2     3    1
     9     3     4    1
    10     5     4    1
    11     5     6    1
    12     6     7    1
    13     7     9    1
    14     9    10   ar
    15    10    11   ar
    16    11    12   ar
    17    12    15    1
    18    15    16    1
    19    15    17    1
    20    15    18    1
    21    12    13   ar
    22    13    14   ar
    23     5     8    1
    24    24    25   ar
    25    25    26   ar
    26    26    27   ar
    27    27    28    1
    28    28    29    2
    29    29    30    1
    30    30    31    1
    31    31    32    2
    32    31    33    1
    33    33    34    2
    34    27    23   ar
    35    34    28    1
    36     8     2    1
    37     7     5    1
    38    14     9   ar
@<TRIPOS>MOLECULE
*****
 34 38 0 0 0
SMALL
GASTEIGER

@<TRIPOS>ATOM
      1 C           7.3817   -3.9586   22.3588 C.3     1  UNL1        0.0730
      2 N           7.9837   -5.2084   22.9294 N.3     1  UNL1       -0.2726
      3 C           8.6600   -6.2969   22.1497 C.3     1  UNL1        0.0721
      4 C           9.1093   -7.3503   23.1184 C.3     1  UNL1        0.0190
      5 C           8.7108   -6.9129   24.4968 C.3     1  UNL1        0.0201
      6 C           9.2678   -8.1101   25.2084 C.3     1  UNL1        0.0061
      7 C           8.5915   -7.0217   25.9881 C.3     1  UNL1        0.0237
      8 C           8.0151   -5.5891   24.3800 C.3     1  UNL1        0.0724
      9 C           8.1322   -6.4560   27.2992 C.ar    1  UNL1       -0.0225
     10 C           6.8019   -5.7697   27.3951 C.ar    1  UNL1       -0.0043
     11 C           6.3426   -5.2041   28.7063 C.ar    1  UNL1        0.0035
     12 C           7.2137   -5.3248   29.9215 C.ar    1  UNL1        0.0714
     13 C           8.5440   -6.0111   29.8255 C.ar    1  UNL1        0.0035
     14 C           9.0033   -6.5767   28.5144 C.ar    1  UNL1       -0.0043
     15 C           6.7544   -4.7591   31.2326 C.3     1  UNL1        0.4186
     16 F           6.2951   -4.1935   32.5438 F       1  UNL1       -0.1659
     17 F           6.4972   -3.4372   30.5722 F       1  UNL1       -0.1659
     18 F           7.0116   -6.0811   31.8930 F       1  UNL1       -0.1659
     19 C           7.3798   -3.7367   20.8753 C.3     1  UNL1        0.0294
     20 C           8.4484   -2.8965   20.2411 C.3     1  UNL1        0.0666
     21 S           8.1074   -1.9864   19.0985 S.3     1  UNL1       -0.0756
     22 C           5.9285   -0.2568   20.8045 C.3     1  UNL1        0.1340
     23 N           5.6716   -0.9643   19.5070 N.ar    1  UNL1       -0.2884
     24 C           6.6731   -1.7593   18.7229 C.ar    1  UNL1        0.1932
     25 N           5.9885   -2.2874   17.4971 N.ar    1  UNL1       -0.1221
     26 N           4.5639   -1.8188   17.5237 N.ar    1  UNL1       -0.1282
     27 C           4.3679   -1.0010   18.7659 C.ar    1  UNL1        0.1678
     28 C           3.0924   -0.3366   19.1920 C.2     1  UNL1        0.0488
     29 C           2.0950   -1.0901   20.0211 C.2     1  UNL1       -0.0121
     30 C           0.8194   -0.4257   20.4473 C.3     1  UNL1        0.1133
     31 C           0.5414    0.9922   20.0443 C.2     1  UNL1        0.2500
     32 O          -0.7342    1.6565   20.4705 O.2     1  UNL1       -0.2726
     33 N           1.5388    1.7456   19.2152 N.am    1  UNL1       -0.1775
     34 C           2.8143    1.0812   18.7890 C.2     1  UNL1        0.0913
@<TRIPOS>BOND
     1    22    23    1
     2    23    24   ar
     3    24    21    1
     4    21    20    1
     5    20    19    1
     6    19     1    1
     7     1     2    1
     8     2     3    1
     9     3     4    1
    10     5     4    1
    11     5     6    1
    12     6     7    1
    13     7     9    1
    14     9    10   ar
    15    10    11   ar
    16    11    12   ar
    17    12    15    1
    18    15    16    1
    19    15    17    1
    20    15    18    1
    21    12    13   ar
    22    13    14   ar
    23     5     8    1
    24    24    25   ar
    25    25    26   ar
    26    26    27   ar
    27    27    28    1
    28    28    29    2
    29    29    30    1
    30    30    31    1
    31    31    32    2
    32    31    33    1
    33    33    34    2
    34    27    23   ar
    35    34    28    1
    36     8     2    1
    37     7     5    1
    38    14     9   ar
@<TRIPOS>MOLECULE
*****
 34 38 0 0 0
SMALL
GASTEIGER

@<TRIPOS>ATOM
      1 C          -1.5367    5.6679   17.9234 C.3     1  UNL1        0.0730
      2 N          -2.8367    4.9196   17.9115 N.3     1  UNL1       -0.2726
      3 C          -3.5116    4.3439   16.7019 C.3     1  UNL1        0.0721
      4 C          -4.7820    3.6842   17.1500 C.3     1  UNL1        0.0190
      5 C          -4.8923    3.8522   18.6365 C.3     1  UNL1        0.0201
      6 C          -6.1966    3.1256   18.7801 C.3     1  UNL1        0.0061
      7 C          -5.5218    3.7013   19.9896 C.3     1  UNL1        0.0237
      8 C          -3.6900    4.6158   19.1071 C.3     1  UNL1        0.0724
      9 C          -5.4956    3.9466   21.4692 C.ar    1  UNL1       -0.0225
     10 C          -6.2644    5.0948   22.0528 C.ar    1  UNL1       -0.0043
     11 C          -6.2382    5.3402   23.5324 C.ar    1  UNL1        0.0035
     12 C          -5.4431    4.4373   24.4283 C.ar    1  UNL1        0.0714
     13 C          -4.6743    3.2891   23.8447 C.ar    1  UNL1        0.0035
     14 C          -4.7005    3.0438   22.3651 C.ar    1  UNL1       -0.0043
     15 C          -5.4169    4.6826   25.9079 C.3     1  UNL1        0.4186
     16 F          -5.3907    4.9279   27.3875 F       1  UNL1       -0.1659
     17 F          -6.4435    5.7643   25.7467 F       1  UNL1       -0.1659
     18 F          -4.3903    3.6009   26.0690 F       1  UNL1       -0.1659
     19 C          -0.2882    5.0104   17.4146 C.3     1  UNL1        0.0294
     20 C           0.1099    3.6582   17.9276 C.3     1  UNL1        0.0666
     21 S           0.4119    3.4678   19.3845 S.3     1  UNL1       -0.0756
     22 C           3.2251    1.8307   19.6193 C.3     1  UNL1        0.1340
     23 N           1.8768    1.3327   20.0482 N.ar    1  UNL1       -0.2884
     24 C           0.5837    2.0852   19.9403 C.ar    1  UNL1        0.1932
     25 N          -0.5075    1.2124   20.4857 N.ar    1  UNL1       -0.1221
     26 N           0.1112   -0.0795   20.9308 N.ar    1  UNL1       -0.1282
     27 C           1.5848   -0.0052   20.6604 C.ar    1  UNL1        0.1678
     28 C           2.5898   -1.0801   20.9512 C.2     1  UNL1        0.0488
     29 C           3.0366   -2.0048   19.8578 C.2     1  UNL1       -0.0121
     30 C           4.0416   -3.0796   20.1486 C.3     1  UNL1        0.1133
     31 C           4.5999   -3.2297   21.5328 C.2     1  UNL1        0.2500
     32 O           5.6050   -4.3046   21.8235 O.2     1  UNL1       -0.2726
     33 N           4.1532   -2.3051   22.6261 N.am    1  UNL1       -0.1775
     34 C           3.1481   -1.2302   22.3353 C.2     1  UNL1        0.0913
@<TRIPOS>BOND
     1    22    23    1
     2    23    24   ar
     3    24    21    1
     4    21    20    1
     5    20    19    1
     6    19     1    1
     7     1     2    1
     8     2     3    1
     9     3     4    1
    10     5     4    1
    11     5     6    1
    12     6     7    1
    13     7     9    1
    14     9    10   ar
    15    10    11   ar
    16    11    12   ar
    17    12    15    1
    18    15    16    1
    19    15    17    1
    20    15    18    1
    21    12    13   ar
    22    13    14   ar
    23     5     8    1
    24    24    25   ar
    25    25    26   ar
    26    26    27   ar
    27    27    28    1
    28    28    29    2
    29    29    30    1
    30    30    31    1
    31    31    32    2
    32    31    33    1
    33    33    34    2
    34    27    23   ar
    35    34    28    1
    36     8     2    1
    37     7     5    1
    38    14     9   ar
@<TRIPOS>MOLECULE
*****
 34 38 0 0 0
SMALL
GASTEIGER

@<TRIPOS>ATOM
      1 C          -0.4542    2.9872   24.9907 C.3     1  UNL1        0.0730
      2 N          -0.8963    3.1930   23.5722 N.3     1  UNL1       -0.2726
      3 C          -2.0105    4.0882   23.1169 C.3     1  UNL1        0.0721
      4 C          -2.1045    3.9882   21.6232 C.3     1  UNL1        0.0190
      5 C          -1.0485    3.0312   21.1553 C.3     1  UNL1        0.0201
      6 C          -1.3777    3.1358   19.6956 C.3     1  UNL1        0.0061
      7 C          -0.2635    2.2406   20.1509 C.3     1  UNL1        0.0237
      8 C          -0.3017    2.5397   22.3598 C.3     1  UNL1        0.0724
      9 C           0.8330    1.2674   19.8338 C.ar    1  UNL1       -0.0225
     10 C           0.7891   -0.1218   20.3979 C.ar    1  UNL1       -0.0043
     11 C           1.8855   -1.0950   20.0809 C.ar    1  UNL1        0.0035
     12 C           3.0259   -0.6791   19.1997 C.ar    1  UNL1        0.0714
     13 C           3.0698    0.7101   18.6355 C.ar    1  UNL1        0.0035
     14 C           1.9733    1.6834   18.9526 C.ar    1  UNL1       -0.0043
     15 C           4.1224   -1.6523   18.8826 C.3     1  UNL1        0.4186
     16 F           5.2189   -2.6256   18.5655 F       1  UNL1       -0.1659
     17 F           5.0779   -0.5125   18.6882 F       1  UNL1       -0.1659
     18 F           3.1669   -2.7921   19.0770 F       1  UNL1       -0.1659
     19 C          -0.1933    1.6012   25.5014 C.3     1  UNL1        0.0294
     20 C           0.8749    1.3690   26.5286 C.3     1  UNL1        0.0666
     21 S           2.3089    1.6597   26.1983 S.3     1  UNL1       -0.0756
     22 C           3.8798   -1.1675   25.7640 C.3     1  UNL1        0.1340
     23 N           3.6185   -0.1330   24.7097 N.ar    1  UNL1       -0.2884
     24 C           2.8964    1.1665   24.9093 C.ar    1  UNL1        0.1932
     25 N           2.8651    1.8863   23.5937 N.ar    1  UNL1       -0.1221
     26 N           3.5678    1.0316   22.5809 N.ar    1  UNL1       -0.1282
     27 C           4.0334   -0.2164   23.2705 C.ar    1  UNL1        0.1678
     28 C           4.7825   -1.3489   22.6331 C.2     1  UNL1        0.0488
     29 C           4.1340   -2.6946   22.4969 C.2     1  UNL1       -0.0121
     30 C           4.8830   -3.8271   21.8595 C.3     1  UNL1        0.1133
     31 C           6.2807   -3.6138   21.3582 C.2     1  UNL1        0.2500
     32 O           7.0297   -4.7464   20.7207 O.2     1  UNL1       -0.2726
     33 N           6.9292   -2.2682   21.4944 N.am    1  UNL1       -0.1775
     34 C           6.1801   -1.1357   22.1318 C.2     1  UNL1        0.0913
@<TRIPOS>BOND
     1    22    23    1
     2    23    24   ar
     3    24    21    1
     4    21    20    1
     5    20    19    1
     6    19     1    1
     7     1     2    1
     8     2     3    1
     9     3     4    1
    10     5     4    1
    11     5     6    1
    12     6     7    1
    13     7     9    1
    14     9    10   ar
    15    10    11   ar
    16    11    12   ar
    17    12    15    1
    18    15    16    1
    19    15    17    1
    20    15    18    1
    21    12    13   ar
    22    13    14   ar
    23     5     8    1
    24    24    25   ar
    25    25    26   ar
    26    26    27   ar
    27    27    28    1
    28    28    29    2
    29    29    30    1
    30    30    31    1
    31    31    32    2
    32    31    33    1
    33    33    34    2
    34    27    23   ar
    35    34    28    1
    36     8     2    1
    37     7     5    1
    38    14     9   ar
@<TRIPOS>MOLECULE
*****
 34 38 0 0 0
SMALL
GASTEIGER

@<TRIPOS>ATOM
      1 C           4.0946    3.8273   19.3177 C.3     1  UNL1        0.0730
      2 N           3.1219    2.6855   19.3241 N.3     1  UNL1       -0.2726
      3 C           2.0337    2.4487   18.3192 C.3     1  UNL1        0.0721
      4 C           1.3059    1.1969   18.7105 C.3     1  UNL1        0.0190
      5 C           1.9442    0.6600   19.9572 C.3     1  UNL1        0.0201
      6 C           1.0436   -0.5317   20.0938 C.3     1  UNL1        0.0061
      7 C           2.1317   -0.2949   21.0987 C.3     1  UNL1        0.0237
      8 C           3.0666    1.5800   20.3364 C.3     1  UNL1        0.0724
      9 C           2.8682   -0.7095   22.3379 C.ar    1  UNL1       -0.0225
     10 C           3.9062   -1.7901   22.2673 C.ar    1  UNL1       -0.0043
     11 C           4.6428   -2.2046   23.5065 C.ar    1  UNL1        0.0035
     12 C           4.3413   -1.5386   24.8163 C.ar    1  UNL1        0.0714
     13 C           3.3033   -0.4581   24.8869 C.ar    1  UNL1        0.0035
     14 C           2.5668   -0.0435   23.6477 C.ar    1  UNL1       -0.0043
     15 C           5.0778   -1.9532   26.0555 C.3     1  UNL1        0.4186
     16 F           5.8144   -2.3679   27.2948 F       1  UNL1       -0.1659
     17 F           4.3524   -0.8998   26.8391 F       1  UNL1       -0.1659
     18 F           5.8032   -3.0067   25.2720 F       1  UNL1       -0.1659
     19 C           5.2820    3.7960   18.4017 C.3     1  UNL1        0.0294
     20 C           6.6692    3.7744   18.9721 C.3     1  UNL1        0.0666
     21 S           7.6305    2.6971   18.5657 S.3     1  UNL1       -0.0756
     22 C           6.2259    0.5317   20.5627 C.3     1  UNL1        0.1340
     23 N           6.4722    0.3468   19.0946 N.ar    1  UNL1       -0.2884
     24 C           7.1178    1.3422   18.1767 C.ar    1  UNL1        0.1932
     25 N           7.1607    0.7447   16.8015 N.ar    1  UNL1       -0.1221
     26 N           6.5417   -0.6199   16.8694 N.ar    1  UNL1       -0.1282
     27 C           6.1161   -0.8658   18.2867 C.ar    1  UNL1        0.1678
     28 C           5.4512   -2.1066   18.8049 C.2     1  UNL1        0.0488
     29 C           6.2470   -3.1179   19.5756 C.2     1  UNL1       -0.0121
     30 C           5.5821   -4.3586   20.0938 C.3     1  UNL1        0.1133
     31 C           4.1213   -4.5879   19.8414 C.2     1  UNL1        0.2500
     32 O           3.4564   -5.8286   20.3596 O.2     1  UNL1       -0.2726
     33 N           3.3255   -3.5765   19.0708 N.am    1  UNL1       -0.1775
     34 C           3.9905   -2.3358   18.5525 C.2     1  UNL1        0.0913
@<TRIPOS>BOND
     1    22    23    1
     2    23    24   ar
     3    24    21    1
     4    21    20    1
     5    20    19    1
     6    19     1    1
     7     1     2    1
     8     2     3    1
     9     3     4    1
    10     5     4    1
    11     5     6    1
    12     6     7    1
    13     7     9    1
    14     9    10   ar
    15    10    11   ar
    16    11    12   ar
    17    12    15    1
    18    15    16    1
    19    15    17    1
    20    15    18    1
    21    12    13   ar
    22    13    14   ar
    23     5     8    1
    24    24    25   ar
    25    25    26   ar
    26    26    27   ar
    27    27    28    1
    28    28    29    2
    29    29    30    1
    30    30    31    1
    31    31    32    2
    32    31    33    1
    33    33    34    2
    34    27    23   ar
    35    34    28    1
    36     8     2    1
    37     7     5    1
    38    14     9   ar
@<TRIPOS>MOLECULE
*****
 34 38 0 0 0
SMALL
GASTEIGER

@<TRIPOS>ATOM
      1 C          -1.3758    5.4080   18.0426 C.3     1  UNL1        0.0730
      2 N          -2.7237    4.7510   18.0034 N.3     1  UNL1       -0.2726
      3 C          -3.4108    4.2209   16.7800 C.3     1  UNL1        0.0721
      4 C          -4.7329    3.6510   17.2012 C.3     1  UNL1        0.0190
      5 C          -4.8628    3.8288   18.6849 C.3     1  UNL1        0.0201
      6 C          -6.2168    3.1940   18.8010 C.3     1  UNL1        0.0061
      7 C          -5.5297    3.7241   20.0245 C.3     1  UNL1        0.0237
      8 C          -3.6210    4.5087   19.1807 C.3     1  UNL1        0.0724
      9 C          -5.5179    3.9697   21.5042 C.ar    1  UNL1       -0.0225
     10 C          -6.3287    5.0901   22.0849 C.ar    1  UNL1       -0.0043
     11 C          -6.3170    5.3357   23.5646 C.ar    1  UNL1        0.0035
     12 C          -5.4945    4.4609   24.4635 C.ar    1  UNL1        0.0714
     13 C          -4.6837    3.3404   23.8828 C.ar    1  UNL1        0.0035
     14 C          -4.6954    3.0948   22.4031 C.ar    1  UNL1       -0.0043
     15 C          -5.4827    4.7064   25.9432 C.3     1  UNL1        0.4186
     16 F          -5.4710    4.9521   27.4230 F       1  UNL1       -0.1659
     17 F          -4.6177    3.4965   26.1372 F       1  UNL1       -0.1659
     18 F          -6.3478    5.9164   25.7493 F       1  UNL1       -0.1659
     19 C          -0.2426    4.7518   18.7742 C.3     1  UNL1        0.0294
     20 C          -0.3221    3.2968   19.1303 C.3     1  UNL1        0.0666
     21 S           0.5792    2.3082   18.4518 S.3     1  UNL1       -0.0756
     22 C           3.4451    0.7796   18.1370 C.3     1  UNL1        0.1340
     23 N           2.3120    0.3549   19.0234 N.ar    1  UNL1       -0.2884
     24 C           0.9947    1.0575   19.1680 C.ar    1  UNL1        0.1932
     25 N           0.1657    0.2899   20.1547 N.ar    1  UNL1       -0.1221
     26 N           0.9707   -0.8872   20.6199 N.ar    1  UNL1       -0.1282
     27 C           2.2972   -0.8471   19.9207 C.ar    1  UNL1        0.1678
     28 C           3.4130   -1.8354   20.0892 C.2     1  UNL1        0.0488
     29 C           3.5188   -3.0120   19.1649 C.2     1  UNL1       -0.0121
     30 C           4.6345   -4.0002   19.3334 C.3     1  UNL1        0.1133
     31 C           5.6446   -3.8118   20.4264 C.2     1  UNL1        0.2500
     32 O           6.7603   -4.8001   20.5949 O.2     1  UNL1       -0.2726
     33 N           5.5388   -2.6352   21.3507 N.am    1  UNL1       -0.1775
     34 C           4.4230   -1.6470   21.1821 C.2     1  UNL1        0.0913
@<TRIPOS>BOND
     1    22    23    1
     2    23    24   ar
     3    24    21    1
     4    21    20    1
     5    20    19    1
     6    19     1    1
     7     1     2    1
     8     2     3    1
     9     3     4    1
    10     5     4    1
    11     5     6    1
    12     6     7    1
    13     7     9    1
    14     9    10   ar
    15    10    11   ar
    16    11    12   ar
    17    12    15    1
    18    15    16    1
    19    15    17    1
    20    15    18    1
    21    12    13   ar
    22    13    14   ar
    23     5     8    1
    24    24    25   ar
    25    25    26   ar
    26    26    27   ar
    27    27    28    1
    28    28    29    2
    29    29    30    1
    30    30    31    1
    31    31    32    2
    32    31    33    1
    33    33    34    2
    34    27    23   ar
    35    34    28    1
    36     8     2    1
    37     7     5    1
    38    14     9   ar
@<TRIPOS>MOLECULE
*****
 34 38 0 0 0
SMALL
GASTEIGER

@<TRIPOS>ATOM
      1 C           5.7004   -1.2911   27.0039 C.3     1  UNL1        0.0730
      2 N           6.0961   -2.4282   27.8985 N.3     1  UNL1       -0.2726
      3 C           6.5599   -3.7825   27.4502 C.3     1  UNL1        0.0721
      4 C           6.8479   -4.6020   28.6731 C.3     1  UNL1        0.0190
      5 C           6.5620   -3.7543   29.8771 C.3     1  UNL1        0.0201
      6 C           6.9257   -4.7966   30.8927 C.3     1  UNL1        0.0061
      7 C           6.4619   -3.4423   31.3409 C.3     1  UNL1        0.0237
      8 C           6.0974   -2.4108   29.3984 C.3     1  UNL1        0.0724
      9 C           6.1362   -2.4804   32.4448 C.ar    1  UNL1       -0.0225
     10 C           4.7697   -2.4832   33.0633 C.ar    1  UNL1       -0.0043
     11 C           4.4441   -1.5213   34.1672 C.ar    1  UNL1        0.0035
     12 C           5.4850   -0.5565   34.6526 C.ar    1  UNL1        0.0714
     13 C           6.8515   -0.5536   34.0341 C.ar    1  UNL1        0.0035
     14 C           7.1772   -1.5156   32.9302 C.ar    1  UNL1       -0.0043
     15 C           5.1594    0.4055   35.7565 C.3     1  UNL1        0.4186
     16 F           4.8337    1.3675   36.8604 F       1  UNL1       -0.1659
     17 F           6.0034    1.4529   35.0928 F       1  UNL1       -0.1659
     18 F           4.3153   -0.6419   36.4202 F       1  UNL1       -0.1659
     19 C           4.2514   -0.9476   26.8238 C.3     1  UNL1        0.0294
     20 C           3.5582   -0.0716   27.8249 C.3     1  UNL1        0.0666
     21 S           2.7359   -0.6872   28.9179 S.3     1  UNL1       -0.0756
     22 C           4.0015    0.9984   31.4092 C.3     1  UNL1        0.1340
     23 N           2.5554    0.9640   31.0122 N.ar    1  UNL1       -0.2884
     24 C           1.9737    0.1892   29.8672 C.ar    1  UNL1        0.1932
     25 N           0.4958    0.4446   29.8379 N.ar    1  UNL1       -0.1221
     26 N           0.1643    1.3773   30.9649 N.ar    1  UNL1       -0.1282
     27 C           1.4371    1.6983   31.6908 C.ar    1  UNL1        0.1678
     28 C           1.5686    2.5960   32.8853 C.2     1  UNL1        0.0488
     29 C           2.3112    2.1239   34.1001 C.2     1  UNL1       -0.0121
     30 C           2.4427    3.0216   35.2946 C.3     1  UNL1        0.1133
     31 C           1.8315    4.3913   35.2743 C.2     1  UNL1        0.2500
     32 O           1.9630    5.2890   36.4688 O.2     1  UNL1       -0.2726
     33 N           1.0889    4.8634   34.0595 N.am    1  UNL1       -0.1775
     34 C           0.9575    3.9656   32.8650 C.2     1  UNL1        0.0913
@<TRIPOS>BOND
     1    22    23    1
     2    23    24   ar
     3    24    21    1
     4    21    20    1
     5    20    19    1
     6    19     1    1
     7     1     2    1
     8     2     3    1
     9     3     4    1
    10     5     4    1
    11     5     6    1
    12     6     7    1
    13     7     9    1
    14     9    10   ar
    15    10    11   ar
    16    11    12   ar
    17    12    15    1
    18    15    16    1
    19    15    17    1
    20    15    18    1
    21    12    13   ar
    22    13    14   ar
    23     5     8    1
    24    24    25   ar
    25    25    26   ar
    26    26    27   ar
    27    27    28    1
    28    28    29    2
    29    29    30    1
    30    30    31    1
    31    31    32    2
    32    31    33    1
    33    33    34    2
    34    27    23   ar
    35    34    28    1
    36     8     2    1
    37     7     5    1
    38    14     9   ar
@<TRIPOS>MOLECULE
*****
 34 38 0 0 0
SMALL
GASTEIGER

@<TRIPOS>ATOM
      1 C           6.7021   -2.7048   26.8118 C.3     1  UNL1        0.0730
      2 N           6.8616   -3.7187   27.9057 N.3     1  UNL1       -0.2726
      3 C           7.2088   -5.1664   27.7222 C.3     1  UNL1        0.0721
      4 C           7.2637   -5.8053   29.0782 C.3     1  UNL1        0.0190
      5 C           6.9504   -4.7525   30.0998 C.3     1  UNL1        0.0201
      6 C           7.0763   -5.6508   31.2944 C.3     1  UNL1        0.0061
      7 C           6.7291   -4.2031   31.4779 C.3     1  UNL1        0.0237
      8 C           6.7019   -3.4629   29.3751 C.3     1  UNL1        0.0724
      9 C           6.4009   -3.0501   32.3794 C.ar    1  UNL1       -0.0225
     10 C           7.4578   -2.0430   32.7241 C.ar    1  UNL1       -0.0043
     11 C           7.1295   -0.8900   33.6257 C.ar    1  UNL1        0.0035
     12 C           5.7444   -0.7441   34.1825 C.ar    1  UNL1        0.0714
     13 C           4.6875   -1.7512   33.8379 C.ar    1  UNL1        0.0035
     14 C           5.0157   -2.9042   32.9363 C.ar    1  UNL1       -0.0043
     15 C           5.4162    0.4089   35.0841 C.3     1  UNL1        0.4186
     16 F           5.0879    1.5620   35.9857 F       1  UNL1       -0.1659
     17 F           6.3631    1.2807   34.3139 F       1  UNL1       -0.1659
     18 F           4.4692   -0.4629   35.8543 F       1  UNL1       -0.1659
     19 C           7.1429   -3.0320   25.4159 C.3     1  UNL1        0.0294
     20 C           6.1584   -3.5857   24.4288 C.3     1  UNL1        0.0666
     21 S           6.5192   -3.6676   22.9752 S.3     1  UNL1       -0.0756
     22 C           5.1357   -0.7851   22.3219 C.3     1  UNL1        0.1340
     23 N           4.8415   -2.0818   21.6278 N.ar    1  UNL1       -0.2884
     24 C           5.4774   -3.4068   21.9280 C.ar    1  UNL1        0.1932
     25 N           4.8885   -4.4252   20.9973 N.ar    1  UNL1       -0.1221
     26 N           3.8887   -3.7296   20.1218 N.ar    1  UNL1       -0.1282
     27 C           3.8595   -2.2814   20.5114 C.ar    1  UNL1        0.1678
     28 C           2.9995   -1.2192   19.8932 C.2     1  UNL1        0.0488
     29 C           1.6538   -0.9089   20.4786 C.2     1  UNL1       -0.0121
     30 C           0.7938    0.1533   19.8605 C.3     1  UNL1        0.1133
     31 C           1.2796    0.9052   18.6568 C.2     1  UNL1        0.2500
     32 O           0.4196    1.9674   18.0386 O.2     1  UNL1       -0.2726
     33 N           2.6254    0.5950   18.0714 N.am    1  UNL1       -0.1775
     34 C           3.4853   -0.4673   18.6897 C.2     1  UNL1        0.0913
@<TRIPOS>BOND
     1    22    23    1
     2    23    24   ar
     3    24    21    1
     4    21    20    1
     5    20    19    1
     6    19     1    1
     7     1     2    1
     8     2     3    1
     9     3     4    1
    10     5     4    1
    11     5     6    1
    12     6     7    1
    13     7     9    1
    14     9    10   ar
    15    10    11   ar
    16    11    12   ar
    17    12    15    1
    18    15    16    1
    19    15    17    1
    20    15    18    1
    21    12    13   ar
    22    13    14   ar
    23     5     8    1
    24    24    25   ar
    25    25    26   ar
    26    26    27   ar
    27    27    28    1
    28    28    29    2
    29    29    30    1
    30    30    31    1
    31    31    32    2
    32    31    33    1
    33    33    34    2
    34    27    23   ar
    35    34    28    1
    36     8     2    1
    37     7     5    1
    38    14     9   ar
@<TRIPOS>MOLECULE
*****
 34 38 0 0 0
SMALL
GASTEIGER

@<TRIPOS>ATOM
      1 C          -0.6631    4.0892   18.2281 C.3     1  UNL1        0.0730
      2 N          -2.1508    3.9575   18.0896 N.3     1  UNL1       -0.2726
      3 C          -2.9023    3.7523   16.8077 C.3     1  UNL1        0.0721
      4 C          -4.3642    3.6759   17.1346 C.3     1  UNL1        0.0190
      5 C          -4.5163    3.8340   18.6185 C.3     1  UNL1        0.0201
      6 C          -6.0118    3.7195   18.6359 C.3     1  UNL1        0.0061
      7 C          -5.2604    3.9248   19.9178 C.3     1  UNL1        0.0237
      8 C          -3.1483    4.0080   19.2087 C.3     1  UNL1        0.0724
      9 C          -5.2561    4.0958   21.4080 C.ar    1  UNL1       -0.0225
     10 C          -4.8606    2.9512   22.2931 C.ar    1  UNL1       -0.0043
     11 C          -4.8563    3.1222   23.7833 C.ar    1  UNL1        0.0035
     12 C          -5.2476    4.4378   24.3884 C.ar    1  UNL1        0.0714
     13 C          -5.6431    5.5824   23.5033 C.ar    1  UNL1        0.0035
     14 C          -5.6474    5.4114   22.0131 C.ar    1  UNL1       -0.0043
     15 C          -5.2433    4.6087   25.8786 C.3     1  UNL1        0.4186
     16 F          -5.2390    4.7797   27.3689 F       1  UNL1       -0.1659
     17 F          -6.1593    5.7891   25.7458 F       1  UNL1       -0.1659
     18 F          -4.3273    3.4284   26.0114 F       1  UNL1       -0.1659
     19 C           0.0984    3.1247   19.0882 C.3     1  UNL1        0.0294
     20 C           0.2997    3.4168   20.5457 C.3     1  UNL1        0.0666
     21 S           0.1117    2.3292   21.5615 S.3     1  UNL1       -0.0756
     22 C           1.2966    0.9784   24.2856 C.3     1  UNL1        0.1340
     23 N           0.2534    2.0540   24.2165 N.ar    1  UNL1       -0.2884
     24 C          -0.2913    2.6749   22.9644 C.ar    1  UNL1        0.1932
     25 N          -1.3096    3.7022   23.3614 N.ar    1  UNL1       -0.1221
     26 N          -1.3944    3.7162   24.8590 N.ar    1  UNL1       -0.1282
     27 C          -0.4284    2.6976   25.3875 C.ar    1  UNL1        0.1678
     28 C          -0.1866    2.3786   26.8331 C.2     1  UNL1        0.0488
     29 C           0.4594    3.3948   27.7276 C.2     1  UNL1       -0.0121
     30 C           0.7012    3.0757   29.1732 C.3     1  UNL1        0.1133
     31 C           0.2969    1.7404   29.7243 C.2     1  UNL1        0.2500
     32 O           0.5387    1.4214   31.1699 O.2     1  UNL1       -0.2726
     33 N          -0.3491    0.7242   28.8298 N.am    1  UNL1       -0.1775
     34 C          -0.5908    1.0434   27.3842 C.2     1  UNL1        0.0913
@<TRIPOS>BOND
     1    22    23    1
     2    23    24   ar
     3    24    21    1
     4    21    20    1
     5    20    19    1
     6    19     1    1
     7     1     2    1
     8     2     3    1
     9     3     4    1
    10     5     4    1
    11     5     6    1
    12     6     7    1
    13     7     9    1
    14     9    10   ar
    15    10    11   ar
    16    11    12   ar
    17    12    15    1
    18    15    16    1
    19    15    17    1
    20    15    18    1
    21    12    13   ar
    22    13    14   ar
    23     5     8    1
    24    24    25   ar
    25    25    26   ar
    26    26    27   ar
    27    27    28    1
    28    28    29    2
    29    29    30    1
    30    30    31    1
    31    31    32    2
    32    31    33    1
    33    33    34    2
    34    27    23   ar
    35    34    28    1
    36     8     2    1
    37     7     5    1
    38    14     9   ar
