@<TRIPOS>MOLECULE
*****
 18 19 0 0 0
SMALL
GASTEIGER

@<TRIPOS>ATOM
      1 C         -10.2025  -18.6724   23.9721 C.ar    1  UNL1        0.2250
      2 C          -9.6518  -19.9917   23.5183 C.ar    1  UNL1        0.0592
      3 C          -8.3543  -20.0445   22.7675 C.ar    1  UNL1        0.0239
      4 C          -7.6075  -18.7779   22.4705 C.ar    1  UNL1        0.0849
      5 C          -8.1583  -17.4586   22.9244 C.ar    1  UNL1        0.1195
      6 N          -9.4558  -17.4058   23.6752 N.ar    1  UNL1       -0.2086
      7 N          -6.3100  -18.8307   21.7197 N.ar    1  UNL1       -0.2849
      8 C          -6.1458  -19.1573   20.2650 C.ar    1  UNL1        0.1023
      9 C          -4.6832  -19.0946   19.9380 C.ar    1  UNL1        0.1196
     10 N          -3.9435  -18.7293   21.1907 N.ar    1  UNL1       -0.2220
     11 C          -4.9489  -18.5662   22.2919 C.ar    1  UNL1        0.1829
     12 O         -11.5000  -18.6196   24.7229 O.3     1  UNL1       -0.4602
     13 C         -12.7752  -18.3109   23.9959 C.3     1  UNL1        0.2071
     14 C         -12.7750  -17.3222   22.8678 C.3     1  UNL1        0.0474
     15 C         -12.7303  -17.8043   21.4481 C.3     1  UNL1        0.0038
     16 C         -11.7184  -17.2394   20.4957 C.3     1  UNL1        0.0001
     17 C         -10.6510  -19.5476   19.9638 C.3     1  UNL1        0.0000
     18 C         -10.5277  -18.0584   20.0938 C.3     1  UNL1        0.0000
@<TRIPOS>BOND
     1    17    18    1
     2    18    16    1
     3    16    15    1
     4    15    14    1
     5    14    13    1
     6    13    12    1
     7    12     1    1
     8     1     2   ar
     9     2     3   ar
    10     3     4   ar
    11     4     7    1
    12     7     8   ar
    13     8     9   ar
    14     9    10   ar
    15    10    11   ar
    16     4     5   ar
    17     5     6   ar
    18     6     1   ar
    19    11     7   ar
@<TRIPOS>MOLECULE
*****
 18 19 0 0 0
SMALL
GASTEIGER

@<TRIPOS>ATOM
      1 C          -9.7797  -18.5158   20.3232 C.ar    1  UNL1        0.2250
      2 C          -9.0437  -19.5380   19.5088 C.ar    1  UNL1        0.0592
      3 C          -7.5848  -19.7844   19.7551 C.ar    1  UNL1        0.0239
      4 C          -6.8617  -19.0086   20.8158 C.ar    1  UNL1        0.0849
      5 C          -7.5977  -17.9863   21.6302 C.ar    1  UNL1        0.1195
      6 N          -9.0567  -17.7399   21.3839 N.ar    1  UNL1       -0.2086
      7 N          -5.4028  -19.2549   21.0621 N.ar    1  UNL1       -0.2849
      8 C          -4.3795  -19.6033   20.0221 C.ar    1  UNL1        0.1023
      9 C          -3.0552  -19.7599   20.7089 C.ar    1  UNL1        0.1196
     10 N          -3.2600  -19.5083   22.1734 N.ar    1  UNL1       -0.2220
     11 C          -4.7108  -19.1962   22.3917 C.ar    1  UNL1        0.1829
     12 O         -11.2387  -18.2694   20.0768 O.3     1  UNL1       -0.4602
     13 C         -12.0071  -17.3507   20.9799 C.3     1  UNL1        0.2071
     14 C         -12.9854  -17.9149   21.9671 C.3     1  UNL1        0.0474
     15 C         -12.6242  -17.9913   23.4210 C.3     1  UNL1        0.0038
     16 C         -11.2671  -18.4806   23.8319 C.3     1  UNL1        0.0001
     17 C          -9.4851  -20.3700   23.9009 C.3     1  UNL1        0.0000
     18 C         -10.8713  -19.9032   23.5684 C.3     1  UNL1        0.0000
@<TRIPOS>BOND
     1    17    18    1
     2    18    16    1
     3    16    15    1
     4    15    14    1
     5    14    13    1
     6    13    12    1
     7    12     1    1
     8     1     2   ar
     9     2     3   ar
    10     3     4   ar
    11     4     7    1
    12     7     8   ar
    13     8     9   ar
    14     9    10   ar
    15    10    11   ar
    16     4     5   ar
    17     5     6   ar
    18     6     1   ar
    19    11     7   ar
@<TRIPOS>MOLECULE
*****
 18 19 0 0 0
SMALL
GASTEIGER

@<TRIPOS>ATOM
      1 C          -9.9669  -16.2007   21.5582 C.ar    1  UNL1        0.2250
      2 C         -10.5833  -16.3885   22.9127 C.ar    1  UNL1        0.0592
      3 C          -9.7555  -16.1889   24.1476 C.ar    1  UNL1        0.0239
      4 C          -8.3114  -15.8015   24.0280 C.ar    1  UNL1        0.0849
      5 C          -7.6950  -15.6138   22.6735 C.ar    1  UNL1        0.1195
      6 N          -8.5228  -15.8133   21.4386 N.ar    1  UNL1       -0.2086
      7 N          -7.4836  -15.6020   25.2629 N.ar    1  UNL1       -0.2849
      8 C          -7.9681  -15.7197   26.6776 C.ar    1  UNL1        0.1023
      9 C          -6.8099  -15.4401   27.5890 C.ar    1  UNL1        0.1196
     10 N          -5.6097  -15.1496   26.7375 N.ar    1  UNL1       -0.2220
     11 C          -6.0261  -15.2496   25.2999 C.ar    1  UNL1        0.1829
     12 O         -10.7947  -16.4003   20.3233 O.3     1  UNL1       -0.4602
     13 C         -11.0161  -17.7824   19.7841 C.3     1  UNL1        0.2071
     14 C         -11.7020  -18.8157   20.6278 C.3     1  UNL1        0.0474
     15 C         -10.9383  -20.0092   21.1203 C.3     1  UNL1        0.0038
     16 C         -10.1208  -19.9113   22.3741 C.3     1  UNL1        0.0001
     17 C          -9.9894  -19.8258   24.9674 C.3     1  UNL1        0.0000
     18 C         -10.7826  -20.0455   23.7134 C.3     1  UNL1        0.0000
@<TRIPOS>BOND
     1    17    18    1
     2    18    16    1
     3    16    15    1
     4    15    14    1
     5    14    13    1
     6    13    12    1
     7    12     1    1
     8     1     2   ar
     9     2     3   ar
    10     3     4   ar
    11     4     7    1
    12     7     8   ar
    13     8     9   ar
    14     9    10   ar
    15    10    11   ar
    16     4     5   ar
    17     5     6   ar
    18     6     1   ar
    19    11     7   ar
@<TRIPOS>MOLECULE
*****
 18 19 0 0 0
SMALL
GASTEIGER

@<TRIPOS>ATOM
      1 C         -10.2112  -16.9674   21.4186 C.ar    1  UNL1        0.2250
      2 C          -9.1663  -16.4486   22.3615 C.ar    1  UNL1        0.0592
      3 C          -7.8086  -17.0850   22.4003 C.ar    1  UNL1        0.0239
      4 C          -7.4957  -18.2403   21.4961 C.ar    1  UNL1        0.0849
      5 C          -8.5405  -18.7591   20.5532 C.ar    1  UNL1        0.1195
      6 N          -9.8983  -18.1227   20.5145 N.ar    1  UNL1       -0.2086
      7 N          -6.1379  -18.8767   21.5349 N.ar    1  UNL1       -0.2849
      8 C          -5.0459  -18.5653   22.5150 C.ar    1  UNL1        0.1023
      9 C          -3.8669  -19.4324   22.1863 C.ar    1  UNL1        0.1196
     10 N          -4.2302  -20.2797   21.0030 N.ar    1  UNL1       -0.2220
     11 C          -5.6338  -19.9362   20.6005 C.ar    1  UNL1        0.1829
     12 O         -11.5689  -16.3310   21.3798 O.3     1  UNL1       -0.4602
     13 C         -12.4600  -16.3910   22.5849 C.3     1  UNL1        0.2071
     14 C         -13.0093  -17.7082   23.0467 C.3     1  UNL1        0.0474
     15 C         -12.3433  -18.4460   24.1703 C.3     1  UNL1        0.0038
     16 C         -11.1986  -19.3724   23.8847 C.3     1  UNL1        0.0001
     17 C          -9.6009  -18.2206   25.5791 C.3     1  UNL1        0.0000
     18 C         -10.0389  -19.4461   24.8331 C.3     1  UNL1        0.0000
@<TRIPOS>BOND
     1    17    18    1
     2    18    16    1
     3    16    15    1
     4    15    14    1
     5    14    13    1
     6    13    12    1
     7    12     1    1
     8     1     2   ar
     9     2     3   ar
    10     3     4   ar
    11     4     7    1
    12     7     8   ar
    13     8     9   ar
    14     9    10   ar
    15    10    11   ar
    16     4     5   ar
    17     5     6   ar
    18     6     1   ar
    19    11     7   ar
@<TRIPOS>MOLECULE
*****
 18 19 0 0 0
SMALL
GASTEIGER

@<TRIPOS>ATOM
      1 C         -10.4283  -17.2305   21.7132 C.ar    1  UNL1        0.2250
      2 C         -10.5951  -17.7010   23.1276 C.ar    1  UNL1        0.0592
      3 C          -9.6175  -17.2716   24.1811 C.ar    1  UNL1        0.0239
      4 C          -8.4731  -16.3716   23.8202 C.ar    1  UNL1        0.0849
      5 C          -8.3063  -15.9010   22.4057 C.ar    1  UNL1        0.1195
      6 N          -9.2839  -16.3305   21.3522 N.ar    1  UNL1       -0.2086
      7 N          -7.4954  -15.9422   24.8737 N.ar    1  UNL1       -0.2849
      8 C          -6.0344  -15.6750   24.6643 C.ar    1  UNL1        0.1023
      9 C          -5.4432  -15.2722   25.9827 C.ar    1  UNL1        0.1196
     10 N          -6.5389  -15.2904   27.0070 N.ar    1  UNL1       -0.2220
     11 C          -7.8072  -15.7045   26.3215 C.ar    1  UNL1        0.1829
     12 O         -11.4059  -17.6599   20.6597 O.3     1  UNL1       -0.4602
     13 C         -10.9867  -18.6358   19.6005 C.3     1  UNL1        0.2071
     14 C          -9.9816  -19.7026   19.9192 C.3     1  UNL1        0.0474
     15 C          -8.5773  -19.5880   19.4043 C.3     1  UNL1        0.0038
     16 C          -7.4539  -19.2842   20.3507 C.3     1  UNL1        0.0001
     17 C          -5.0764  -19.8351   21.2418 C.3     1  UNL1        0.0000
     18 C          -6.3052  -20.2397   20.4825 C.3     1  UNL1        0.0000
@<TRIPOS>BOND
     1    17    18    1
     2    18    16    1
     3    16    15    1
     4    15    14    1
     5    14    13    1
     6    13    12    1
     7    12     1    1
     8     1     2   ar
     9     2     3   ar
    10     3     4   ar
    11     4     7    1
    12     7     8   ar
    13     8     9   ar
    14     9    10   ar
    15    10    11   ar
    16     4     5   ar
    17     5     6   ar
    18     6     1   ar
    19    11     7   ar
@<TRIPOS>MOLECULE
*****
 18 19 0 0 0
SMALL
GASTEIGER

@<TRIPOS>ATOM
      1 C          -8.5435  -19.3029   21.2034 C.ar    1  UNL1        0.2250
      2 C          -7.6650  -19.4887   22.4049 C.ar    1  UNL1        0.0592
      3 C          -6.1730  -19.4457   22.2569 C.ar    1  UNL1        0.0239
      4 C          -5.5594  -19.2169   20.9075 C.ar    1  UNL1        0.0849
      5 C          -6.4379  -19.0311   19.7059 C.ar    1  UNL1        0.1195
      6 N          -7.9300  -19.0741   19.8539 N.ar    1  UNL1       -0.2086
      7 N          -4.0673  -19.1738   20.7595 N.ar    1  UNL1       -0.2849
      8 C          -3.3125  -18.5863   19.6041 C.ar    1  UNL1        0.1023
      9 C          -1.8468  -18.7601   19.8715 C.ar    1  UNL1        0.1196
     10 N          -1.6958  -19.4551   21.1921 N.ar    1  UNL1       -0.2220
     11 C          -3.0681  -19.7108   21.7410 C.ar    1  UNL1        0.1829
     12 O         -10.0356  -19.3459   21.3513 O.3     1  UNL1       -0.4602
     13 C         -10.8413  -18.0904   21.1952 C.3     1  UNL1        0.2071
     14 C         -10.3501  -16.8049   21.7922 C.3     1  UNL1        0.0474
     15 C         -10.5696  -16.5223   23.2489 C.3     1  UNL1        0.0038
     16 C          -9.4610  -16.7524   24.2328 C.3     1  UNL1        0.0001
     17 C          -8.3067  -15.7112   26.3145 C.3     1  UNL1        0.0000
     18 C          -8.7990  -15.5852   24.9032 C.3     1  UNL1        0.0000
@<TRIPOS>BOND
     1    17    18    1
     2    18    16    1
     3    16    15    1
     4    15    14    1
     5    14    13    1
     6    13    12    1
     7    12     1    1
     8     1     2   ar
     9     2     3   ar
    10     3     4   ar
    11     4     7    1
    12     7     8   ar
    13     8     9   ar
    14     9    10   ar
    15    10    11   ar
    16     4     5   ar
    17     5     6   ar
    18     6     1   ar
    19    11     7   ar
@<TRIPOS>MOLECULE
*****
 18 19 0 0 0
SMALL
GASTEIGER

@<TRIPOS>ATOM
      1 C          -6.4906  -19.3721   21.4960 C.ar    1  UNL1        0.2250
      2 C          -5.6221  -18.7593   22.5543 C.ar    1  UNL1        0.0592
      3 C          -4.2060  -18.3809   22.2360 C.ar    1  UNL1        0.0239
      4 C          -3.6583  -18.6153   20.8594 C.ar    1  UNL1        0.0849
      5 C          -4.5268  -19.2281   19.8011 C.ar    1  UNL1        0.1195
      6 N          -5.9430  -19.6065   20.1194 N.ar    1  UNL1       -0.2086
      7 N          -2.2422  -18.2369   20.5411 N.ar    1  UNL1       -0.2849
      8 C          -1.6619  -16.8554   20.6101 C.ar    1  UNL1        0.1023
      9 C          -0.2187  -16.9383   20.2096 C.ar    1  UNL1        0.1196
     10 N           0.0930  -18.3710   19.8931 N.ar    1  UNL1       -0.2220
     11 C          -1.1576  -19.1736   20.0980 C.ar    1  UNL1        0.1829
     12 O          -7.9068  -19.7505   21.8143 O.3     1  UNL1       -0.4602
     13 C          -9.0418  -18.9381   21.2649 C.3     1  UNL1        0.2071
     14 C         -10.4387  -19.4836   21.2965 C.3     1  UNL1        0.0474
     15 C         -10.9362  -20.2013   22.5162 C.3     1  UNL1        0.0038
     16 C         -10.8394  -19.5475   23.8627 C.3     1  UNL1        0.0001
     17 C         -12.9386  -18.0630   23.4889 C.3     1  UNL1        0.0000
     18 C         -11.6080  -18.2903   24.1430 C.3     1  UNL1        0.0000
@<TRIPOS>BOND
     1    17    18    1
     2    18    16    1
     3    16    15    1
     4    15    14    1
     5    14    13    1
     6    13    12    1
     7    12     1    1
     8     1     2   ar
     9     2     3   ar
    10     3     4   ar
    11     4     7    1
    12     7     8   ar
    13     8     9   ar
    14     9    10   ar
    15    10    11   ar
    16     4     5   ar
    17     5     6   ar
    18     6     1   ar
    19    11     7   ar
@<TRIPOS>MOLECULE
*****
 18 19 0 0 0
SMALL
GASTEIGER

@<TRIPOS>ATOM
      1 C         -12.9911   -3.9341   18.2465 C.ar    1  UNL1        0.2250
      2 C         -13.1216   -4.5307   19.6165 C.ar    1  UNL1        0.0592
      3 C         -13.8395   -5.8347   19.8014 C.ar    1  UNL1        0.0239
      4 C         -14.4270   -6.5420   18.6163 C.ar    1  UNL1        0.0849
      5 C         -14.2966   -5.9454   17.2463 C.ar    1  UNL1        0.1195
      6 N         -13.5787   -4.6414   17.0614 N.ar    1  UNL1       -0.2086
      7 N         -15.1449   -7.8460   18.8012 N.ar    1  UNL1       -0.2849
      8 C         -16.3342   -8.0802   19.6849 C.ar    1  UNL1        0.1023
      9 C         -16.7239   -9.5237   19.5648 C.ar    1  UNL1        0.1196
     10 N         -15.7756  -10.1817   18.6068 N.ar    1  UNL1       -0.2220
     11 C         -14.7997   -9.1448   18.1349 C.ar    1  UNL1        0.1829
     12 O         -12.2732   -2.6301   18.0616 O.3     1  UNL1       -0.4602
     13 C         -10.7758   -2.6036   17.9780 C.3     1  UNL1        0.2071
     14 C         -10.0631   -3.4956   17.0051 C.3     1  UNL1        0.0474
     15 C          -9.2906   -4.6816   17.5020 C.3     1  UNL1        0.0038
     16 C          -9.5889   -5.2579   18.8543 C.3     1  UNL1        0.0001
     17 C         -10.8278   -7.3305   17.8957 C.3     1  UNL1        0.0000
     18 C         -10.0150   -6.6904   18.9818 C.3     1  UNL1        0.0000
@<TRIPOS>BOND
     1    17    18    1
     2    18    16    1
     3    16    15    1
     4    15    14    1
     5    14    13    1
     6    13    12    1
     7    12     1    1
     8     1     2   ar
     9     2     3   ar
    10     3     4   ar
    11     4     7    1
    12     7     8   ar
    13     8     9   ar
    14     9    10   ar
    15    10    11   ar
    16     4     5   ar
    17     5     6   ar
    18     6     1   ar
    19    11     7   ar
@<TRIPOS>MOLECULE
*****
 18 19 0 0 0
SMALL
GASTEIGER

@<TRIPOS>ATOM
      1 C         -10.0162  -18.4177   21.2736 C.ar    1  UNL1        0.2250
      2 C         -10.0403  -19.2623   22.5129 C.ar    1  UNL1        0.0592
      3 C          -9.6121  -18.6787   23.8267 C.ar    1  UNL1        0.0239
      4 C          -9.1597  -17.2505   23.9012 C.ar    1  UNL1        0.0849
      5 C          -9.1356  -16.4059   22.6618 C.ar    1  UNL1        0.1195
      6 N          -9.5638  -16.9895   21.3480 N.ar    1  UNL1       -0.2086
      7 N          -8.7315  -16.6669   25.2150 N.ar    1  UNL1       -0.2849
      8 C          -8.9172  -17.2986   26.5627 C.ar    1  UNL1        0.1023
      9 C          -8.3429  -16.3712   27.5924 C.ar    1  UNL1        0.1196
     10 N          -7.8022  -15.1664   26.8810 N.ar    1  UNL1       -0.2220
     11 C          -8.0424  -15.3492   25.4117 C.ar    1  UNL1        0.1829
     12 O         -10.4444  -19.0013   19.9598 O.3     1  UNL1       -0.4602
     13 C          -9.4136  -19.4291   18.9576 C.3     1  UNL1        0.2071
     14 C          -8.1569  -20.1070   19.4169 C.3     1  UNL1        0.0474
     15 C          -7.0201  -19.2920   19.9587 C.3     1  UNL1        0.0038
     16 C          -6.0054  -19.9277   20.8623 C.3     1  UNL1        0.0001
     17 C          -3.8308  -19.2653   19.6044 C.3     1  UNL1        0.0000
     18 C          -4.6505  -20.2903   20.3307 C.3     1  UNL1        0.0000
@<TRIPOS>BOND
     1    17    18    1
     2    18    16    1
     3    16    15    1
     4    15    14    1
     5    14    13    1
     6    13    12    1
     7    12     1    1
     8     1     2   ar
     9     2     3   ar
    10     3     4   ar
    11     4     7    1
    12     7     8   ar
    13     8     9   ar
    14     9    10   ar
    15    10    11   ar
    16     4     5   ar
    17     5     6   ar
    18     6     1   ar
    19    11     7   ar
