@<TRIPOS>MOLECULE
*****
 33 36 0 0 0
SMALL
GASTEIGER

@<TRIPOS>ATOM
      1 C          -9.1908  -18.6969   21.0516 C.ar    1  UNL1        0.0949
      2 C          -9.8092  -19.1443   19.7603 C.ar    1  UNL1        0.1454
      3 F         -11.1894  -18.6871   19.3917 F       1  UNL1       -0.2040
      4 C          -9.0474  -20.0490   18.8378 C.ar    1  UNL1        0.0312
      5 C          -7.6672  -20.5063   19.2064 C.ar    1  UNL1        0.0204
      6 C          -7.0488  -20.0589   20.4977 C.ar    1  UNL1        0.0924
      7 C          -7.8106  -19.1542   21.4203 C.ar    1  UNL1        0.1598
      8 F          -7.1922  -18.7068   22.7116 F       1  UNL1       -0.2026
      9 C          -9.9527  -17.7922   21.9743 C.2     1  UNL1        0.2006
     10 O         -10.8262  -16.7106   21.4115 O.2     1  UNL1       -0.2866
     11 C          -8.1905  -15.8957   24.1579 C.2     1  UNL1        0.0659
     12 C          -7.5054  -15.2257   25.3119 C.2     1  UNL1        0.0573
     13 C          -7.6770  -15.7642   26.7013 C.2     1  UNL1        0.2361
     14 N          -8.5337  -16.9728   26.9367 N.2     1  UNL1       -0.0340
     15 C          -9.2188  -17.6427   25.7827 C.2     1  UNL1        0.3601
     16 N         -10.1185  -18.8407   25.7077 N.2     1  UNL1       -0.0342
     17 C         -10.5029  -19.0425   24.2719 C.2     1  UNL1        0.2354
     18 C          -9.8408  -17.9693   23.4596 C.2     1  UNL1        0.0799
     19 C          -9.0472  -17.1042   24.3933 C.3     1  UNL1        0.1729
     20 N          -7.8473  -14.8186   21.3790 N.1     1  UNL1       -0.1911
     21 C          -8.0189  -15.3571   22.7684 C.1     1  UNL1        0.0971
     22 N          -5.6686  -20.5161   20.8664 N.pl3   1  UNL1       -0.2128
     23 H          -5.5038  -21.4635   21.0775 H       1  UNL1        0.1738
     24 S          -4.5393  -19.5299   20.9133 S.O2    1  UNL1        0.0737
     25 O          -4.6096  -19.3784   19.4227 O.2     1  UNL1       -0.1499
     26 O          -4.4690  -19.6815   22.4040 O.2     1  UNL1       -0.1499
     27 C          -3.4101  -18.5438   20.9604 C.ar    1  UNL1        0.1274
     28 C          -3.3664  -17.5046   22.0413 C.ar    1  UNL1        0.0203
     29 C          -2.2372  -16.5184   22.0885 C.ar    1  UNL1        0.0037
     30 C          -1.1516  -16.5713   21.0547 C.ar    1  UNL1        0.0297
     31 C          -1.1953  -17.6104   19.9738 C.ar    1  UNL1        0.1415
     32 F          -0.1097  -17.6633   18.9400 F       1  UNL1       -0.2041
     33 C          -2.3245  -18.5967   19.9266 C.ar    1  UNL1        0.0498
@<TRIPOS>BOND
     1    20    21    3
     2    21    11    1
     3    11    12    2
     4    12    13    1
     5    13    14    2
     6    14    15    1
     7    15    16    2
     8    16    17    1
     9    17    18    2
    10    18     9    1
    11     9    10    2
    12     9     1    1
    13     1     2   ar
    14     2     3    1
    15     2     4   ar
    16     4     5   ar
    17     5     6   ar
    18     6    22    1
    19    22    24    1
    20    24    25    2
    21    24    26    2
    22    24    27    1
    23    27    28   ar
    24    28    29   ar
    25    29    30   ar
    26    30    31   ar
    27    31    32    1
    28    31    33   ar
    29     6     7   ar
    30     7     8    1
    31    18    19    1
    32    19    11    1
    33    19    15    1
    34     7     1   ar
    35    33    27   ar
    36    22    23    1
@<TRIPOS>MOLECULE
*****
 33 36 0 0 0
SMALL
GASTEIGER

@<TRIPOS>ATOM
      1 C          -9.1473  -18.3480   21.1792 C.ar    1  UNL1        0.0949
      2 C          -9.8786  -18.8334   19.9628 C.ar    1  UNL1        0.1454
      3 F         -11.2487  -18.3078   19.6520 F       1  UNL1       -0.2040
      4 C          -9.2398  -19.8442   19.0573 C.ar    1  UNL1        0.0312
      5 C          -7.8697  -20.3698   19.3682 C.ar    1  UNL1        0.0204
      6 C          -7.1384  -19.8845   20.5845 C.ar    1  UNL1        0.0924
      7 C          -7.7772  -18.8736   21.4900 C.ar    1  UNL1        0.1598
      8 F          -7.0459  -18.3882   22.7065 F       1  UNL1       -0.2026
      9 C          -9.7860  -17.3371   22.0848 C.2     1  UNL1        0.2006
     10 O         -11.2807  -17.2353   22.1592 O.2     1  UNL1       -0.2866
     11 C          -9.2746  -17.4625   25.4304 C.2     1  UNL1        0.0659
     12 C          -8.8892  -17.3035   26.8713 C.2     1  UNL1        0.0573
     13 C          -7.9594  -16.2003   27.2817 C.2     1  UNL1        0.2361
     14 N          -7.4149  -15.2561   26.2512 N.2     1  UNL1       -0.0340
     15 C          -7.8003  -15.4151   24.8103 C.2     1  UNL1        0.3601
     16 N          -7.4256  -14.6430   23.5800 N.2     1  UNL1       -0.0342
     17 C          -8.1238  -15.2690   22.4093 C.2     1  UNL1        0.2354
     18 C          -8.9301  -16.4280   22.9161 C.2     1  UNL1        0.0799
     19 C          -8.7301  -16.5183   24.3999 C.3     1  UNL1        0.1729
     20 N         -11.1343  -19.6688   24.6097 N.1     1  UNL1       -0.1911
     21 C         -10.2044  -18.5656   25.0201 C.1     1  UNL1        0.0971
     22 N          -5.7683  -20.4101   20.8954 N.pl3   1  UNL1       -0.2128
     23 H          -5.6405  -21.3666   21.0905 H       1  UNL1        0.1738
     24 S          -4.5928  -19.4784   20.9088 S.O2    1  UNL1        0.0737
     25 O          -4.8041  -19.1908   19.4519 O.2     1  UNL1       -0.1499
     26 O          -4.3816  -19.7659   22.3657 O.2     1  UNL1       -0.1499
     27 C          -3.4174  -18.5467   20.9223 C.ar    1  UNL1        0.1274
     28 C          -3.2936  -17.5110   22.0003 C.ar    1  UNL1        0.0203
     29 C          -2.1182  -16.5792   22.0139 C.ar    1  UNL1        0.0037
     30 C          -1.0664  -16.6832   20.9495 C.ar    1  UNL1        0.0297
     31 C          -1.1902  -17.7189   19.8715 C.ar    1  UNL1        0.1415
     32 F          -0.1384  -17.8228   18.8071 F       1  UNL1       -0.2041
     33 C          -2.3656  -18.6506   19.8579 C.ar    1  UNL1        0.0498
@<TRIPOS>BOND
     1    20    21    3
     2    21    11    1
     3    11    12    2
     4    12    13    1
     5    13    14    2
     6    14    15    1
     7    15    16    2
     8    16    17    1
     9    17    18    2
    10    18     9    1
    11     9    10    2
    12     9     1    1
    13     1     2   ar
    14     2     3    1
    15     2     4   ar
    16     4     5   ar
    17     5     6   ar
    18     6    22    1
    19    22    24    1
    20    24    25    2
    21    24    26    2
    22    24    27    1
    23    27    28   ar
    24    28    29   ar
    25    29    30   ar
    26    30    31   ar
    27    31    32    1
    28    31    33   ar
    29     6     7   ar
    30     7     8    1
    31    18    19    1
    32    19    11    1
    33    19    15    1
    34     7     1   ar
    35    33    27   ar
    36    22    23    1
@<TRIPOS>MOLECULE
*****
 33 36 0 0 0
SMALL
GASTEIGER

@<TRIPOS>ATOM
      1 C          -8.6743  -18.8263   20.8125 C.ar    1  UNL1        0.0949
      2 C          -9.4193  -19.4183   19.6530 C.ar    1  UNL1        0.1454
      3 F         -10.8438  -19.0243   19.3969 F       1  UNL1       -0.2040
      4 C          -8.7398  -20.4043   18.7497 C.ar    1  UNL1        0.0312
      5 C          -7.3153  -20.7983   19.0058 C.ar    1  UNL1        0.0204
      6 C          -6.5703  -20.2063   20.1654 C.ar    1  UNL1        0.0924
      7 C          -7.2498  -19.2203   21.0687 C.ar    1  UNL1        0.1598
      8 F          -6.5048  -18.6283   22.2282 F       1  UNL1       -0.2026
      9 C          -9.3538  -17.8403   21.7160 C.2     1  UNL1        0.2006
     10 O          -9.3769  -16.3846   21.3549 O.2     1  UNL1       -0.2866
     11 C         -12.6227  -17.5932   22.5663 C.2     1  UNL1        0.0659
     12 C         -13.9953  -17.6071   23.1711 C.2     1  UNL1        0.0573
     13 C         -14.2109  -18.2087   24.5282 C.2     1  UNL1        0.2361
     14 N         -13.0539  -18.7963   25.2805 N.2     1  UNL1       -0.0340
     15 C         -11.6813  -18.7823   24.6757 C.2     1  UNL1        0.3601
     16 N         -10.3589  -19.2832   25.1761 N.2     1  UNL1       -0.0342
     17 C          -9.3260  -18.9913   24.1283 C.2     1  UNL1        0.2354
     18 C         -10.0101  -18.3100   22.9803 C.2     1  UNL1        0.0799
     19 C         -11.4657  -18.1808   23.3187 C.3     1  UNL1        0.1729
     20 N         -12.1916  -16.3902   19.8521 N.1     1  UNL1       -0.1911
     21 C         -12.4072  -16.9917   21.2092 C.1     1  UNL1        0.0971
     22 N          -5.1458  -20.6004   20.4215 N.pl3   1  UNL1       -0.2128
     23 H          -4.8998  -21.5523   20.4714 H       1  UNL1        0.1738
     24 S          -4.0963  -19.5440   20.6016 S.O2    1  UNL1        0.0737
     25 O          -4.3839  -19.0233   19.2246 O.2     1  UNL1       -0.1499
     26 O          -3.8086  -20.0646   21.9787 O.2     1  UNL1       -0.1499
     27 C          -3.0467  -18.4876   20.7819 C.ar    1  UNL1        0.1274
     28 C          -3.2498  -17.3923   21.7864 C.ar    1  UNL1        0.0203
     29 C          -2.2003  -16.3359   21.9667 C.ar    1  UNL1        0.0037
     30 C          -0.9476  -16.3748   21.1425 C.ar    1  UNL1        0.0297
     31 C          -0.7446  -17.4701   20.1379 C.ar    1  UNL1        0.1415
     32 F           0.5081  -17.5090   19.3137 F       1  UNL1       -0.2041
     33 C          -1.7941  -18.5265   19.9576 C.ar    1  UNL1        0.0498
@<TRIPOS>BOND
     1    20    21    3
     2    21    11    1
     3    11    12    2
     4    12    13    1
     5    13    14    2
     6    14    15    1
     7    15    16    2
     8    16    17    1
     9    17    18    2
    10    18     9    1
    11     9    10    2
    12     9     1    1
    13     1     2   ar
    14     2     3    1
    15     2     4   ar
    16     4     5   ar
    17     5     6   ar
    18     6    22    1
    19    22    24    1
    20    24    25    2
    21    24    26    2
    22    24    27    1
    23    27    28   ar
    24    28    29   ar
    25    29    30   ar
    26    30    31   ar
    27    31    32    1
    28    31    33   ar
    29     6     7   ar
    30     7     8    1
    31    18    19    1
    32    19    11    1
    33    19    15    1
    34     7     1   ar
    35    33    27   ar
    36    22    23    1
@<TRIPOS>MOLECULE
*****
 33 36 0 0 0
SMALL
GASTEIGER

@<TRIPOS>ATOM
      1 C          -4.4010  -17.2583   22.6618 C.ar    1  UNL1        0.0949
      2 C          -3.0251  -17.6206   22.1868 C.ar    1  UNL1        0.1454
      3 F          -1.8706  -16.7037   22.4632 F       1  UNL1       -0.2040
      4 C          -2.8039  -18.8998   21.4354 C.ar    1  UNL1        0.0312
      5 C          -3.9584  -19.8166   21.1590 C.ar    1  UNL1        0.0204
      6 C          -5.3343  -19.4543   21.6340 C.ar    1  UNL1        0.0924
      7 C          -5.5555  -18.1751   22.3854 C.ar    1  UNL1        0.1598
      8 F          -6.9314  -17.8127   22.8605 F       1  UNL1       -0.2026
      9 C          -4.6224  -15.9790   23.4133 C.2     1  UNL1        0.2006
     10 O          -4.3799  -14.6615   22.7388 O.2     1  UNL1       -0.2866
     11 C          -7.7162  -15.2839   24.6029 C.2     1  UNL1        0.0659
     12 C          -8.9796  -15.0324   25.3713 C.2     1  UNL1        0.0573
     13 C          -8.9965  -15.1984   26.8620 C.2     1  UNL1        0.2361
     14 N          -7.7499  -15.6159   27.5843 N.2     1  UNL1       -0.0340
     15 C          -6.4865  -15.8674   26.8159 C.2     1  UNL1        0.3601
     16 N          -5.1135  -16.2860   27.2512 N.2     1  UNL1       -0.0342
     17 C          -4.2480  -16.3788   26.0296 C.2     1  UNL1        0.2354
     18 C          -5.0862  -16.0175   24.8393 C.2     1  UNL1        0.0799
     19 C          -6.4697  -15.7014   25.3252 C.3     1  UNL1        0.1729
     20 N          -7.6825  -14.9520   21.6215 N.1     1  UNL1       -0.1911
     21 C          -7.6994  -15.1180   23.1122 C.1     1  UNL1        0.0971
     22 N          -6.4888  -20.3712   21.3576 N.pl3   1  UNL1       -0.2128
     23 H          -6.3331  -21.3354   21.2341 H       1  UNL1        0.1738
     24 S          -7.8806  -19.8189   21.2693 S.O2    1  UNL1        0.0737
     25 O          -8.1680  -20.3219   22.6529 O.2     1  UNL1       -0.1499
     26 O          -7.5933  -19.3159   19.8857 O.2     1  UNL1       -0.1499
     27 C          -9.2724  -19.2666   21.1809 C.ar    1  UNL1        0.1274
     28 C          -9.7987  -18.7660   19.8684 C.ar    1  UNL1        0.0203
     29 C         -11.1905  -18.2137   19.7800 C.ar    1  UNL1        0.0037
     30 C         -12.0561  -18.1619   21.0039 C.ar    1  UNL1        0.0297
     31 C         -11.5297  -18.6625   22.3164 C.ar    1  UNL1        0.1415
     32 F         -12.3953  -18.6107   23.5403 F       1  UNL1       -0.2041
     33 C         -10.1380  -19.2148   22.4049 C.ar    1  UNL1        0.0498
@<TRIPOS>BOND
     1    20    21    3
     2    21    11    1
     3    11    12    2
     4    12    13    1
     5    13    14    2
     6    14    15    1
     7    15    16    2
     8    16    17    1
     9    17    18    2
    10    18     9    1
    11     9    10    2
    12     9     1    1
    13     1     2   ar
    14     2     3    1
    15     2     4   ar
    16     4     5   ar
    17     5     6   ar
    18     6    22    1
    19    22    24    1
    20    24    25    2
    21    24    26    2
    22    24    27    1
    23    27    28   ar
    24    28    29   ar
    25    29    30   ar
    26    30    31   ar
    27    31    32    1
    28    31    33   ar
    29     6     7   ar
    30     7     8    1
    31    18    19    1
    32    19    11    1
    33    19    15    1
    34     7     1   ar
    35    33    27   ar
    36    22    23    1
@<TRIPOS>MOLECULE
*****
 33 36 0 0 0
SMALL
GASTEIGER

@<TRIPOS>ATOM
      1 C           6.0317   -2.2204   19.8208 C.ar    1  UNL1        0.0949
      2 C           6.7554   -0.9941   19.3493 C.ar    1  UNL1        0.1454
      3 F           5.9838    0.1616   18.7846 F       1  UNL1       -0.2040
      4 C           8.2508   -0.9236   19.4426 C.ar    1  UNL1        0.0312
      5 C           9.0225   -2.0792   20.0073 C.ar    1  UNL1        0.0204
      6 C           8.2987   -3.3056   20.4788 C.ar    1  UNL1        0.0924
      7 C           6.8033   -3.3761   20.3855 C.ar    1  UNL1        0.1598
      8 F           6.0795   -4.6025   20.8569 F       1  UNL1       -0.2026
      9 C           4.5362   -2.2911   19.7275 C.2     1  UNL1        0.2006
     10 O           3.8884   -3.2713   18.7952 O.2     1  UNL1       -0.2866
     11 C           2.5933    0.2777   18.6802 C.2     1  UNL1        0.0659
     12 C           1.6739    1.4455   18.4781 C.2     1  UNL1        0.0573
     13 C           1.0016    2.0836   19.6574 C.2     1  UNL1        0.2361
     14 N           1.2486    1.5538   21.0388 N.2     1  UNL1       -0.0340
     15 C           2.1680    0.3860   21.2409 C.2     1  UNL1        0.3601
     16 N           2.6007   -0.3490   22.4748 N.2     1  UNL1       -0.0342
     17 C           3.5405   -1.4413   22.0581 C.2     1  UNL1        0.2354
     18 C           3.6886   -1.3814   20.5666 C.2     1  UNL1        0.0799
     19 C           2.8403   -0.2521   20.0616 C.3     1  UNL1        0.1729
     20 N           3.9381   -0.9984   16.3215 N.1     1  UNL1       -0.1911
     21 C           3.2657   -0.3603   17.5008 C.1     1  UNL1        0.0971
     22 N           9.0704   -4.4613   21.0435 N.pl3   1  UNL1       -0.2128
     23 H           9.8576   -4.8084   20.5649 H       1  UNL1        0.1738
     24 S           8.6425   -5.0881   22.3373 S.O2    1  UNL1        0.0737
     25 O           8.4455   -6.3997   21.6366 O.2     1  UNL1       -0.1499
     26 O           8.8396   -3.7766   23.0379 O.2     1  UNL1       -0.1499
     27 C           8.2147   -5.7149   23.6311 C.ar    1  UNL1        0.1274
     28 C           8.4948   -7.1656   23.8905 C.ar    1  UNL1        0.0203
     29 C           8.0670   -7.7924   25.1843 C.ar    1  UNL1        0.0037
     30 C           7.3591   -6.9687   26.2189 C.ar    1  UNL1        0.0297
     31 C           7.0790   -5.5180   25.9595 C.ar    1  UNL1        0.1415
     32 F           6.3711   -4.6943   26.9940 F       1  UNL1       -0.2041
     33 C           7.5068   -4.8912   24.6657 C.ar    1  UNL1        0.0498
@<TRIPOS>BOND
     1    20    21    3
     2    21    11    1
     3    11    12    2
     4    12    13    1
     5    13    14    2
     6    14    15    1
     7    15    16    2
     8    16    17    1
     9    17    18    2
    10    18     9    1
    11     9    10    2
    12     9     1    1
    13     1     2   ar
    14     2     3    1
    15     2     4   ar
    16     4     5   ar
    17     5     6   ar
    18     6    22    1
    19    22    24    1
    20    24    25    2
    21    24    26    2
    22    24    27    1
    23    27    28   ar
    24    28    29   ar
    25    29    30   ar
    26    30    31   ar
    27    31    32    1
    28    31    33   ar
    29     6     7   ar
    30     7     8    1
    31    18    19    1
    32    19    11    1
    33    19    15    1
    34     7     1   ar
    35    33    27   ar
    36    22    23    1
