@<TRIPOS>MOLECULE
*****
 19 21 0 0 0
SMALL
GASTEIGER

@<TRIPOS>ATOM
      1 C          -7.4180  -19.2621   19.5595 C.2     1  UNL1        0.0435
      2 C          -6.4975  -20.1170   20.3791 C.2     1  UNL1        0.0034
      3 C          -5.0982  -19.6560   20.6611 C.ar    1  UNL1        0.0033
      4 C          -4.6263  -19.5146   22.0778 C.ar    1  UNL1        0.0033
      5 C          -3.2271  -19.0536   22.3598 C.ar    1  UNL1        0.0402
      6 C          -2.2997  -18.7339   21.2250 C.ar    1  UNL1        0.1764
      7 C          -2.7716  -18.8753   19.8082 C.ar    1  UNL1        0.1764
      8 C          -4.1708  -19.3363   19.5262 C.ar    1  UNL1        0.0402
      9 O          -1.6399  -18.4903   18.9020 O.3     1  UNL1       -0.4346
     10 C          -0.4686  -18.1110   19.7588 C.3     1  UNL1        0.4294
     11 O          -0.8764  -18.2615   21.1945 O.3     1  UNL1       -0.4346
     12 O          -9.0586  -20.8285   18.2925 O.2     1  UNL1       -0.2850
     13 C          -8.8173  -19.7232   19.2775 C.2     1  UNL1        0.2111
     14 C          -9.9752  -19.0789   19.9806 C.ar    1  UNL1        0.0961
     15 C         -10.7982  -19.6963   21.0721 C.ar    1  UNL1        0.0218
     16 C         -11.8450  -18.7031   21.4816 C.ar    1  UNL1        0.0200
     17 C         -11.6689  -17.4718   20.6432 C.ar    1  UNL1        0.0725
     18 N         -10.5133  -17.7041   19.7155 N.ar    1  UNL1       -0.3495
     19 H         -10.1686  -17.0662   19.0495 H       1  UNL1        0.1661
@<TRIPOS>BOND
     1    12    13    2
     2    13     1    1
     3     1     2    2
     4     2     3    1
     5     3     4   ar
     6     4     5   ar
     7     5     6   ar
     8     6     7   ar
     9     7     8   ar
    10     7     9    1
    11     9    10    1
    12    10    11    1
    13    13    14    1
    14    14    15   ar
    15    15    16   ar
    16    16    17   ar
    17    17    18   ar
    18     8     3   ar
    19    18    14   ar
    20    11     6    1
    21    18    19    1
@<TRIPOS>MOLECULE
*****
 19 21 0 0 0
SMALL
GASTEIGER

@<TRIPOS>ATOM
      1 C          -5.6618  -18.9828   19.9611 C.2     1  UNL1        0.0435
      2 C          -6.7508  -19.6515   20.7465 C.2     1  UNL1        0.0034
      3 C          -8.1633  -19.1579   20.6406 C.ar    1  UNL1        0.0033
      4 C          -9.0631  -19.6848   19.5624 C.ar    1  UNL1        0.0033
      5 C         -10.4756  -19.1913   19.4565 C.ar    1  UNL1        0.0402
      6 C         -10.9883  -18.1707   20.4288 C.ar    1  UNL1        0.1764
      7 C         -10.0885  -17.6437   21.5071 C.ar    1  UNL1        0.1764
      8 C          -8.6760  -18.1372   21.6130 C.ar    1  UNL1        0.0402
      9 O         -10.8676  -16.6494   22.3161 O.3     1  UNL1       -0.4346
     10 C         -12.2488  -16.5619   21.7378 C.3     1  UNL1        0.4294
     11 O         -12.3235  -17.5021   20.5714 O.3     1  UNL1       -0.4346
     12 O          -3.9594  -20.9454   19.9771 O.2     1  UNL1       -0.2850
     13 C          -4.2493  -19.4764   20.0670 C.2     1  UNL1        0.2111
     14 C          -3.1267  -18.5009   20.2628 C.ar    1  UNL1        0.0961
     15 C          -1.8636  -18.4368   19.4562 C.ar    1  UNL1        0.0218
     16 C          -1.0264  -17.3146   19.9944 C.ar    1  UNL1        0.0200
     17 C          -1.7721  -16.6851   21.1337 C.ar    1  UNL1        0.0725
     18 N          -3.0701  -17.4183   21.2995 N.ar    1  UNL1       -0.3495
     19 H          -3.7632  -17.2233   21.9709 H       1  UNL1        0.1661
@<TRIPOS>BOND
     1    12    13    2
     2    13     1    1
     3     1     2    2
     4     2     3    1
     5     3     4   ar
     6     4     5   ar
     7     5     6   ar
     8     6     7   ar
     9     7     8   ar
    10     7     9    1
    11     9    10    1
    12    10    11    1
    13    13    14    1
    14    14    15   ar
    15    15    16   ar
    16    16    17   ar
    17    17    18   ar
    18     8     3   ar
    19    18    14   ar
    20    11     6    1
    21    18    19    1
@<TRIPOS>MOLECULE
*****
 19 21 0 0 0
SMALL
GASTEIGER

@<TRIPOS>ATOM
      1 C          -8.2378  -19.2151   22.7352 C.2     1  UNL1        0.0435
      2 C          -7.2785  -20.3147   22.3879 C.2     1  UNL1        0.0034
      3 C          -5.9968  -19.9952   21.6771 C.ar    1  UNL1        0.0033
      4 C          -5.5517  -20.8372   20.5184 C.ar    1  UNL1        0.0033
      5 C          -4.2700  -20.5177   19.8077 C.ar    1  UNL1        0.0402
      6 C          -3.4334  -19.3562   20.2557 C.ar    1  UNL1        0.1764
      7 C          -3.8784  -18.5140   21.4145 C.ar    1  UNL1        0.1764
      8 C          -5.1601  -18.8335   22.1252 C.ar    1  UNL1        0.0402
      9 O          -2.8528  -17.4405   21.6283 O.3     1  UNL1       -0.4346
     10 C          -1.7739  -17.6192   20.6017 C.3     1  UNL1        0.4294
     11 O          -2.1327  -18.8031   19.7533 O.3     1  UNL1       -0.4346
     12 O          -9.5259  -20.5261   24.5715 O.2     1  UNL1       -0.2850
     13 C          -9.5195  -19.5346   23.4459 C.2     1  UNL1        0.2111
     14 C         -10.7948  -18.8625   23.0311 C.ar    1  UNL1        0.0961
     15 C         -11.9013  -18.4293   23.9464 C.ar    1  UNL1        0.0218
     16 C         -12.9778  -17.8047   23.1091 C.ar    1  UNL1        0.0200
     17 C         -12.5365  -17.8519   21.6762 C.ar    1  UNL1        0.0725
     18 N         -11.1873  -18.5057   21.6280 N.ar    1  UNL1       -0.3495
     19 H         -10.6532  -18.6714   20.8177 H       1  UNL1        0.1661
@<TRIPOS>BOND
     1    12    13    2
     2    13     1    1
     3     1     2    2
     4     2     3    1
     5     3     4   ar
     6     4     5   ar
     7     5     6   ar
     8     6     7   ar
     9     7     8   ar
    10     7     9    1
    11     9    10    1
    12    10    11    1
    13    13    14    1
    14    14    15   ar
    15    15    16   ar
    16    16    17   ar
    17    17    18   ar
    18     8     3   ar
    19    18    14   ar
    20    11     6    1
    21    18    19    1
@<TRIPOS>MOLECULE
*****
 19 21 0 0 0
SMALL
GASTEIGER

@<TRIPOS>ATOM
      1 C          -7.4066  -18.7999   22.2845 C.2     1  UNL1        0.0435
      2 C          -6.3139  -19.7130   21.8131 C.2     1  UNL1        0.0034
      3 C          -4.9270  -19.1795   21.6079 C.ar    1  UNL1        0.0033
      4 C          -4.1729  -18.5875   22.7615 C.ar    1  UNL1        0.0033
      5 C          -2.7861  -18.0540   22.5563 C.ar    1  UNL1        0.0402
      6 C          -2.1533  -18.1125   21.1976 C.ar    1  UNL1        0.1764
      7 C          -2.9074  -18.7046   20.0440 C.ar    1  UNL1        0.1764
      8 C          -4.2943  -19.2380   20.2491 C.ar    1  UNL1        0.0402
      9 O          -2.0316  -18.6267   18.8287 O.3     1  UNL1       -0.4346
     10 C          -0.7362  -17.9866   19.2313 C.3     1  UNL1        0.4294
     11 O          -0.8114  -17.6688   20.6953 O.3     1  UNL1       -0.4346
     12 O          -9.0305  -20.4526   23.4598 O.2     1  UNL1       -0.2850
     13 C          -8.7934  -19.3334   22.4897 C.2     1  UNL1        0.2111
     14 C          -9.9431  -18.7477   21.7246 C.ar    1  UNL1        0.0961
     15 C         -11.3756  -18.7218   22.1684 C.ar    1  UNL1        0.0218
     16 C         -12.1799  -18.0431   21.0996 C.ar    1  UNL1        0.0200
     17 C         -11.2443  -17.6495   19.9951 C.ar    1  UNL1        0.0725
     18 N          -9.8619  -18.0849   20.3814 N.ar    1  UNL1       -0.3495
     19 H          -9.0447  -17.9580   19.8472 H       1  UNL1        0.1661
@<TRIPOS>BOND
     1    12    13    2
     2    13     1    1
     3     1     2    2
     4     2     3    1
     5     3     4   ar
     6     4     5   ar
     7     5     6   ar
     8     6     7   ar
     9     7     8   ar
    10     7     9    1
    11     9    10    1
    12    10    11    1
    13    13    14    1
    14    14    15   ar
    15    15    16   ar
    16    16    17   ar
    17    17    18   ar
    18     8     3   ar
    19    18    14   ar
    20    11     6    1
    21    18    19    1
@<TRIPOS>MOLECULE
*****
 19 21 0 0 0
SMALL
GASTEIGER

@<TRIPOS>ATOM
      1 C          -7.4739  -18.8194   21.0375 C.2     1  UNL1        0.0435
      2 C          -6.4080  -19.8680   20.9176 C.2     1  UNL1        0.0034
      3 C          -4.9610  -19.4749   20.9611 C.ar    1  UNL1        0.0033
      4 C          -4.2452  -19.3937   22.2767 C.ar    1  UNL1        0.0033
      5 C          -2.7982  -19.0007   22.3202 C.ar    1  UNL1        0.0402
      6 C          -2.0672  -18.6889   21.0480 C.ar    1  UNL1        0.1764
      7 C          -2.7830  -18.7702   19.7324 C.ar    1  UNL1        0.1764
      8 C          -4.2299  -19.1632   19.6889 C.ar    1  UNL1        0.0402
      9 O          -1.8083  -18.4083   18.6512 O.3     1  UNL1       -0.4346
     10 C          -0.4901  -18.1034   19.2986 C.3     1  UNL1        0.4294
     11 O          -0.6500  -18.2768   20.7800 O.3     1  UNL1       -0.4346
     12 O          -9.5695  -19.5416   19.6821 O.2     1  UNL1       -0.2850
     13 C          -8.9208  -19.2124   20.9940 C.2     1  UNL1        0.2111
     14 C          -9.7191  -19.2762   22.2624 C.ar    1  UNL1        0.0961
     15 C          -9.3868  -20.0974   23.4729 C.ar    1  UNL1        0.0218
     16 C         -10.4521  -19.8588   24.5015 C.ar    1  UNL1        0.0200
     17 C         -11.4428  -18.8901   23.9268 C.ar    1  UNL1        0.0725
     18 N         -10.9898  -18.5301   22.5429 N.ar    1  UNL1       -0.3495
     19 H         -11.4462  -17.9125   21.9269 H       1  UNL1        0.1661
@<TRIPOS>BOND
     1    12    13    2
     2    13     1    1
     3     1     2    2
     4     2     3    1
     5     3     4   ar
     6     4     5   ar
     7     5     6   ar
     8     6     7   ar
     9     7     8   ar
    10     7     9    1
    11     9    10    1
    12    10    11    1
    13    13    14    1
    14    14    15   ar
    15    15    16   ar
    16    16    17   ar
    17    17    18   ar
    18     8     3   ar
    19    18    14   ar
    20    11     6    1
    21    18    19    1
@<TRIPOS>MOLECULE
*****
 19 21 0 0 0
SMALL
GASTEIGER

@<TRIPOS>ATOM
      1 C          -6.3342  -19.0167   21.4911 C.2     1  UNL1        0.0435
      2 C          -7.2037  -20.0525   22.1400 C.2     1  UNL1        0.0034
      3 C          -8.5660  -19.6789   22.6447 C.ar    1  UNL1        0.0033
      4 C          -9.1626  -20.4144   23.8078 C.ar    1  UNL1        0.0033
      5 C         -10.5249  -20.0409   24.3125 C.ar    1  UNL1        0.0402
      6 C         -11.2905  -18.9317   23.6540 C.ar    1  UNL1        0.1764
      7 C         -10.6938  -18.1961   22.4909 C.ar    1  UNL1        0.1764
      8 C          -9.3316  -18.5697   21.9862 C.ar    1  UNL1        0.0402
      9 O         -11.6778  -17.1546   22.0469 O.3     1  UNL1       -0.4346
     10 C         -12.8826  -17.2465   22.9358 C.3     1  UNL1        0.4294
     11 O         -12.6432  -18.3448   23.9290 O.3     1  UNL1       -0.4346
     12 O          -4.7657  -20.6989   20.2828 O.2     1  UNL1       -0.2850
     13 C          -4.9720  -19.3904   20.9864 C.2     1  UNL1        0.2111
     14 C          -3.8160  -18.4553   21.1854 C.ar    1  UNL1        0.0961
     15 C          -3.3044  -17.9537   22.5032 C.ar    1  UNL1        0.0218
     16 C          -2.1410  -17.0461   22.2337 C.ar    1  UNL1        0.0200
     17 C          -1.9335  -16.9868   20.7492 C.ar    1  UNL1        0.0725
     18 N          -2.9687  -17.8577   20.1014 N.ar    1  UNL1       -0.3495
     19 H          -3.0736  -18.0103   19.1345 H       1  UNL1        0.1661
@<TRIPOS>BOND
     1    12    13    2
     2    13     1    1
     3     1     2    2
     4     2     3    1
     5     3     4   ar
     6     4     5   ar
     7     5     6   ar
     8     6     7   ar
     9     7     8   ar
    10     7     9    1
    11     9    10    1
    12    10    11    1
    13    13    14    1
    14    14    15   ar
    15    15    16   ar
    16    16    17   ar
    17    17    18   ar
    18     8     3   ar
    19    18    14   ar
    20    11     6    1
    21    18    19    1
@<TRIPOS>MOLECULE
*****
 19 21 0 0 0
SMALL
GASTEIGER

@<TRIPOS>ATOM
      1 C          -8.1536  -19.0854   20.8576 C.2     1  UNL1        0.0435
      2 C          -7.1248  -19.9363   21.5412 C.2     1  UNL1        0.0034
      3 C          -5.6752  -19.7941   21.1824 C.ar    1  UNL1        0.0033
      4 C          -5.0440  -20.7527   20.2168 C.ar    1  UNL1        0.0033
      5 C          -3.5945  -20.6104   19.8580 C.ar    1  UNL1        0.0402
      6 C          -2.7763  -19.5095   20.4649 C.ar    1  UNL1        0.1764
      7 C          -3.4074  -18.5508   21.4305 C.ar    1  UNL1        0.1764
      8 C          -4.8569  -18.6930   21.7894 C.ar    1  UNL1        0.0402
      9 O          -2.3573  -17.5719   21.8652 O.3     1  UNL1       -0.4346
     10 C          -1.0771  -17.9256   21.1681 C.3     1  UNL1        0.4294
     11 O          -1.3360  -19.1230   20.3027 O.3     1  UNL1       -0.4346
     12 O         -10.5994  -19.6273   20.1687 O.2     1  UNL1       -0.2850
     13 C          -9.6031  -19.2277   21.2164 C.2     1  UNL1        0.2111
     14 C         -10.0562  -18.9704   22.6231 C.ar    1  UNL1        0.0961
     15 C         -11.3928  -19.3333   23.1991 C.ar    1  UNL1        0.0218
     16 C         -11.4149  -18.8922   24.6326 C.ar    1  UNL1        0.0200
     17 C         -10.0920  -18.2566   24.9425 C.ar    1  UNL1        0.0725
     18 N          -9.2523  -18.3050   23.7005 N.ar    1  UNL1       -0.3495
     19 H          -8.3346  -17.9605   23.6087 H       1  UNL1        0.1661
@<TRIPOS>BOND
     1    12    13    2
     2    13     1    1
     3     1     2    2
     4     2     3    1
     5     3     4   ar
     6     4     5   ar
     7     5     6   ar
     8     6     7   ar
     9     7     8   ar
    10     7     9    1
    11     9    10    1
    12    10    11    1
    13    13    14    1
    14    14    15   ar
    15    15    16   ar
    16    16    17   ar
    17    17    18   ar
    18     8     3   ar
    19    18    14   ar
    20    11     6    1
    21    18    19    1
@<TRIPOS>MOLECULE
*****
 19 21 0 0 0
SMALL
GASTEIGER

@<TRIPOS>ATOM
      1 C         -11.6314   -5.9420   18.9510 C.2     1  UNL1        0.0435
      2 C         -13.0454   -5.4446   19.0062 C.2     1  UNL1        0.0034
      3 C         -14.1846   -6.4206   18.9996 C.ar    1  UNL1        0.0033
      4 C         -15.5548   -5.9769   19.4185 C.ar    1  UNL1        0.0033
      5 C         -16.6939   -6.9527   19.4119 C.ar    1  UNL1        0.0402
      6 C         -16.4627   -8.3724   18.9864 C.ar    1  UNL1        0.1764
      7 C         -15.0925   -8.8162   18.5675 C.ar    1  UNL1        0.1764
      8 C         -13.9534   -7.8403   18.5741 C.ar    1  UNL1        0.0402
      9 O         -15.1676  -10.2688   18.2008 O.3     1  UNL1       -0.4346
     10 C         -16.5842  -10.7227   18.3930 C.3     1  UNL1        0.4294
     11 O         -17.3847   -9.5507   18.8786 O.3     1  UNL1       -0.4346
     12 O          -9.1927   -5.3346   19.6097 O.2     1  UNL1       -0.2850
     13 C         -10.4923   -4.9661   18.9576 C.2     1  UNL1        0.2111
     14 C         -10.6529   -3.6216   18.3120 C.ar    1  UNL1        0.0961
     15 C         -10.6907   -3.3505   16.8372 C.ar    1  UNL1        0.0218
     16 C         -10.8651   -1.8736   16.6417 C.ar    1  UNL1        0.0200
     17 C         -10.9350   -1.2318   17.9957 C.ar    1  UNL1        0.0725
     18 N         -10.8039   -2.3122   19.0280 N.ar    1  UNL1       -0.3495
     19 H         -10.8149   -2.1843   20.0041 H       1  UNL1        0.1661
@<TRIPOS>BOND
     1    12    13    2
     2    13     1    1
     3     1     2    2
     4     2     3    1
     5     3     4   ar
     6     4     5   ar
     7     5     6   ar
     8     6     7   ar
     9     7     8   ar
    10     7     9    1
    11     9    10    1
    12    10    11    1
    13    13    14    1
    14    14    15   ar
    15    15    16   ar
    16    16    17   ar
    17    17    18   ar
    18     8     3   ar
    19    18    14   ar
    20    11     6    1
    21    18    19    1
@<TRIPOS>MOLECULE
*****
 19 21 0 0 0
SMALL
GASTEIGER

@<TRIPOS>ATOM
      1 C         -15.9724   -9.2289   18.8499 C.2     1  UNL1        0.0435
      2 C         -14.6852   -9.0003   18.1145 C.2     1  UNL1        0.0034
      3 C         -13.8389   -7.8046   18.4376 C.ar    1  UNL1        0.0033
      4 C         -14.3753   -6.7254   19.3305 C.ar    1  UNL1        0.0033
      5 C         -13.5291   -5.5297   19.6535 C.ar    1  UNL1        0.0402
      6 C         -12.1466   -5.4133   19.0835 C.ar    1  UNL1        0.1764
      7 C         -11.6101   -6.4925   18.1905 C.ar    1  UNL1        0.1764
      8 C         -12.4563   -7.6882   17.8675 C.ar    1  UNL1        0.0402
      9 O         -10.2206   -6.1056   17.7789 O.3     1  UNL1       -0.4346
     10 C          -9.8982   -4.7872   18.4176 C.3     1  UNL1        0.4294
     11 O         -11.0885   -4.3593   19.2239 O.3     1  UNL1       -0.4346
     12 O         -16.3275  -11.8026   18.8585 O.2     1  UNL1       -0.2850
     13 C         -16.8186  -10.4246   18.5269 C.2     1  UNL1        0.2111
     14 C         -18.1558  -10.2421   17.8722 C.ar    1  UNL1        0.0961
     15 C         -18.5383   -9.1278   16.9437 C.ar    1  UNL1        0.0218
     16 C         -19.9642   -9.3391   16.5288 C.ar    1  UNL1        0.0200
     17 C         -20.4630  -10.5840   17.2008 C.ar    1  UNL1        0.0725
     18 N         -19.3453  -11.1421   18.0310 N.ar    1  UNL1       -0.3495
     19 H         -19.3854  -11.9561   18.5832 H       1  UNL1        0.1661
@<TRIPOS>BOND
     1    12    13    2
     2    13     1    1
     3     1     2    2
     4     2     3    1
     5     3     4   ar
     6     4     5   ar
     7     5     6   ar
     8     6     7   ar
     9     7     8   ar
    10     7     9    1
    11     9    10    1
    12    10    11    1
    13    13    14    1
    14    14    15   ar
    15    15    16   ar
    16    16    17   ar
    17    17    18   ar
    18     8     3   ar
    19    18    14   ar
    20    11     6    1
    21    18    19    1
