@<TRIPOS>MOLECULE
*****
 31 35 0 0 0
SMALL
GASTEIGER

@<TRIPOS>ATOM
      1 N          -9.2342  -16.1221   24.1476 N.3     1  UNL1       -0.2684
      2 C          -8.8112  -15.3940   25.3890 C.3     1  UNL1        0.0725
      3 C          -7.3146  -15.4503   25.4721 C.3     1  UNL1        0.0204
      4 C          -6.8127  -16.2132   24.2822 C.3     1  UNL1        0.0359
      5 C          -5.6263  -15.7980   25.1007 C.3     1  UNL1        0.0244
      6 C          -4.3911  -16.3043   24.4166 C.3     1  UNL1        0.0909
      7 N          -4.8141  -17.0324   23.1753 N.pl3   1  UNL1       -0.3074
      8 C          -6.3107  -16.9761   23.0922 C.3     1  UNL1        0.0921
      9 C          -7.9991  -16.6284   23.4636 C.3     1  UNL1        0.0741
     10 C          -3.9008  -17.6996   22.1900 C.ar    1  UNL1        0.0504
     11 C          -2.5451  -17.1207   21.9127 C.ar    1  UNL1        0.0293
     12 C          -1.6319  -17.7879   20.9275 C.ar    1  UNL1        0.0606
     13 C          -0.2761  -17.2089   20.6502 C.3     1  UNL1        0.0521
     14 N          -2.0743  -19.0342   20.2196 N.ar    1  UNL1       -0.2496
     15 C          -3.4300  -19.6132   20.4969 C.ar    1  UNL1        0.0821
     16 C          -3.8724  -20.8594   19.7889 C.ar    1  UNL1        0.0191
     17 C          -5.2280  -21.4383   20.0663 C.ar    1  UNL1        0.0015
     18 C          -6.1413  -20.7711   21.0515 C.ar    1  UNL1        0.0001
     19 C          -5.6989  -19.5249   21.7594 C.ar    1  UNL1        0.0027
     20 C          -4.3433  -18.9459   21.4821 C.ar    1  UNL1        0.0310
     21 C         -10.6449  -16.3108   23.6737 C.3     1  UNL1        0.1074
     22 C         -10.9179  -18.4008   20.4145 C.ar    1  UNL1        0.1653
     23 N         -11.7112  -17.1826   20.0449 N.ar    1  UNL1       -0.2227
     24 C         -11.7055  -16.2514   21.2208 C.ar    1  UNL1        0.1044
     25 C         -10.9087  -16.8941   22.3171 C.ar    1  UNL1        0.0451
     26 S         -10.4219  -18.2225   21.8188 S.2     1  UNL1       -0.0543
     27 C          -9.0391  -21.0226   18.1022 C.3     1  UNL1        0.0950
     28 C          -9.2920  -19.8347   18.9825 C.2     1  UNL1        0.2280
     29 O          -8.1719  -18.8925   19.3110 O.2     1  UNL1       -0.2747
     30 N         -10.6650  -19.5888   19.5342 N.am    1  UNL1       -0.2641
     31 H         -11.4002  -20.2071   19.3186 H       1  UNL1        0.1567
@<TRIPOS>BOND
     1    27    28    1
     2    28    29    2
     3    28    30   am
     4    30    22    1
     5    22    23   ar
     6    23    24   ar
     7    24    25   ar
     8    25    21    1
     9    21     1    1
    10     1     2    1
    11     2     3    1
    12     3     4    1
    13     4     5    1
    14     5     6    1
    15     6     7    1
    16     7    10    1
    17    10    11   ar
    18    11    12   ar
    19    12    13    1
    20    12    14   ar
    21    14    15   ar
    22    15    16   ar
    23    16    17   ar
    24    17    18   ar
    25    18    19   ar
    26    19    20   ar
    27     7     8    1
    28     4     9    1
    29    25    26   ar
    30    26    22   ar
    31     9     1    1
    32     8     4    1
    33    20    10   ar
    34    20    15   ar
    35    30    31    1
@<TRIPOS>MOLECULE
*****
 31 35 0 0 0
SMALL
GASTEIGER

@<TRIPOS>ATOM
      1 N           1.0789    2.6568   23.0368 N.3     1  UNL1       -0.2684
      2 C          -0.2807    2.7627   22.4120 C.3     1  UNL1        0.0725
      3 C          -0.2078    2.1629   21.0391 C.3     1  UNL1        0.0204
      4 C           1.1967    1.6863   20.8155 C.3     1  UNL1        0.0359
      5 C           0.4015    1.3811   19.5808 C.3     1  UNL1        0.0244
      6 C           1.3146    0.7158   18.5940 C.3     1  UNL1        0.0909
      7 N           2.6742    0.6099   19.2189 N.pl3   1  UNL1       -0.3074
      8 C           2.6013    1.2097   20.5918 C.3     1  UNL1        0.0921
      9 C           1.9919    1.9915   22.0502 C.3     1  UNL1        0.0741
     10 C           3.8926    0.0095   18.5825 C.ar    1  UNL1        0.0504
     11 C           4.8387    0.8776   17.8072 C.ar    1  UNL1        0.0293
     12 C           6.0572    0.2773   17.1708 C.ar    1  UNL1        0.0606
     13 C           7.0033    1.1455   16.3955 C.3     1  UNL1        0.0521
     14 N           6.3296   -1.1912   17.3098 N.ar    1  UNL1       -0.2496
     15 C           5.3834   -2.0594   18.0852 C.ar    1  UNL1        0.0821
     16 C           5.6558   -3.5278   18.2242 C.ar    1  UNL1        0.0191
     17 C           4.7097   -4.3960   18.9996 C.ar    1  UNL1        0.0015
     18 C           3.4912   -3.7956   19.6359 C.ar    1  UNL1        0.0001
     19 C           3.2189   -2.3272   19.4969 C.ar    1  UNL1        0.0027
     20 C           4.1650   -1.4590   18.7216 C.ar    1  UNL1        0.0310
     21 C           1.4586    3.1326   24.4078 C.3     1  UNL1        0.1074
     22 C           1.0363    1.3173   27.8123 C.ar    1  UNL1        0.1653
     23 N          -0.2623    0.9805   27.1413 N.ar    1  UNL1       -0.2227
     24 C          -0.2621    1.6195   25.7843 C.ar    1  UNL1        0.1044
     25 C           1.0365    2.3513   25.6166 C.ar    1  UNL1        0.0451
     26 S           1.8390    2.1644   26.8701 S.2     1  UNL1       -0.0543
     27 C           2.7107   -0.7881   30.7302 C.3     1  UNL1        0.0950
     28 C           2.2889   -0.3539   29.3579 C.2     1  UNL1        0.2280
     29 O           2.6979   -1.1565   28.1584 O.2     1  UNL1       -0.2747
     30 N           1.4581    0.8830   29.1848 N.am    1  UNL1       -0.2641
     31 H           1.1896    1.4098   29.9720 H       1  UNL1        0.1567
@<TRIPOS>BOND
     1    27    28    1
     2    28    29    2
     3    28    30   am
     4    30    22    1
     5    22    23   ar
     6    23    24   ar
     7    24    25   ar
     8    25    21    1
     9    21     1    1
    10     1     2    1
    11     2     3    1
    12     3     4    1
    13     4     5    1
    14     5     6    1
    15     6     7    1
    16     7    10    1
    17    10    11   ar
    18    11    12   ar
    19    12    13    1
    20    12    14   ar
    21    14    15   ar
    22    15    16   ar
    23    16    17   ar
    24    17    18   ar
    25    18    19   ar
    26    19    20   ar
    27     7     8    1
    28     4     9    1
    29    25    26   ar
    30    26    22   ar
    31     9     1    1
    32     8     4    1
    33    20    10   ar
    34    20    15   ar
    35    30    31    1
@<TRIPOS>MOLECULE
*****
 31 35 0 0 0
SMALL
GASTEIGER

@<TRIPOS>ATOM
      1 N           6.2264   -2.0269   25.6265 N.3     1  UNL1       -0.2684
      2 C           6.5672   -3.4859   25.5548 C.3     1  UNL1        0.0725
      3 C           6.4721   -3.9141   24.1204 C.3     1  UNL1        0.0204
      4 C           6.0725   -2.7199   23.3057 C.3     1  UNL1        0.0359
      5 C           6.2244   -3.8863   22.3748 C.3     1  UNL1        0.0244
      6 C           5.9186   -3.4128   20.9847 C.3     1  UNL1        0.0909
      7 N           5.5779   -1.9538   21.0564 N.pl3   1  UNL1       -0.3074
      8 C           5.6730   -1.5255   22.4908 C.3     1  UNL1        0.0921
      9 C           5.9207   -1.5535   24.2365 C.3     1  UNL1        0.0741
     10 C           5.2071   -1.0770   19.8972 C.ar    1  UNL1        0.0504
     11 C           6.2611   -0.6284   18.9288 C.ar    1  UNL1        0.0293
     12 C           5.8903    0.2484   17.7696 C.ar    1  UNL1        0.0606
     13 C           6.9445    0.6969   16.8012 C.3     1  UNL1        0.0521
     14 N           4.4655    0.6766   17.5788 N.ar    1  UNL1       -0.2496
     15 C           3.4114    0.2281   18.5472 C.ar    1  UNL1        0.0821
     16 C           1.9866    0.6563   18.3564 C.ar    1  UNL1        0.0191
     17 C           0.9326    0.2078   19.3247 C.ar    1  UNL1        0.0015
     18 C           1.3034   -0.6690   20.4839 C.ar    1  UNL1        0.0001
     19 C           2.7282   -1.0973   20.6748 C.ar    1  UNL1        0.0027
     20 C           3.7822   -0.6487   19.7064 C.ar    1  UNL1        0.0310
     21 C           6.1967   -1.1885   26.8700 C.3     1  UNL1        0.1074
     22 C           2.6281    0.1698   27.5664 C.ar    1  UNL1        0.1653
     23 N           3.4706    1.3317   28.0023 N.ar    1  UNL1       -0.2227
     24 C           4.9100    0.9643   27.7945 C.ar    1  UNL1        0.1044
     25 C           4.9570   -0.4247   27.2302 C.ar    1  UNL1        0.0451
     26 S           3.5467   -0.9157   27.0892 S.2     1  UNL1       -0.0543
     27 C          -1.0771   -0.2303   28.9309 C.3     1  UNL1        0.0950
     28 C           0.4210   -0.1653   28.8957 C.2     1  UNL1        0.2280
     29 O           1.2105   -0.3705   30.1546 O.2     1  UNL1       -0.2747
     30 N           1.1298    0.1048   27.6016 N.am    1  UNL1       -0.2641
     31 H           0.6117    0.2394   26.7754 H       1  UNL1        0.1567
@<TRIPOS>BOND
     1    27    28    1
     2    28    29    2
     3    28    30   am
     4    30    22    1
     5    22    23   ar
     6    23    24   ar
     7    24    25   ar
     8    25    21    1
     9    21     1    1
    10     1     2    1
    11     2     3    1
    12     3     4    1
    13     4     5    1
    14     5     6    1
    15     6     7    1
    16     7    10    1
    17    10    11   ar
    18    11    12   ar
    19    12    13    1
    20    12    14   ar
    21    14    15   ar
    22    15    16   ar
    23    16    17   ar
    24    17    18   ar
    25    18    19   ar
    26    19    20   ar
    27     7     8    1
    28     4     9    1
    29    25    26   ar
    30    26    22   ar
    31     9     1    1
    32     8     4    1
    33    20    10   ar
    34    20    15   ar
    35    30    31    1
@<TRIPOS>MOLECULE
*****
 31 35 0 0 0
SMALL
GASTEIGER

@<TRIPOS>ATOM
      1 N         -10.9314   -2.6119   18.1123 N.3     1  UNL1       -0.2684
      2 C         -10.5671   -1.7774   16.9203 C.3     1  UNL1        0.0725
      3 C         -11.6748   -0.7932   16.6875 C.3     1  UNL1        0.0204
      4 C         -12.7236   -1.0193   17.7356 C.3     1  UNL1        0.0359
      5 C         -13.1831    0.1047   16.8550 C.3     1  UNL1        0.0244
      6 C         -14.5160    0.5732   17.3589 C.3     1  UNL1        0.0909
      7 N         -14.8803   -0.2613   18.5510 N.pl3   1  UNL1       -0.3074
      8 C         -13.7726   -1.2455   18.7837 C.3     1  UNL1        0.0921
      9 C         -12.2642   -2.1434   18.6162 C.3     1  UNL1        0.0741
     10 C         -16.1325   -0.1338   19.3669 C.ar    1  UNL1        0.0504
     11 C         -16.4404    1.1538   20.0720 C.ar    1  UNL1        0.0293
     12 C         -17.6926    1.2812   20.8880 C.ar    1  UNL1        0.0606
     13 C         -18.0006    2.5689   21.5931 C.3     1  UNL1        0.0521
     14 N         -18.6369    0.1210   20.9989 N.ar    1  UNL1       -0.2496
     15 C         -18.3289   -1.1667   20.2938 C.ar    1  UNL1        0.0821
     16 C         -19.2732   -2.3269   20.4046 C.ar    1  UNL1        0.0191
     17 C         -18.9652   -3.6145   19.6996 C.ar    1  UNL1        0.0015
     18 C         -17.7130   -3.7419   18.8836 C.ar    1  UNL1        0.0001
     19 C         -16.7688   -2.5817   18.7727 C.ar    1  UNL1        0.0027
     20 C         -17.0768   -1.2941   19.4778 C.ar    1  UNL1        0.0310
     21 C         -10.1074   -3.7203   18.6976 C.3     1  UNL1        0.1074
     22 C         -11.9594   -7.1312   18.7255 C.ar    1  UNL1        0.1653
     23 N         -10.6403   -7.5225   18.1282 N.ar    1  UNL1       -0.2227
     24 C          -9.7860   -6.2924   18.0450 C.ar    1  UNL1        0.1044
     25 C         -10.5771   -5.1408   18.5910 C.ar    1  UNL1        0.0451
     26 S         -11.9203   -5.6592   19.0115 S.2     1  UNL1       -0.0543
     27 C         -15.1725   -9.3833   18.1306 C.3     1  UNL1        0.0950
     28 C         -14.0172   -8.4641   17.8658 C.2     1  UNL1        0.2280
     29 O         -13.7642   -7.9583   16.4764 O.2     1  UNL1       -0.2747
     30 N         -13.1148   -8.0505   18.9904 N.am    1  UNL1       -0.2641
     31 H         -13.2808   -8.3824   19.9023 H       1  UNL1        0.1567
@<TRIPOS>BOND
     1    27    28    1
     2    28    29    2
     3    28    30   am
     4    30    22    1
     5    22    23   ar
     6    23    24   ar
     7    24    25   ar
     8    25    21    1
     9    21     1    1
    10     1     2    1
    11     2     3    1
    12     3     4    1
    13     4     5    1
    14     5     6    1
    15     6     7    1
    16     7    10    1
    17    10    11   ar
    18    11    12   ar
    19    12    13    1
    20    12    14   ar
    21    14    15   ar
    22    15    16   ar
    23    16    17   ar
    24    17    18   ar
    25    18    19   ar
    26    19    20   ar
    27     7     8    1
    28     4     9    1
    29    25    26   ar
    30    26    22   ar
    31     9     1    1
    32     8     4    1
    33    20    10   ar
    34    20    15   ar
    35    30    31    1
@<TRIPOS>MOLECULE
*****
 31 35 0 0 0
SMALL
GASTEIGER

@<TRIPOS>ATOM
      1 N           2.1181    0.6646   25.3825 N.3     1  UNL1       -0.2684
      2 C           0.8377    1.3841   25.0778 C.3     1  UNL1        0.0725
      3 C           0.5969    1.2960   23.5998 C.3     1  UNL1        0.0204
      4 C           1.7284    0.5221   22.9912 C.3     1  UNL1        0.0359
      5 C           0.7883    0.9123   21.8895 C.3     1  UNL1        0.0244
      6 C           1.3389    0.3795   20.5999 C.3     1  UNL1        0.0909
      7 N           2.6193   -0.3400   20.9046 N.pl3   1  UNL1       -0.3074
      8 C           2.8600   -0.2519   22.3825 C.3     1  UNL1        0.0921
      9 C           2.6686    0.1319   24.0930 C.3     1  UNL1        0.0741
     10 C           3.5036   -1.0270   19.9066 C.ar    1  UNL1        0.0504
     11 C           3.5280   -2.5250   19.8322 C.ar    1  UNL1        0.0293
     12 C           4.4124   -3.2120   18.8342 C.ar    1  UNL1        0.0606
     13 C           4.4368   -4.7100   18.7598 C.3     1  UNL1        0.0521
     14 N           5.2723   -2.4011   17.9107 N.ar    1  UNL1       -0.2496
     15 C           5.2480   -0.9031   17.9852 C.ar    1  UNL1        0.0821
     16 C           6.1079   -0.0922   17.0617 C.ar    1  UNL1        0.0191
     17 C           6.0835    1.4058   17.1362 C.ar    1  UNL1        0.0015
     18 C           5.1992    2.0928   18.1341 C.ar    1  UNL1        0.0001
     19 C           4.3392    1.2819   19.0576 C.ar    1  UNL1        0.0027
     20 C           4.3636   -0.2160   18.9831 C.ar    1  UNL1        0.0310
     21 C           2.7389    0.5058   26.7388 C.3     1  UNL1        0.1074
     22 C           0.9959    1.9992   29.8687 C.ar    1  UNL1        0.1653
     23 N           0.4347    0.6082   29.8606 N.ar    1  UNL1       -0.2227
     24 C           1.0193   -0.1205   28.6870 C.ar    1  UNL1        0.1044
     25 C           1.9418    0.8201   27.9700 C.ar    1  UNL1        0.0451
     26 S           1.9274    2.1302   28.7003 S.2     1  UNL1       -0.0543
     27 C           0.8871    4.0361   33.2731 C.3     1  UNL1        0.0950
     28 C           1.2021    2.9642   32.2722 C.2     1  UNL1        0.2280
     29 O           2.0383    1.7853   32.6737 O.2     1  UNL1       -0.2747
     30 N           0.6809    3.0712   30.8697 N.am    1  UNL1       -0.2641
     31 H           0.1321    3.8449   30.6061 H       1  UNL1        0.1567
@<TRIPOS>BOND
     1    27    28    1
     2    28    29    2
     3    28    30   am
     4    30    22    1
     5    22    23   ar
     6    23    24   ar
     7    24    25   ar
     8    25    21    1
     9    21     1    1
    10     1     2    1
    11     2     3    1
    12     3     4    1
    13     4     5    1
    14     5     6    1
    15     6     7    1
    16     7    10    1
    17    10    11   ar
    18    11    12   ar
    19    12    13    1
    20    12    14   ar
    21    14    15   ar
    22    15    16   ar
    23    16    17   ar
    24    17    18   ar
    25    18    19   ar
    26    19    20   ar
    27     7     8    1
    28     4     9    1
    29    25    26   ar
    30    26    22   ar
    31     9     1    1
    32     8     4    1
    33    20    10   ar
    34    20    15   ar
    35    30    31    1
@<TRIPOS>MOLECULE
*****
 31 35 0 0 0
SMALL
GASTEIGER

@<TRIPOS>ATOM
      1 N           0.4121    2.0884   25.3724 N.3     1  UNL1       -0.2684
      2 C           0.8600    3.3672   24.7290 C.3     1  UNL1        0.0725
      3 C           2.0255    3.0545   23.8382 C.3     1  UNL1        0.0204
      4 C           2.2980    1.5825   23.9310 C.3     1  UNL1        0.0359
      5 C           3.2952    2.1796   22.9828 C.3     1  UNL1        0.0244
      6 C           4.1840    1.0765   22.4896 C.3     1  UNL1        0.0909
      7 N           3.7362   -0.2024   23.1330 N.pl3   1  UNL1       -0.3074
      8 C           2.5706    0.1103   24.0238 C.3     1  UNL1        0.0921
      9 C           1.3009    0.9853   24.8792 C.3     1  UNL1        0.0741
     10 C           4.3467   -1.5563   22.9225 C.ar    1  UNL1        0.0504
     11 C           5.1856   -2.1765   24.0002 C.ar    1  UNL1        0.0293
     12 C           5.7961   -3.5303   23.7897 C.ar    1  UNL1        0.0606
     13 C           6.6350   -4.1505   24.8676 C.3     1  UNL1        0.0521
     14 N           5.5678   -4.2640   22.5015 N.ar    1  UNL1       -0.2496
     15 C           4.7289   -3.6438   21.4237 C.ar    1  UNL1        0.0821
     16 C           4.5005   -4.3774   20.1355 C.ar    1  UNL1        0.0191
     17 C           3.6617   -3.7572   19.0577 C.ar    1  UNL1        0.0015
     18 C           3.0511   -2.4034   19.2682 C.ar    1  UNL1        0.0001
     19 C           3.2795   -1.6697   20.5564 C.ar    1  UNL1        0.0027
     20 C           4.1183   -2.2899   21.6342 C.ar    1  UNL1        0.0310
     21 C          -0.7249    1.9389   26.3393 C.3     1  UNL1        0.1074
     22 C           0.5771    1.4063   29.9567 C.ar    1  UNL1        0.1653
     23 N          -0.6444    0.5358   29.9573 N.ar    1  UNL1       -0.2227
     24 C          -1.2809    0.6293   28.6022 C.ar    1  UNL1        0.1044
     25 C          -0.4527    1.5577   27.7642 C.ar    1  UNL1        0.0451
     26 S           0.6956    2.0379   28.6013 S.2     1  UNL1       -0.0543
     27 C           3.3302    0.6863   32.7229 C.3     1  UNL1        0.0950
     28 C           2.3920    0.4831   31.5704 C.2     1  UNL1        0.2280
     29 O           2.3302   -0.8467   30.8790 O.2     1  UNL1       -0.2747
     30 N           1.5154    1.6096   31.1093 N.am    1  UNL1       -0.2641
     31 H           1.5559    2.4823   31.5631 H       1  UNL1        0.1567
@<TRIPOS>BOND
     1    27    28    1
     2    28    29    2
     3    28    30   am
     4    30    22    1
     5    22    23   ar
     6    23    24   ar
     7    24    25   ar
     8    25    21    1
     9    21     1    1
    10     1     2    1
    11     2     3    1
    12     3     4    1
    13     4     5    1
    14     5     6    1
    15     6     7    1
    16     7    10    1
    17    10    11   ar
    18    11    12   ar
    19    12    13    1
    20    12    14   ar
    21    14    15   ar
    22    15    16   ar
    23    16    17   ar
    24    17    18   ar
    25    18    19   ar
    26    19    20   ar
    27     7     8    1
    28     4     9    1
    29    25    26   ar
    30    26    22   ar
    31     9     1    1
    32     8     4    1
    33    20    10   ar
    34    20    15   ar
    35    30    31    1
@<TRIPOS>MOLECULE
*****
 31 35 0 0 0
SMALL
GASTEIGER

@<TRIPOS>ATOM
      1 N          -4.6302  -17.2528   23.3765 N.3     1  UNL1       -0.2684
      2 C          -4.3227  -16.1612   24.3583 C.3     1  UNL1        0.0725
      3 C          -5.6204  -15.5389   24.7808 C.3     1  UNL1        0.0204
      4 C          -6.7298  -16.2457   24.0602 C.3     1  UNL1        0.0359
      5 C          -7.3419  -15.1865   24.9281 C.3     1  UNL1        0.0244
      6 C          -8.8296  -15.2387   24.7439 C.3     1  UNL1        0.0909
      7 N          -9.1371  -16.3303   23.7621 N.pl3   1  UNL1       -0.3074
      8 C          -7.8393  -16.9527   23.3395 C.3     1  UNL1        0.0921
      9 C          -6.1178  -17.3050   23.1922 C.3     1  UNL1        0.0741
     10 C         -10.5025  -16.7294   23.2863 C.ar    1  UNL1        0.0504
     11 C         -11.4199  -17.4926   24.1950 C.ar    1  UNL1        0.0293
     12 C         -12.7853  -17.8917   23.7193 C.ar    1  UNL1        0.0606
     13 C         -13.7028  -18.6550   24.6281 C.3     1  UNL1        0.0521
     14 N         -13.2333  -17.5276   22.3348 N.ar    1  UNL1       -0.2496
     15 C         -12.3159  -16.7644   21.4261 C.ar    1  UNL1        0.0821
     16 C         -12.7639  -16.4003   20.0416 C.ar    1  UNL1        0.0191
     17 C         -11.8464  -15.6371   19.1329 C.ar    1  UNL1        0.0015
     18 C         -10.4810  -15.2380   19.6087 C.ar    1  UNL1        0.0001
     19 C         -10.0330  -15.6021   20.9931 C.ar    1  UNL1        0.0027
     20 C         -10.9504  -16.3653   21.9018 C.ar    1  UNL1        0.0310
     21 C          -3.6261  -18.1369   22.6980 C.3     1  UNL1        0.1074
     22 C          -5.4595  -20.4783   20.2039 C.ar    1  UNL1        0.1653
     23 N          -4.0368  -20.6335   19.7547 N.ar    1  UNL1       -0.2227
     24 C          -3.1768  -19.7753   20.6343 C.ar    1  UNL1        0.1044
     25 C          -4.0680  -19.0897   21.6272 C.ar    1  UNL1        0.0451
     26 S          -5.4788  -19.5242   21.3611 S.2     1  UNL1       -0.0543
     27 C          -9.0264  -21.0254   18.5520 C.3     1  UNL1        0.0950
     28 C          -7.8325  -20.3458   19.1543 C.2     1  UNL1        0.2280
     29 O          -7.8178  -18.8539   19.3096 O.2     1  UNL1       -0.2747
     30 N          -6.6534  -21.1580   19.6015 N.am    1  UNL1       -0.2641
     31 H          -6.6630  -22.1372   19.4996 H       1  UNL1        0.1567
@<TRIPOS>BOND
     1    27    28    1
     2    28    29    2
     3    28    30   am
     4    30    22    1
     5    22    23   ar
     6    23    24   ar
     7    24    25   ar
     8    25    21    1
     9    21     1    1
    10     1     2    1
    11     2     3    1
    12     3     4    1
    13     4     5    1
    14     5     6    1
    15     6     7    1
    16     7    10    1
    17    10    11   ar
    18    11    12   ar
    19    12    13    1
    20    12    14   ar
    21    14    15   ar
    22    15    16   ar
    23    16    17   ar
    24    17    18   ar
    25    18    19   ar
    26    19    20   ar
    27     7     8    1
    28     4     9    1
    29    25    26   ar
    30    26    22   ar
    31     9     1    1
    32     8     4    1
    33    20    10   ar
    34    20    15   ar
    35    30    31    1
@<TRIPOS>MOLECULE
*****
 31 35 0 0 0
SMALL
GASTEIGER

@<TRIPOS>ATOM
      1 N           7.4569   -4.6809   27.3938 N.3     1  UNL1       -0.2684
      2 C           8.8177   -4.0507   27.3593 C.3     1  UNL1        0.0725
      3 C           8.9622   -3.3314   26.0510 C.3     1  UNL1        0.0204
      4 C           7.6909   -3.5170   25.2770 C.3     1  UNL1        0.0359
      5 C           8.6213   -2.6829   24.4471 C.3     1  UNL1        0.0244
      6 C           7.9248   -2.3530   23.1602 C.3     1  UNL1        0.0909
      7 N           6.5641   -2.9832   23.1947 N.pl3   1  UNL1       -0.3074
      8 C           6.4195   -3.7026   24.5030 C.3     1  UNL1        0.0921
      9 C           6.7606   -4.3510   26.1070 C.3     1  UNL1        0.0741
     10 C           5.5295   -2.9074   22.1112 C.ar    1  UNL1        0.0504
     11 C           5.5673   -3.8786   20.9688 C.ar    1  UNL1        0.0293
     12 C           4.5328   -3.8028   19.8853 C.ar    1  UNL1        0.0606
     13 C           4.5706   -4.7741   18.7429 C.3     1  UNL1        0.0521
     14 N           3.4604   -2.7556   19.9443 N.ar    1  UNL1       -0.2496
     15 C           3.4225   -1.7843   21.0867 C.ar    1  UNL1        0.0821
     16 C           2.3502   -0.7372   21.1457 C.ar    1  UNL1        0.0191
     17 C           2.3123    0.2341   22.2881 C.ar    1  UNL1        0.0015
     18 C           3.3469    0.1582   23.3716 C.ar    1  UNL1        0.0001
     19 C           4.4193   -0.8889   23.3126 C.ar    1  UNL1        0.0027
     20 C           4.4571   -1.8602   22.1702 C.ar    1  UNL1        0.0310
     21 C           6.8919   -5.4976   28.5180 C.3     1  UNL1        0.1074
     22 C           6.4285   -3.3170   31.6953 C.ar    1  UNL1        0.1653
     23 N           6.7276   -4.6552   32.3033 N.ar    1  UNL1       -0.2227
     24 C           6.9376   -5.6349   31.1871 C.ar    1  UNL1        0.1044
     25 C           6.7683   -4.9023   29.8892 C.ar    1  UNL1        0.0451
     26 S           6.4536   -3.4697   30.2033 S.2     1  UNL1       -0.0543
     27 C           4.6806   -0.6874   34.0995 C.3     1  UNL1        0.0950
     28 C           4.9564   -1.9556   33.3474 C.2     1  UNL1        0.2280
     29 O           4.0359   -3.1307   33.4956 O.2     1  UNL1       -0.2747
     30 N           6.1527   -2.0487   32.4473 N.am    1  UNL1       -0.2641
     31 H           6.7568   -1.2774   32.3501 H       1  UNL1        0.1567
@<TRIPOS>BOND
     1    27    28    1
     2    28    29    2
     3    28    30   am
     4    30    22    1
     5    22    23   ar
     6    23    24   ar
     7    24    25   ar
     8    25    21    1
     9    21     1    1
    10     1     2    1
    11     2     3    1
    12     3     4    1
    13     4     5    1
    14     5     6    1
    15     6     7    1
    16     7    10    1
    17    10    11   ar
    18    11    12   ar
    19    12    13    1
    20    12    14   ar
    21    14    15   ar
    22    15    16   ar
    23    16    17   ar
    24    17    18   ar
    25    18    19   ar
    26    19    20   ar
    27     7     8    1
    28     4     9    1
    29    25    26   ar
    30    26    22   ar
    31     9     1    1
    32     8     4    1
    33    20    10   ar
    34    20    15   ar
    35    30    31    1
@<TRIPOS>MOLECULE
*****
 31 35 0 0 0
SMALL
GASTEIGER

@<TRIPOS>ATOM
      1 N         -11.6367   -5.6579   18.6356 N.3     1  UNL1       -0.2684
      2 C         -11.1993   -6.9163   17.9463 C.3     1  UNL1        0.0725
      3 C         -12.3994   -7.8035   17.7961 C.3     1  UNL1        0.0204
      4 C         -13.5784   -7.0934   18.3925 C.3     1  UNL1        0.0359
      5 C         -14.0498   -8.4195   17.8736 C.3     1  UNL1        0.0244
      6 C         -15.5202   -8.5290   18.1493 C.3     1  UNL1        0.0909
      7 N         -15.9575   -7.2706   18.8386 N.pl3   1  UNL1       -0.3074
      8 C         -14.7574   -6.3834   18.9889 C.3     1  UNL1        0.0921
      9 C         -13.1070   -5.7674   18.9114 C.3     1  UNL1        0.0741
     10 C         -17.3504   -6.9549   19.2972 C.ar    1  UNL1        0.0504
     11 C         -18.1684   -8.0048   19.9889 C.ar    1  UNL1        0.0293
     12 C         -19.5612   -7.6891   20.4474 C.ar    1  UNL1        0.0606
     13 C         -20.3792   -8.7391   21.1391 C.3     1  UNL1        0.0521
     14 N         -20.1361   -6.3234   20.2142 N.ar    1  UNL1       -0.2496
     15 C         -19.3181   -5.2734   19.5225 C.ar    1  UNL1        0.0821
     16 C         -19.8930   -3.9077   19.2894 C.ar    1  UNL1        0.0191
     17 C         -19.0750   -2.8577   18.5977 C.ar    1  UNL1        0.0015
     18 C         -17.6821   -3.1735   18.1392 C.ar    1  UNL1        0.0001
     19 C         -17.1072   -4.5392   18.3723 C.ar    1  UNL1        0.0027
     20 C         -17.9252   -5.5891   19.0640 C.ar    1  UNL1        0.0310
     21 C         -10.7578   -4.4943   18.9874 C.3     1  UNL1        0.1074
     22 C         -11.9302   -0.8871   18.1637 C.ar    1  UNL1        0.1653
     23 N         -11.0852   -1.1982   16.9641 N.ar    1  UNL1       -0.2227
     24 C         -10.5431   -2.5873   17.1266 C.ar    1  UNL1        0.1044
     25 C         -11.0532   -3.1347   18.4267 C.ar    1  UNL1        0.0451
     26 S         -11.9104   -2.0839   19.0676 S.2     1  UNL1       -0.0543
     27 C         -14.8885    1.7396   18.4789 C.3     1  UNL1        0.0950
     28 C         -14.1528    0.4568   18.2274 C.2     1  UNL1        0.2280
     29 O         -14.9041   -0.7650   17.7883 O.2     1  UNL1       -0.2747
     30 N         -12.6659    0.3958   18.4152 N.am    1  UNL1       -0.2641
     31 H         -12.1728    1.1977   18.7034 H       1  UNL1        0.1567
@<TRIPOS>BOND
     1    27    28    1
     2    28    29    2
     3    28    30   am
     4    30    22    1
     5    22    23   ar
     6    23    24   ar
     7    24    25   ar
     8    25    21    1
     9    21     1    1
    10     1     2    1
    11     2     3    1
    12     3     4    1
    13     4     5    1
    14     5     6    1
    15     6     7    1
    16     7    10    1
    17    10    11   ar
    18    11    12   ar
    19    12    13    1
    20    12    14   ar
    21    14    15   ar
    22    15    16   ar
    23    16    17   ar
    24    17    18   ar
    25    18    19   ar
    26    19    20   ar
    27     7     8    1
    28     4     9    1
    29    25    26   ar
    30    26    22   ar
    31     9     1    1
    32     8     4    1
    33    20    10   ar
    34    20    15   ar
    35    30    31    1
