@<TRIPOS>MOLECULE
*****
 30 32 0 0 0
SMALL
GASTEIGER

@<TRIPOS>ATOM
      1 C          -5.7070  -17.6087   22.9318 C.ar    1  UNL1        0.0942
      2 C          -5.9442  -16.4892   23.9015 C.ar    1  UNL1        0.1078
      3 N          -7.3424  -16.1437   24.3206 N.ar    1  UNL1       -0.2119
      4 C          -8.5034  -16.9177   23.7701 C.ar    1  UNL1        0.2206
      5 N          -8.2661  -18.0373   22.8004 N.ar    1  UNL1       -0.2094
      6 C          -6.8678  -18.3828   22.3812 C.ar    1  UNL1        0.1613
      7 O          -3.2851  -16.8700   22.3497 O.2     1  UNL1       -0.2700
      8 C          -4.3088  -17.9542   22.5127 C.2     1  UNL1        0.2488
      9 N          -3.9343  -19.3840   22.2565 N.am    1  UNL1       -0.3008
     10 H          -4.6061  -20.0956   22.3634 H       1  UNL1        0.1497
     11 C          -2.5361  -19.7295   21.8373 C.3     1  UNL1        0.0896
     12 C          -1.8964  -19.0051   20.6901 C.3     1  UNL1        0.0196
     13 C          -2.6576  -18.8011   19.4138 C.3     1  UNL1        0.0017
     14 C          -2.0179  -18.0767   18.2667 C.3     1  UNL1        0.0001
     15 C          -0.6169  -17.5565   18.3957 C.3     1  UNL1        0.0000
     16 C           0.1443  -17.7605   19.6720 C.3     1  UNL1        0.0001
     17 C          -0.4954  -18.4849   20.8192 C.3     1  UNL1        0.0017
     18 C          -6.6306  -19.5023   21.4116 C.3     1  UNL1        0.4351
     19 F          -6.3933  -20.6219   20.4419 F       1  UNL1       -0.1644
     20 F          -6.4446  -18.5055   20.3062 F       1  UNL1       -0.1644
     21 F          -6.8166  -20.4991   22.5169 F       1  UNL1       -0.1644
     22 N          -9.9015  -16.5722   24.1892 N.pl3   1  UNL1       -0.2825
     23 H         -10.0637  -16.1560   25.0665 H       1  UNL1        0.1551
     24 C         -11.0525  -16.8610   23.2717 C.ar    1  UNL1        0.0513
     25 C         -12.1414  -17.7967   23.7061 C.ar    1  UNL1        0.0147
     26 C         -13.2925  -18.0854   22.7886 C.ar    1  UNL1        0.0021
     27 C         -13.3546  -17.4384   21.4368 C.ar    1  UNL1        0.0115
     28 C         -12.2657  -16.5027   21.0024 C.ar    1  UNL1        0.0589
     29 CL        -12.3278  -15.8557   19.6505 Cl      1  UNL1       -0.0822
     30 C         -11.1147  -16.2140   21.9199 C.ar    1  UNL1        0.0261
@<TRIPOS>BOND
     1     7     8    2
     2     8     9   am
     3     9    11    1
     4    11    12    1
     5    12    13    1
     6    13    14    1
     7    14    15    1
     8    15    16    1
     9    16    17    1
    10     8     1    1
    11     1     2   ar
    12     2     3   ar
    13     3     4   ar
    14     4    22    1
    15    22    24    1
    16    24    25   ar
    17    25    26   ar
    18    26    27   ar
    19    27    28   ar
    20    28    29    1
    21    28    30   ar
    22     4     5   ar
    23     5     6   ar
    24     6    18    1
    25    18    19    1
    26    18    20    1
    27    18    21    1
    28    17    12    1
    29     6     1   ar
    30    30    24   ar
    31     9    10    1
    32    22    23    1
@<TRIPOS>MOLECULE
*****
 30 32 0 0 0
SMALL
GASTEIGER

@<TRIPOS>ATOM
      1 C           6.1872   -2.4507   19.3049 C.ar    1  UNL1        0.0942
      2 C           7.5944   -2.0304   19.6104 C.ar    1  UNL1        0.1078
      3 N           8.5030   -2.9493   20.3719 N.ar    1  UNL1       -0.2119
      4 C           8.0045   -4.2886   20.8281 C.ar    1  UNL1        0.2206
      5 N           6.5973   -4.7088   20.5226 N.ar    1  UNL1       -0.2094
      6 C           5.6887   -3.7899   19.7610 C.ar    1  UNL1        0.1613
      7 O           5.0332   -1.7618   17.0815 O.2     1  UNL1       -0.2700
      8 C           5.2786   -1.5318   18.5433 C.2     1  UNL1        0.2488
      9 N           4.6154   -0.3829   19.2435 N.am    1  UNL1       -0.3008
     10 H           4.7765   -0.2320   20.2030 H       1  UNL1        0.1497
     11 C           3.7068    0.5360   18.4819 C.3     1  UNL1        0.0896
     12 C           2.3868    0.9409   19.0682 C.3     1  UNL1        0.0196
     13 C           1.8686    2.3329   18.8588 C.3     1  UNL1        0.0017
     14 C           0.5487    2.7378   19.4451 C.3     1  UNL1        0.0001
     15 C          -0.2531    1.7508   20.2407 C.3     1  UNL1        0.0000
     16 C           0.2651    0.3589   20.4500 C.3     1  UNL1        0.0001
     17 C           1.5851   -0.0461   19.8638 C.3     1  UNL1        0.0017
     18 C           4.2816   -4.2101   19.4555 C.3     1  UNL1        0.4351
     19 F           2.8744   -4.6304   19.1500 F       1  UNL1       -0.1644
     20 F           3.7932   -3.4417   20.6476 F       1  UNL1       -0.1644
     21 F           4.7699   -4.9786   18.2635 F       1  UNL1       -0.1644
     22 N           8.9131   -5.2074   21.5897 N.pl3   1  UNL1       -0.2825
     23 H           9.7754   -5.4804   21.2010 H       1  UNL1        0.1551
     24 C           8.5078   -5.7105   22.9434 C.ar    1  UNL1        0.0513
     25 C           8.7935   -7.1308   23.3322 C.ar    1  UNL1        0.0147
     26 C           8.3882   -7.6338   24.6860 C.ar    1  UNL1        0.0021
     27 C           7.6972   -6.7166   25.6510 C.ar    1  UNL1        0.0115
     28 C           7.4115   -5.2963   25.2622 C.ar    1  UNL1        0.0589
     29 CL          6.7205   -4.3790   26.2272 Cl      1  UNL1       -0.0822
     30 C           7.8168   -4.7933   23.9084 C.ar    1  UNL1        0.0261
@<TRIPOS>BOND
     1     7     8    2
     2     8     9   am
     3     9    11    1
     4    11    12    1
     5    12    13    1
     6    13    14    1
     7    14    15    1
     8    15    16    1
     9    16    17    1
    10     8     1    1
    11     1     2   ar
    12     2     3   ar
    13     3     4   ar
    14     4    22    1
    15    22    24    1
    16    24    25   ar
    17    25    26   ar
    18    26    27   ar
    19    27    28   ar
    20    28    29    1
    21    28    30   ar
    22     4     5   ar
    23     5     6   ar
    24     6    18    1
    25    18    19    1
    26    18    20    1
    27    18    21    1
    28    17    12    1
    29     6     1   ar
    30    30    24   ar
    31     9    10    1
    32    22    23    1
@<TRIPOS>MOLECULE
*****
 30 32 0 0 0
SMALL
GASTEIGER

@<TRIPOS>ATOM
      1 C           6.9257   -2.4076   19.5337 C.ar    1  UNL1        0.0942
      2 C           8.3496   -2.3343   19.9998 C.ar    1  UNL1        0.1078
      3 N           8.8910   -3.3838   20.9247 N.ar    1  UNL1       -0.2119
      4 C           8.0085   -4.5066   21.3836 C.ar    1  UNL1        0.2206
      5 N           6.5846   -4.5799   20.9176 N.ar    1  UNL1       -0.2094
      6 C           6.0432   -3.5303   19.9926 C.ar    1  UNL1        0.1613
      7 O           6.5236   -1.5226   17.1244 O.2     1  UNL1       -0.2700
      8 C           6.3843   -1.3582   18.6088 C.2     1  UNL1        0.2488
      9 N           5.7035   -0.1442   19.1684 N.am    1  UNL1       -0.3008
     10 H           5.6121   -0.0363   20.1426 H       1  UNL1        0.1497
     11 C           5.1621    0.9052   18.2435 C.3     1  UNL1        0.0896
     12 C           3.7164    1.2981   18.3191 C.3     1  UNL1        0.0196
     13 C           2.6505    0.2429   18.2994 C.3     1  UNL1        0.0017
     14 C           1.2048    0.6358   18.3750 C.3     1  UNL1        0.0001
     15 C           0.8251    2.0838   18.4703 C.3     1  UNL1        0.0000
     16 C           1.8911    3.1390   18.4900 C.3     1  UNL1        0.0001
     17 C           3.3367    2.7461   18.4144 C.3     1  UNL1        0.0017
     18 C           4.6193   -3.6036   19.5266 C.3     1  UNL1        0.4351
     19 F           3.1954   -3.6769   19.0606 F       1  UNL1       -0.1644
     20 F           4.1903   -2.7858   20.7086 F       1  UNL1       -0.1644
     21 F           5.0483   -4.4215   18.3446 F       1  UNL1       -0.1644
     22 N           8.5498   -5.5560   22.3085 N.pl3   1  UNL1       -0.2825
     23 H           9.2646   -6.1602   22.0029 H       1  UNL1        0.1551
     24 C           8.0023   -5.6850   23.6990 C.ar    1  UNL1        0.0513
     25 C           7.3330   -4.5128   24.3532 C.ar    1  UNL1        0.0147
     26 C           6.7854   -4.6418   25.7438 C.ar    1  UNL1        0.0021
     27 C           6.9072   -5.9429   26.4801 C.ar    1  UNL1        0.0115
     28 C           7.5765   -7.1151   25.8259 C.ar    1  UNL1        0.0589
     29 CL          7.6983   -8.4163   26.5622 Cl      1  UNL1       -0.0822
     30 C           8.1241   -6.9861   24.4354 C.ar    1  UNL1        0.0261
@<TRIPOS>BOND
     1     7     8    2
     2     8     9   am
     3     9    11    1
     4    11    12    1
     5    12    13    1
     6    13    14    1
     7    14    15    1
     8    15    16    1
     9    16    17    1
    10     8     1    1
    11     1     2   ar
    12     2     3   ar
    13     3     4   ar
    14     4    22    1
    15    22    24    1
    16    24    25   ar
    17    25    26   ar
    18    26    27   ar
    19    27    28   ar
    20    28    29    1
    21    28    30   ar
    22     4     5   ar
    23     5     6   ar
    24     6    18    1
    25    18    19    1
    26    18    20    1
    27    18    21    1
    28    17    12    1
    29     6     1   ar
    30    30    24   ar
    31     9    10    1
    32    22    23    1
@<TRIPOS>MOLECULE
*****
 30 32 0 0 0
SMALL
GASTEIGER

@<TRIPOS>ATOM
      1 C         -13.3089   -6.3600   18.0326 C.ar    1  UNL1        0.0942
      2 C         -13.1091   -7.6997   17.3882 C.ar    1  UNL1        0.1078
      3 N         -13.9944   -8.8514   17.7620 N.ar    1  UNL1       -0.2119
      4 C         -15.0797   -8.6634   18.7803 C.ar    1  UNL1        0.2206
      5 N         -15.2796   -7.3237   19.4247 N.ar    1  UNL1       -0.2094
      6 C         -14.3941   -6.1720   19.0508 C.ar    1  UNL1        0.1613
      7 O         -12.6021   -4.5236   16.3361 O.2     1  UNL1       -0.2700
      8 C         -12.4236   -5.2084   17.6587 C.2     1  UNL1        0.2488
      9 N         -11.3596   -4.7414   18.6075 N.am    1  UNL1       -0.3008
     10 H         -11.2425   -5.1909   19.4755 H       1  UNL1        0.1497
     11 C         -10.4743   -3.5898   18.2336 C.3     1  UNL1        0.0896
     12 C         -11.0686   -2.2332   17.9959 C.3     1  UNL1        0.0196
     13 C         -12.1679   -1.7299   18.8837 C.3     1  UNL1        0.0017
     14 C         -12.7622   -0.3734   18.6460 C.3     1  UNL1        0.0001
     15 C         -12.2572    0.4799   17.5205 C.3     1  UNL1        0.0000
     16 C         -11.1579   -0.0233   16.6326 C.3     1  UNL1        0.0001
     17 C         -10.5636   -1.3798   16.8704 C.3     1  UNL1        0.0017
     18 C         -14.5940   -4.8323   19.6952 C.3     1  UNL1        0.4351
     19 F         -14.7939   -3.4926   20.3396 F       1  UNL1       -0.1644
     20 F         -13.6821   -5.2353   20.8159 F       1  UNL1       -0.1644
     21 F         -15.5059   -4.4293   18.5745 F       1  UNL1       -0.1644
     22 N         -15.9650   -9.8150   19.1542 N.pl3   1  UNL1       -0.2825
     23 H         -15.5681  -10.6589   19.4697 H       1  UNL1        0.1551
     24 C         -17.4552   -9.6810   19.0474 C.ar    1  UNL1        0.0513
     25 C         -18.1862  -10.3236   17.9060 C.ar    1  UNL1        0.0147
     26 C         -19.6763  -10.1895   17.7992 C.ar    1  UNL1        0.0021
     27 C         -20.4356   -9.4129   18.8338 C.ar    1  UNL1        0.0115
     28 C         -19.7046   -8.7703   19.9751 C.ar    1  UNL1        0.0589
     29 CL        -20.4638   -7.9935   21.0097 Cl      1  UNL1       -0.0822
     30 C         -18.2144   -8.9043   20.0819 C.ar    1  UNL1        0.0261
@<TRIPOS>BOND
     1     7     8    2
     2     8     9   am
     3     9    11    1
     4    11    12    1
     5    12    13    1
     6    13    14    1
     7    14    15    1
     8    15    16    1
     9    16    17    1
    10     8     1    1
    11     1     2   ar
    12     2     3   ar
    13     3     4   ar
    14     4    22    1
    15    22    24    1
    16    24    25   ar
    17    25    26   ar
    18    26    27   ar
    19    27    28   ar
    20    28    29    1
    21    28    30   ar
    22     4     5   ar
    23     5     6   ar
    24     6    18    1
    25    18    19    1
    26    18    20    1
    27    18    21    1
    28    17    12    1
    29     6     1   ar
    30    30    24   ar
    31     9    10    1
    32    22    23    1
@<TRIPOS>MOLECULE
*****
 30 32 0 0 0
SMALL
GASTEIGER

@<TRIPOS>ATOM
      1 C          -8.9868  -19.4382   21.1687 C.ar    1  UNL1        0.0942
      2 C          -8.3585  -19.4913   19.8076 C.ar    1  UNL1        0.1078
      3 N          -6.8829  -19.7236   19.6713 N.ar    1  UNL1       -0.2119
      4 C          -6.0356  -19.9028   20.8961 C.ar    1  UNL1        0.2206
      5 N          -6.6639  -19.8496   22.2571 N.ar    1  UNL1       -0.2094
      6 C          -8.1396  -19.6173   22.3934 C.ar    1  UNL1        0.1613
      7 O         -11.4160  -20.3590   21.2008 O.2     1  UNL1       -0.2700
      8 C         -10.4624  -19.2059   21.3050 C.2     1  UNL1        0.2488
      9 N         -10.9845  -17.8203   21.5454 N.am    1  UNL1       -0.3008
     10 H         -10.3587  -17.0634   21.6138 H       1  UNL1        0.1497
     11 C         -12.4601  -17.5880   21.6817 C.3     1  UNL1        0.0896
     12 C         -13.1608  -17.9452   22.9590 C.3     1  UNL1        0.0196
     13 C         -14.6573  -18.0418   22.9919 C.3     1  UNL1        0.0017
     14 C         -15.3579  -18.3990   24.2692 C.3     1  UNL1        0.0001
     15 C         -14.5620  -18.6596   25.5136 C.3     1  UNL1        0.0000
     16 C         -13.0655  -18.5631   25.4808 C.3     1  UNL1        0.0001
     17 C         -12.3649  -18.2059   24.2035 C.3     1  UNL1        0.0017
     18 C          -8.7679  -19.5642   23.7544 C.3     1  UNL1        0.4351
     19 F          -9.3962  -19.5110   25.1154 F       1  UNL1       -0.1644
     20 F          -8.6928  -18.0662   23.7306 F       1  UNL1       -0.1644
     21 F          -8.8430  -21.0621   23.7782 F       1  UNL1       -0.1644
     22 N          -4.5600  -20.1351   20.7598 N.pl3   1  UNL1       -0.2825
     23 H          -4.2237  -21.0215   20.4945 H       1  UNL1        0.1551
     24 C          -3.5968  -19.0169   21.0278 C.ar    1  UNL1        0.0513
     25 C          -3.7902  -18.1305   22.2222 C.ar    1  UNL1        0.0147
     26 C          -2.8270  -17.0122   22.4902 C.ar    1  UNL1        0.0021
     27 C          -1.6704  -16.7805   21.5638 C.ar    1  UNL1        0.0115
     28 C          -1.4769  -17.6669   20.3694 C.ar    1  UNL1        0.0589
     29 CL         -0.3202  -17.4352   19.4428 Cl      1  UNL1       -0.0822
     30 C          -2.4401  -18.7852   20.1014 C.ar    1  UNL1        0.0261
@<TRIPOS>BOND
     1     7     8    2
     2     8     9   am
     3     9    11    1
     4    11    12    1
     5    12    13    1
     6    13    14    1
     7    14    15    1
     8    15    16    1
     9    16    17    1
    10     8     1    1
    11     1     2   ar
    12     2     3   ar
    13     3     4   ar
    14     4    22    1
    15    22    24    1
    16    24    25   ar
    17    25    26   ar
    18    26    27   ar
    19    27    28   ar
    20    28    29    1
    21    28    30   ar
    22     4     5   ar
    23     5     6   ar
    24     6    18    1
    25    18    19    1
    26    18    20    1
    27    18    21    1
    28    17    12    1
    29     6     1   ar
    30    30    24   ar
    31     9    10    1
    32    22    23    1
@<TRIPOS>MOLECULE
*****
 30 32 0 0 0
SMALL
GASTEIGER

@<TRIPOS>ATOM
      1 C         -13.5095   -0.7185   18.5157 C.ar    1  UNL1        0.0942
      2 C         -13.3191    0.7466   18.2563 C.ar    1  UNL1        0.1078
      3 N         -14.3716    1.7266   18.6824 N.ar    1  UNL1       -0.2119
      4 C         -15.6146    1.2417   19.3680 C.ar    1  UNL1        0.2206
      5 N         -15.8049   -0.2234   19.6274 N.ar    1  UNL1       -0.2094
      6 C         -14.7523   -1.2035   19.2013 C.ar    1  UNL1        0.1613
      7 O         -12.4461   -2.2240   16.6847 O.2     1  UNL1       -0.2700
      8 C         -12.4570   -1.6986   18.0896 C.2     1  UNL1        0.2488
      9 N         -11.4152   -2.1533   19.0684 N.am    1  UNL1       -0.3008
     10 H         -11.4223   -1.8085   19.9905 H       1  UNL1        0.1497
     11 C         -10.3627   -3.1334   18.6423 C.3     1  UNL1        0.0896
     12 C         -10.6572   -4.6042   18.6577 C.3     1  UNL1        0.0196
     13 C          -9.5879   -5.5871   18.2827 C.3     1  UNL1        0.0017
     14 C          -9.8824   -7.0578   18.2981 C.3     1  UNL1        0.0001
     15 C         -11.2461   -7.5456   18.6884 C.3     1  UNL1        0.0000
     16 C         -12.3154   -6.5627   19.0633 C.3     1  UNL1        0.0001
     17 C         -12.0209   -5.0920   19.0480 C.3     1  UNL1        0.0017
     18 C         -14.9427   -2.6686   19.4607 C.3     1  UNL1        0.4351
     19 F         -15.1330   -4.1337   19.7201 F       1  UNL1       -0.1644
     20 F         -15.6276   -2.8145   18.1342 F       1  UNL1       -0.1644
     21 F         -14.2577   -2.5227   20.7872 F       1  UNL1       -0.1644
     22 N         -16.6671    2.2217   19.7941 N.pl3   1  UNL1       -0.2825
     23 H         -17.3575    2.5115   19.1549 H       1  UNL1        0.1551
     24 C         -16.6677    2.7603   21.1941 C.ar    1  UNL1        0.0513
     25 C         -17.4575    2.0668   22.2641 C.ar    1  UNL1        0.0147
     26 C         -17.4581    2.6054   23.6641 C.ar    1  UNL1        0.0021
     27 C         -16.6688    3.8375   23.9940 C.ar    1  UNL1        0.0115
     28 C         -15.8789    4.5310   22.9239 C.ar    1  UNL1        0.0589
     29 CL        -15.0895    5.7631   23.2538 Cl      1  UNL1       -0.0822
     30 C         -15.8783    3.9924   21.5240 C.ar    1  UNL1        0.0261
@<TRIPOS>BOND
     1     7     8    2
     2     8     9   am
     3     9    11    1
     4    11    12    1
     5    12    13    1
     6    13    14    1
     7    14    15    1
     8    15    16    1
     9    16    17    1
    10     8     1    1
    11     1     2   ar
    12     2     3   ar
    13     3     4   ar
    14     4    22    1
    15    22    24    1
    16    24    25   ar
    17    25    26   ar
    18    26    27   ar
    19    27    28   ar
    20    28    29    1
    21    28    30   ar
    22     4     5   ar
    23     5     6   ar
    24     6    18    1
    25    18    19    1
    26    18    20    1
    27    18    21    1
    28    17    12    1
    29     6     1   ar
    30    30    24   ar
    31     9    10    1
    32    22    23    1
@<TRIPOS>MOLECULE
*****
 30 32 0 0 0
SMALL
GASTEIGER

@<TRIPOS>ATOM
      1 C           7.1874   -3.1419   20.8755 C.ar    1  UNL1        0.0942
      2 C           8.5350   -3.6317   20.4349 C.ar    1  UNL1        0.1078
      3 N           9.2067   -4.7485   21.1776 N.ar    1  UNL1       -0.2119
      4 C           8.5308   -5.3756   22.3608 C.ar    1  UNL1        0.2206
      5 N           7.1832   -4.8858   22.8014 N.ar    1  UNL1       -0.2094
      6 C           6.5115   -3.7689   22.0587 C.ar    1  UNL1        0.1613
      7 O           6.8577   -0.5999   20.4520 O.2     1  UNL1       -0.2700
      8 C           6.5157   -2.0251   20.1329 C.2     1  UNL1        0.2488
      9 N           5.5020   -2.3335   19.0710 N.am    1  UNL1       -0.3008
     10 H           5.2776   -3.2689   18.8616 H       1  UNL1        0.1497
     11 C           4.8304   -1.2167   18.3284 C.3     1  UNL1        0.0896
     12 C           3.4818   -0.7282   18.7677 C.3     1  UNL1        0.0196
     13 C           2.8588   -1.2710   20.0196 C.3     1  UNL1        0.0017
     14 C           1.5103   -0.7826   20.4588 C.3     1  UNL1        0.0001
     15 C           0.7848    0.2486   19.6461 C.3     1  UNL1        0.0000
     16 C           1.4078    0.7913   18.3942 C.3     1  UNL1        0.0001
     17 C           2.7563    0.3029   17.9550 C.3     1  UNL1        0.0017
     18 C           5.1639   -3.2791   22.4992 C.3     1  UNL1        0.4351
     19 F           3.8163   -2.7893   22.9398 F       1  UNL1       -0.1644
     20 F           4.5053   -4.3026   21.6225 F       1  UNL1       -0.1644
     21 F           5.8225   -2.2556   23.3759 F       1  UNL1       -0.1644
     22 N           9.2024   -6.4924   23.1035 N.pl3   1  UNL1       -0.2825
     23 H           9.6863   -7.1920   22.6079 H       1  UNL1        0.1551
     24 C           9.1369   -6.5432   24.6012 C.ar    1  UNL1        0.0513
     25 C           9.5342   -5.3443   25.4104 C.ar    1  UNL1        0.0147
     26 C           9.4687   -5.3951   26.9081 C.ar    1  UNL1        0.0021
     27 C           9.0059   -6.6448   27.5966 C.ar    1  UNL1        0.0115
     28 C           8.6087   -7.8437   26.7874 C.ar    1  UNL1        0.0589
     29 CL          8.1459   -9.0935   27.4759 Cl      1  UNL1       -0.0822
     30 C           8.6742   -7.7929   25.2897 C.ar    1  UNL1        0.0261
@<TRIPOS>BOND
     1     7     8    2
     2     8     9   am
     3     9    11    1
     4    11    12    1
     5    12    13    1
     6    13    14    1
     7    14    15    1
     8    15    16    1
     9    16    17    1
    10     8     1    1
    11     1     2   ar
    12     2     3   ar
    13     3     4   ar
    14     4    22    1
    15    22    24    1
    16    24    25   ar
    17    25    26   ar
    18    26    27   ar
    19    27    28   ar
    20    28    29    1
    21    28    30   ar
    22     4     5   ar
    23     5     6   ar
    24     6    18    1
    25    18    19    1
    26    18    20    1
    27    18    21    1
    28    17    12    1
    29     6     1   ar
    30    30    24   ar
    31     9    10    1
    32    22    23    1
@<TRIPOS>MOLECULE
*****
 30 32 0 0 0
SMALL
GASTEIGER

@<TRIPOS>ATOM
      1 C           4.8268   -2.1072   20.6106 C.ar    1  UNL1        0.0942
      2 C           5.6465   -1.2574   21.5358 C.ar    1  UNL1        0.1078
      3 N           6.8748   -1.8240   22.1840 N.ar    1  UNL1       -0.2119
      4 C           7.2834   -3.2405   21.9070 C.ar    1  UNL1        0.2206
      5 N           6.4637   -4.0903   20.9818 N.ar    1  UNL1       -0.2094
      6 C           5.2354   -3.5236   20.3337 C.ar    1  UNL1        0.1613
      7 O           3.6127   -1.1935   18.5032 O.2     1  UNL1       -0.2700
      8 C           3.5985   -1.5405   19.9625 C.2     1  UNL1        0.2488
      9 N           2.3559   -1.3208   20.7735 N.am    1  UNL1       -0.3008
     10 H           2.3466   -1.5486   21.7313 H       1  UNL1        0.1497
     11 C           1.1276   -0.7542   20.1254 C.3     1  UNL1        0.0896
     12 C           0.9991    0.7273   19.9284 C.3     1  UNL1        0.0196
     13 C           0.8838    1.6347   21.1172 C.3     1  UNL1        0.0017
     14 C           0.7552    3.1161   20.9203 C.3     1  UNL1        0.0001
     15 C           0.7420    3.6901   19.5345 C.3     1  UNL1        0.0000
     16 C           0.8573    2.7828   18.3457 C.3     1  UNL1        0.0001
     17 C           0.9859    1.3013   18.5427 C.3     1  UNL1        0.0017
     18 C           4.4156   -4.3734   19.4085 C.3     1  UNL1        0.4351
     19 F           3.5959   -5.2232   18.4834 F       1  UNL1       -0.1644
     20 F           5.2154   -3.8745   18.2417 F       1  UNL1       -0.1644
     21 F           3.6159   -4.8723   20.5754 F       1  UNL1       -0.1644
     22 N           8.5117   -3.8072   22.5552 N.pl3   1  UNL1       -0.2825
     23 H           9.3796   -3.3559   22.4441 H       1  UNL1        0.1551
     24 C           8.4177   -5.0613   23.3726 C.ar    1  UNL1        0.0513
     25 C           9.1522   -6.2955   22.9399 C.ar    1  UNL1        0.0147
     26 C           9.0581   -7.5497   23.7573 C.ar    1  UNL1        0.0021
     27 C           8.2296   -7.5697   25.0075 C.ar    1  UNL1        0.0115
     28 C           7.4951   -6.3355   25.4403 C.ar    1  UNL1        0.0589
     29 CL          6.6665   -6.3555   26.6906 Cl      1  UNL1       -0.0822
     30 C           7.5891   -5.0814   24.6228 C.ar    1  UNL1        0.0261
@<TRIPOS>BOND
     1     7     8    2
     2     8     9   am
     3     9    11    1
     4    11    12    1
     5    12    13    1
     6    13    14    1
     7    14    15    1
     8    15    16    1
     9    16    17    1
    10     8     1    1
    11     1     2   ar
    12     2     3   ar
    13     3     4   ar
    14     4    22    1
    15    22    24    1
    16    24    25   ar
    17    25    26   ar
    18    26    27   ar
    19    27    28   ar
    20    28    29    1
    21    28    30   ar
    22     4     5   ar
    23     5     6   ar
    24     6    18    1
    25    18    19    1
    26    18    20    1
    27    18    21    1
    28    17    12    1
    29     6     1   ar
    30    30    24   ar
    31     9    10    1
    32    22    23    1
@<TRIPOS>MOLECULE
*****
 30 32 0 0 0
SMALL
GASTEIGER

@<TRIPOS>ATOM
      1 C           4.7952   -2.3335   20.8865 C.ar    1  UNL1        0.0942
      2 C           4.3432   -1.0881   21.5898 C.ar    1  UNL1        0.1078
      3 N           3.0153   -0.4769   21.2536 N.ar    1  UNL1       -0.2119
      4 C           2.1394   -1.1111   20.2140 C.ar    1  UNL1        0.2206
      5 N           2.5915   -2.3565   19.5107 N.ar    1  UNL1       -0.2094
      6 C           3.9194   -2.9677   19.8470 C.ar    1  UNL1        0.1613
      7 O           7.3258   -2.6354   20.3813 O.2     1  UNL1       -0.2700
      8 C           6.1231   -2.9447   21.2228 C.2     1  UNL1        0.2488
      9 N           6.2484   -3.8652   22.4005 N.am    1  UNL1       -0.3008
     10 H           5.4591   -4.0682   22.9528 H       1  UNL1        0.1497
     11 C           7.5763   -4.4764   22.7368 C.3     1  UNL1        0.0896
     12 C           7.6868   -5.4543   23.8688 C.3     1  UNL1        0.0196
     13 C           7.0409   -5.1505   25.1881 C.3     1  UNL1        0.0017
     14 C           7.1514   -6.1285   26.3200 C.3     1  UNL1        0.0001
     15 C           7.9077   -7.4102   26.1327 C.3     1  UNL1        0.0000
     16 C           8.5536   -7.7140   24.8135 C.3     1  UNL1        0.0001
     17 C           8.4431   -6.7361   23.6815 C.3     1  UNL1        0.0017
     18 C           4.3715   -4.2131   19.1437 C.3     1  UNL1        0.4351
     19 F           4.8236   -5.4585   18.4404 F       1  UNL1       -0.1644
     20 F           5.0594   -3.3771   18.1055 F       1  UNL1       -0.1644
     21 F           3.6836   -5.0491   20.1819 F       1  UNL1       -0.1644
     22 N           0.8115   -0.4999   19.8777 N.pl3   1  UNL1       -0.2825
     23 H           0.0721   -1.0700   19.5656 H       1  UNL1        0.1551
     24 C           0.6102    0.9800   20.0170 C.ar    1  UNL1        0.0513
     25 C           0.1031    1.5496   21.3087 C.ar    1  UNL1        0.0147
     26 C          -0.0982    3.0295   21.4480 C.ar    1  UNL1        0.0021
     27 C           0.2075    3.9398   20.2957 C.ar    1  UNL1        0.0115
     28 C           0.7146    3.3702   19.0040 C.ar    1  UNL1        0.0589
     29 CL          1.0204    4.2804   17.8516 Cl      1  UNL1       -0.0822
     30 C           0.9159    1.8903   18.8647 C.ar    1  UNL1        0.0261
@<TRIPOS>BOND
     1     7     8    2
     2     8     9   am
     3     9    11    1
     4    11    12    1
     5    12    13    1
     6    13    14    1
     7    14    15    1
     8    15    16    1
     9    16    17    1
    10     8     1    1
    11     1     2   ar
    12     2     3   ar
    13     3     4   ar
    14     4    22    1
    15    22    24    1
    16    24    25   ar
    17    25    26   ar
    18    26    27   ar
    19    27    28   ar
    20    28    29    1
    21    28    30   ar
    22     4     5   ar
    23     5     6   ar
    24     6    18    1
    25    18    19    1
    26    18    20    1
    27    18    21    1
    28    17    12    1
    29     6     1   ar
    30    30    24   ar
    31     9    10    1
    32    22    23    1
