@<TRIPOS>MOLECULE
*****
 34 38 0 0 0
SMALL
GASTEIGER

@<TRIPOS>ATOM
      1 N           5.3173   -3.3835   21.0577 N.ar    1  UNL1       -0.2451
      2 N           6.1969   -4.2132   21.9454 N.ar    1  UNL1       -0.1733
      3 C           5.9602   -3.7852   23.3634 C.ar    1  UNL1        0.0816
      4 C           6.6315   -4.3519   24.5792 C.3     1  UNL1        0.0540
      5 C           4.9344   -2.6908   23.3520 C.ar    1  UNL1        0.0460
      6 C           4.3107   -1.8883   24.4552 C.ar    1  UNL1        0.0532
      7 C           3.2898   -0.8375   24.1335 C.ar    1  UNL1        0.0148
      8 C           2.8925   -0.5893   22.7086 C.ar    1  UNL1        0.0028
      9 C           3.5161   -1.3918   21.6054 C.ar    1  UNL1        0.0189
     10 C           4.5371   -2.4425   21.9271 C.ar    1  UNL1        0.0806
     11 N           4.7081   -2.1365   25.8802 N.am    1  UNL1       -0.2803
     12 C           5.7358   -1.2622   26.5355 C.2     1  UNL1        0.2515
     13 O           6.3662   -0.1397   25.7657 O.2     1  UNL1       -0.2697
     14 H           4.2943   -2.8733   26.3854 H       1  UNL1        0.1552
     15 C           6.1332   -1.5105   27.9604 C.ar    1  UNL1        0.0784
     16 C           6.3969   -0.4598   28.9980 C.ar    1  UNL1        0.0416
     17 S           6.7633   -1.1529   30.2768 S.2     1  UNL1       -0.0819
     18 C           6.7260   -2.6320   30.0295 C.ar    1  UNL1        0.0784
     19 C           6.9964   -3.8060   30.9231 C.ar    1  UNL1        0.1346
     20 N           7.3858   -3.5851   32.3547 N.pl3   1  UNL1       -0.3421
     21 N           6.8774   -5.2012   30.3850 N.ar    1  UNL1       -0.2089
     22 C           6.4879   -5.4222   28.9533 C.ar    1  UNL1        0.2000
     23 N           6.2175   -4.2480   28.0598 N.ar    1  UNL1       -0.2232
     24 C           6.3366   -2.8529   28.5979 C.ar    1  UNL1        0.0966
     25 H           7.4640   -2.6695   32.7079 H       1  UNL1        0.1437
     26 H           7.5633   -4.3557   32.9411 H       1  UNL1        0.1437
     27 C           5.2329   -3.4780   19.5631 C.3     1  UNL1        0.1727
     28 C           7.8261    0.7032   17.8918 C.3     1  UNL1        0.0521
     29 C           6.5871   -0.1424   17.8927 C.ar    1  UNL1        0.0590
     30 C           5.4058    0.2569   17.0590 C.ar    1  UNL1        0.0147
     31 C           4.1669   -0.5887   17.0599 C.ar    1  UNL1        0.0025
     32 C           4.1093   -1.8337   17.8947 C.ar    1  UNL1        0.0167
     33 C           5.2905   -2.2330   18.7284 C.ar    1  UNL1        0.0832
     34 N           6.5294   -1.3874   18.7274 N.ar    1  UNL1       -0.2520
@<TRIPOS>BOND
     1    28    29    1
     2    29    30   ar
     3    30    31   ar
     4    31    32   ar
     5    32    33   ar
     6    33    27    1
     7    27     1    1
     8     1     2   ar
     9     2     3   ar
    10     3     4    1
    11     3     5   ar
    12     5     6   ar
    13     6    11    1
    14    11    12   am
    15    12    13    2
    16    12    15    1
    17    15    16   ar
    18    16    17   ar
    19    17    18   ar
    20    18    19   ar
    21    19    20    1
    22    19    21   ar
    23    21    22   ar
    24    22    23   ar
    25    23    24   ar
    26     6     7   ar
    27     7     8   ar
    28     8     9   ar
    29     9    10   ar
    30    33    34   ar
    31    34    29   ar
    32    10     1   ar
    33    10     5   ar
    34    24    15   ar
    35    24    18   ar
    36    11    14    1
    37    20    25    1
    38    20    26    1
@<TRIPOS>MOLECULE
*****
 34 38 0 0 0
SMALL
GASTEIGER

@<TRIPOS>ATOM
      1 N           7.5242   -4.2681   22.9930 N.ar    1  UNL1       -0.2451
      2 N           6.9288   -3.0468   23.6286 N.ar    1  UNL1       -0.1733
      3 C           6.6393   -3.3663   25.0652 C.ar    1  UNL1        0.0816
      4 C           6.0387   -2.4312   26.0727 C.3     1  UNL1        0.0540
      5 C           7.0557   -4.7851   25.3175 C.ar    1  UNL1        0.0460
      6 C           7.0075   -5.6415   26.5481 C.ar    1  UNL1        0.0532
      7 C           7.5063   -7.0553   26.4979 C.ar    1  UNL1        0.0148
      8 C           8.0532   -7.6126   25.2172 C.ar    1  UNL1        0.0028
      9 C           8.1013   -6.7562   23.9867 C.ar    1  UNL1        0.0189
     10 C           7.6026   -5.3424   24.0368 C.ar    1  UNL1        0.0806
     11 N           6.4606   -5.0842   27.8288 N.am    1  UNL1       -0.2803
     12 C           7.3770   -4.4051   28.8030 C.2     1  UNL1        0.2515
     13 O           8.8404   -4.2834   28.4965 O.2     1  UNL1       -0.2697
     14 H           5.5002   -5.1640   28.0300 H       1  UNL1        0.1552
     15 C           6.8302   -3.8477   30.0837 C.ar    1  UNL1        0.0784
     16 C           6.9581   -4.4709   31.4422 C.ar    1  UNL1        0.0416
     17 S           6.2664   -3.5777   32.4289 S.2     1  UNL1       -0.0819
     18 C           5.7109   -2.4024   31.6803 C.ar    1  UNL1        0.0784
     19 C           4.9329   -1.2019   32.1312 C.ar    1  UNL1        0.1346
     20 N           4.5844   -1.0350   33.5806 N.pl3   1  UNL1       -0.3421
     21 N           4.5033   -0.1682   31.1327 N.ar    1  UNL1       -0.2089
     22 C           4.8517   -0.3352   29.6832 C.ar    1  UNL1        0.2000
     23 N           5.6298   -1.5357   29.2324 N.ar    1  UNL1       -0.2232
     24 C           6.0594   -2.5694   30.2309 C.ar    1  UNL1        0.0966
     25 H           4.8664   -1.7133   34.2360 H       1  UNL1        0.1437
     26 H           4.0738   -0.2470   33.8765 H       1  UNL1        0.1437
     27 C           7.9639   -4.3931   21.5644 C.3     1  UNL1        0.1727
     28 C           3.4231   -4.4473   19.0389 C.3     1  UNL1        0.0521
     29 C           4.8143   -3.9095   19.1988 C.ar    1  UNL1        0.0590
     30 C           5.3262   -2.8612   18.2559 C.ar    1  UNL1        0.0147
     31 C           6.7173   -2.3236   18.4159 C.ar    1  UNL1        0.0025
     32 C           7.5966   -2.8342   19.5187 C.ar    1  UNL1        0.0167
     33 C           7.0847   -3.8825   20.4616 C.ar    1  UNL1        0.0832
     34 N           5.6935   -4.4202   20.3016 N.ar    1  UNL1       -0.2520
@<TRIPOS>BOND
     1    28    29    1
     2    29    30   ar
     3    30    31   ar
     4    31    32   ar
     5    32    33   ar
     6    33    27    1
     7    27     1    1
     8     1     2   ar
     9     2     3   ar
    10     3     4    1
    11     3     5   ar
    12     5     6   ar
    13     6    11    1
    14    11    12   am
    15    12    13    2
    16    12    15    1
    17    15    16   ar
    18    16    17   ar
    19    17    18   ar
    20    18    19   ar
    21    19    20    1
    22    19    21   ar
    23    21    22   ar
    24    22    23   ar
    25    23    24   ar
    26     6     7   ar
    27     7     8   ar
    28     8     9   ar
    29     9    10   ar
    30    33    34   ar
    31    34    29   ar
    32    10     1   ar
    33    10     5   ar
    34    24    15   ar
    35    24    18   ar
    36    11    14    1
    37    20    25    1
    38    20    26    1
@<TRIPOS>MOLECULE
*****
 34 38 0 0 0
SMALL
GASTEIGER

@<TRIPOS>ATOM
      1 N           4.6791   -1.8001   19.2018 N.ar    1  UNL1       -0.2451
      2 N           3.9397   -2.2995   20.4076 N.ar    1  UNL1       -0.1733
      3 C           4.9354   -2.9368   21.3308 C.ar    1  UNL1        0.0816
      4 C           4.6300   -3.5687   22.6565 C.3     1  UNL1        0.0540
      5 C           6.2902   -2.8314   20.6955 C.ar    1  UNL1        0.0460
      6 C           7.6476   -3.2843   21.1452 C.ar    1  UNL1        0.0532
      7 C           8.8466   -3.0347   20.2792 C.ar    1  UNL1        0.0148
      8 C           8.6882   -2.3322   18.9634 C.ar    1  UNL1        0.0028
      9 C           7.3308   -1.8793   18.5137 C.ar    1  UNL1        0.0189
     10 C           6.1318   -2.1289   19.3797 C.ar    1  UNL1        0.0806
     11 N           7.8060   -3.9869   22.4611 N.am    1  UNL1       -0.2803
     12 C           8.1270   -5.4517   22.4953 C.2     1  UNL1        0.2515
     13 O           8.2896   -6.2140   21.2137 O.2     1  UNL1       -0.2697
     14 H           7.6993   -3.4865   23.3022 H       1  UNL1        0.1552
     15 C           8.2854   -6.1543   23.8111 C.ar    1  UNL1        0.0784
     16 C           8.9813   -7.4644   24.0328 C.ar    1  UNL1        0.0416
     17 S           8.9017   -7.7899   25.4949 S.2     1  UNL1       -0.0819
     18 C           8.1565   -6.6809   26.1768 C.ar    1  UNL1        0.0784
     19 C           7.7757   -6.4611   27.6109 C.ar    1  UNL1        0.1346
     20 N           8.1566   -7.4720   28.6516 N.pl3   1  UNL1       -0.3421
     21 N           7.0138   -5.2303   28.0043 N.ar    1  UNL1       -0.2089
     22 C           6.6329   -4.2193   26.9636 C.ar    1  UNL1        0.2000
     23 N           7.0138   -4.4393   25.5295 N.ar    1  UNL1       -0.2232
     24 C           7.7756   -5.6701   25.1361 C.ar    1  UNL1        0.0966
     25 H           8.6566   -8.2798   28.3934 H       1  UNL1        0.1437
     26 H           7.9065   -7.3276   29.5928 H       1  UNL1        0.1437
     27 C           4.0724   -1.0957   18.0246 C.3     1  UNL1        0.1727
     28 C           0.3610    2.5089   18.5064 C.3     1  UNL1        0.0521
     29 C           1.8111    2.1462   18.3803 C.ar    1  UNL1        0.0590
     30 C           2.8554    3.2229   18.3691 C.ar    1  UNL1        0.0147
     31 C           4.3054    2.8601   18.2431 C.ar    1  UNL1        0.0025
     32 C           4.7110    1.4205   18.1282 C.ar    1  UNL1        0.0167
     33 C           3.6667    0.3438   18.1394 C.ar    1  UNL1        0.0832
     34 N           2.2168    0.7067   18.2655 N.ar    1  UNL1       -0.2520
@<TRIPOS>BOND
     1    28    29    1
     2    29    30   ar
     3    30    31   ar
     4    31    32   ar
     5    32    33   ar
     6    33    27    1
     7    27     1    1
     8     1     2   ar
     9     2     3   ar
    10     3     4    1
    11     3     5   ar
    12     5     6   ar
    13     6    11    1
    14    11    12   am
    15    12    13    2
    16    12    15    1
    17    15    16   ar
    18    16    17   ar
    19    17    18   ar
    20    18    19   ar
    21    19    20    1
    22    19    21   ar
    23    21    22   ar
    24    22    23   ar
    25    23    24   ar
    26     6     7   ar
    27     7     8   ar
    28     8     9   ar
    29     9    10   ar
    30    33    34   ar
    31    34    29   ar
    32    10     1   ar
    33    10     5   ar
    34    24    15   ar
    35    24    18   ar
    36    11    14    1
    37    20    25    1
    38    20    26    1
@<TRIPOS>MOLECULE
*****
 34 38 0 0 0
SMALL
GASTEIGER

@<TRIPOS>ATOM
      1 N           5.2668   -3.2830   21.0872 N.ar    1  UNL1       -0.2451
      2 N           6.1016   -4.0787   22.0464 N.ar    1  UNL1       -0.1733
      3 C           5.7781   -3.6164   23.4363 C.ar    1  UNL1        0.0816
      4 C           6.3831   -4.1430   24.7038 C.3     1  UNL1        0.0540
      5 C           4.7434   -2.5350   23.3360 C.ar    1  UNL1        0.0460
      6 C           4.0482   -1.7112   24.3791 C.ar    1  UNL1        0.0532
      7 C           3.0370   -0.6815   23.9705 C.ar    1  UNL1        0.0148
      8 C           2.7210   -0.4755   22.5188 C.ar    1  UNL1        0.0028
      9 C           3.4162   -1.2992   21.4756 C.ar    1  UNL1        0.0189
     10 C           4.4274   -2.3289   21.8842 C.ar    1  UNL1        0.0806
     11 N           4.3642   -1.9173   25.8310 N.am    1  UNL1       -0.2803
     12 C           5.3725   -1.0393   26.5110 C.2     1  UNL1        0.2515
     13 O           6.0648    0.0448   25.7392 O.2     1  UNL1       -0.2697
     14 H           3.9099   -2.6288   26.3375 H       1  UNL1        0.1552
     15 C           5.6886   -1.2453   27.9627 C.ar    1  UNL1        0.0784
     16 C           7.0218   -1.6365   28.5279 C.ar    1  UNL1        0.0416
     17 S           6.8842   -1.7293   30.0187 S.2     1  UNL1       -0.0819
     18 C           5.4658   -1.3954   30.3749 C.ar    1  UNL1        0.0784
     19 C           4.7518   -1.3252   31.6921 C.ar    1  UNL1        0.1346
     20 N           5.4906   -1.6243   32.9627 N.pl3   1  UNL1       -0.3421
     21 N           3.2987   -0.9557   31.7387 N.ar    1  UNL1       -0.2089
     22 C           2.5597   -0.6566   30.4680 C.ar    1  UNL1        0.2000
     23 N           3.2739   -0.7269   29.1508 N.ar    1  UNL1       -0.2232
     24 C           4.7269   -1.0963   29.1042 C.ar    1  UNL1        0.0966
     25 H           6.4443   -1.8667   32.9322 H       1  UNL1        0.1437
     26 H           5.0219   -1.5781   33.8273 H       1  UNL1        0.1437
     27 C           5.2707   -3.4177   19.5933 C.3     1  UNL1        0.1727
     28 C           7.8868    0.7416   17.9033 C.3     1  UNL1        0.0521
     29 C           6.6546   -0.1137   17.8850 C.ar    1  UNL1        0.0590
     30 C           5.4984    0.2553   17.0035 C.ar    1  UNL1        0.0147
     31 C           4.2664   -0.6000   16.9853 C.ar    1  UNL1        0.0025
     32 C           4.1904   -1.8243   17.8486 C.ar    1  UNL1        0.0167
     33 C           5.3466   -2.1933   18.7301 C.ar    1  UNL1        0.0832
     34 N           6.5787   -1.3380   18.7483 N.ar    1  UNL1       -0.2520
@<TRIPOS>BOND
     1    28    29    1
     2    29    30   ar
     3    30    31   ar
     4    31    32   ar
     5    32    33   ar
     6    33    27    1
     7    27     1    1
     8     1     2   ar
     9     2     3   ar
    10     3     4    1
    11     3     5   ar
    12     5     6   ar
    13     6    11    1
    14    11    12   am
    15    12    13    2
    16    12    15    1
    17    15    16   ar
    18    16    17   ar
    19    17    18   ar
    20    18    19   ar
    21    19    20    1
    22    19    21   ar
    23    21    22   ar
    24    22    23   ar
    25    23    24   ar
    26     6     7   ar
    27     7     8   ar
    28     8     9   ar
    29     9    10   ar
    30    33    34   ar
    31    34    29   ar
    32    10     1   ar
    33    10     5   ar
    34    24    15   ar
    35    24    18   ar
    36    11    14    1
    37    20    25    1
    38    20    26    1
@<TRIPOS>MOLECULE
*****
 34 38 0 0 0
SMALL
GASTEIGER

@<TRIPOS>ATOM
      1 N           4.3695   -2.9539   21.3828 N.ar    1  UNL1       -0.2451
      2 N           5.4088   -3.9486   21.8077 N.ar    1  UNL1       -0.1733
      3 C           5.7127   -3.7110   23.2572 C.ar    1  UNL1        0.0816
      4 C           6.6955   -4.4799   24.0896 C.3     1  UNL1        0.0540
      5 C           4.8611   -2.5695   23.7282 C.ar    1  UNL1        0.0460
      6 C           4.7343   -1.8956   25.0624 C.ar    1  UNL1        0.0532
      7 C           3.7775   -0.7539   25.2381 C.ar    1  UNL1        0.0148
      8 C           2.9474   -0.2861   24.0796 C.ar    1  UNL1        0.0028
      9 C           3.0742   -0.9599   22.7455 C.ar    1  UNL1        0.0189
     10 C           4.0310   -2.1016   22.5698 C.ar    1  UNL1        0.0806
     11 N           5.5645   -2.3636   26.2208 N.am    1  UNL1       -0.2803
     12 C           5.0406   -2.2326   27.6202 C.2     1  UNL1        0.2515
     13 O           3.6866   -1.6337   27.8612 O.2     1  UNL1       -0.2697
     14 H           6.4532   -2.7566   26.0626 H       1  UNL1        0.1552
     15 C           5.8707   -2.7005   28.7787 C.ar    1  UNL1        0.0784
     16 C           6.0805   -1.9629   30.0678 C.ar    1  UNL1        0.0416
     17 S           6.9762   -2.7947   30.9373 S.2     1  UNL1       -0.0819
     18 C           7.3200   -4.0463   30.1854 C.ar    1  UNL1        0.0784
     19 C           8.1669   -5.2314   30.5433 C.ar    1  UNL1        0.1346
     20 N           8.8502   -5.2897   31.8774 N.pl3   1  UNL1       -0.3421
     21 N           8.3307   -6.3585   29.5670 N.ar    1  UNL1       -0.2089
     22 C           7.6474   -6.3002   28.2328 C.ar    1  UNL1        0.2000
     23 N           6.8005   -5.1150   27.8750 N.ar    1  UNL1       -0.2232
     24 C           6.6368   -3.9881   28.8513 C.ar    1  UNL1        0.0966
     25 H           8.7427   -4.5500   32.5182 H       1  UNL1        0.1437
     26 H           9.4060   -6.0676   32.1122 H       1  UNL1        0.1437
     27 C           3.7733   -2.8328   20.0117 C.3     1  UNL1        0.1727
     28 C           0.9537    1.2544   18.4808 C.3     1  UNL1        0.0521
     29 C           2.2758    0.5531   18.5824 C.ar    1  UNL1        0.0590
     30 C           3.5100    1.1940   18.0203 C.ar    1  UNL1        0.0147
     31 C           4.8320    0.4926   18.1220 C.ar    1  UNL1        0.0025
     32 C           4.9198   -0.8497   18.7858 C.ar    1  UNL1        0.0167
     33 C           3.6856   -1.4906   19.3479 C.ar    1  UNL1        0.0832
     34 N           2.3636   -0.7892   19.2462 N.ar    1  UNL1       -0.2520
@<TRIPOS>BOND
     1    28    29    1
     2    29    30   ar
     3    30    31   ar
     4    31    32   ar
     5    32    33   ar
     6    33    27    1
     7    27     1    1
     8     1     2   ar
     9     2     3   ar
    10     3     4    1
    11     3     5   ar
    12     5     6   ar
    13     6    11    1
    14    11    12   am
    15    12    13    2
    16    12    15    1
    17    15    16   ar
    18    16    17   ar
    19    17    18   ar
    20    18    19   ar
    21    19    20    1
    22    19    21   ar
    23    21    22   ar
    24    22    23   ar
    25    23    24   ar
    26     6     7   ar
    27     7     8   ar
    28     8     9   ar
    29     9    10   ar
    30    33    34   ar
    31    34    29   ar
    32    10     1   ar
    33    10     5   ar
    34    24    15   ar
    35    24    18   ar
    36    11    14    1
    37    20    25    1
    38    20    26    1
@<TRIPOS>MOLECULE
*****
 34 38 0 0 0
SMALL
GASTEIGER

@<TRIPOS>ATOM
      1 N           4.2203   -2.5107   20.8388 N.ar    1  UNL1       -0.2451
      2 N           3.8366   -2.1049   22.2310 N.ar    1  UNL1       -0.1733
      3 C           3.0857   -0.8092   22.1456 C.ar    1  UNL1        0.0816
      4 C           2.5152   -0.0429   23.3021 C.3     1  UNL1        0.0540
      5 C           3.0054   -0.4143   20.7007 C.ar    1  UNL1        0.0460
      6 C           2.3843    0.7671   20.0161 C.ar    1  UNL1        0.0532
      7 C           2.4645    0.8968   18.5239 C.ar    1  UNL1        0.0148
      8 C           3.1657   -0.1548   17.7163 C.ar    1  UNL1        0.0028
      9 C           3.7868   -1.3362   18.4009 C.ar    1  UNL1        0.0189
     10 C           3.7066   -1.4659   19.8931 C.ar    1  UNL1        0.0806
     11 N           1.6830    1.8187   20.8238 N.am    1  UNL1       -0.2803
     12 C           0.2042    1.7237   21.0564 C.2     1  UNL1        0.2515
     13 O          -0.5733    0.5770   20.4814 O.2     1  UNL1       -0.2697
     14 H           2.1933    2.5713   21.2012 H       1  UNL1        0.1552
     15 C          -0.4971    2.7753   21.8641 C.ar    1  UNL1        0.0784
     16 C           0.0914    3.5467   23.0080 C.ar    1  UNL1        0.0416
     17 S          -0.9578    4.4883   23.5205 S.2     1  UNL1       -0.0819
     18 C          -2.1947    4.2988   22.6933 C.ar    1  UNL1        0.0784
     19 C          -3.5434    4.9535   22.7401 C.ar    1  UNL1        0.1346
     20 N          -3.8282    6.0122   23.7638 N.pl3   1  UNL1       -0.3421
     21 N          -4.6075    4.5495   21.7630 N.ar    1  UNL1       -0.2089
     22 C          -4.3228    3.4907   20.7392 C.ar    1  UNL1        0.2000
     23 N          -2.9740    2.8360   20.6926 N.ar    1  UNL1       -0.2232
     24 C          -1.9099    3.2401   21.6696 C.ar    1  UNL1        0.0966
     25 H          -3.1299    6.2774   24.4051 H       1  UNL1        0.1437
     26 H          -4.7135    6.4418   23.7945 H       1  UNL1        0.1437
     27 C           4.9838   -3.7448   20.4591 C.3     1  UNL1        0.1727
     28 C           9.4876   -5.5722   22.2966 C.3     1  UNL1        0.0521
     29 C           8.7356   -4.6453   21.3880 C.ar    1  UNL1        0.0590
     30 C           9.4835   -3.7054   20.4896 C.ar    1  UNL1        0.0147
     31 C           8.7315   -2.7786   19.5810 C.ar    1  UNL1        0.0025
     32 C           7.2316   -2.7917   19.5708 C.ar    1  UNL1        0.0167
     33 C           6.4837   -3.7317   20.4692 C.ar    1  UNL1        0.0832
     34 N           7.2357   -4.6585   21.3778 N.ar    1  UNL1       -0.2520
@<TRIPOS>BOND
     1    28    29    1
     2    29    30   ar
     3    30    31   ar
     4    31    32   ar
     5    32    33   ar
     6    33    27    1
     7    27     1    1
     8     1     2   ar
     9     2     3   ar
    10     3     4    1
    11     3     5   ar
    12     5     6   ar
    13     6    11    1
    14    11    12   am
    15    12    13    2
    16    12    15    1
    17    15    16   ar
    18    16    17   ar
    19    17    18   ar
    20    18    19   ar
    21    19    20    1
    22    19    21   ar
    23    21    22   ar
    24    22    23   ar
    25    23    24   ar
    26     6     7   ar
    27     7     8   ar
    28     8     9   ar
    29     9    10   ar
    30    33    34   ar
    31    34    29   ar
    32    10     1   ar
    33    10     5   ar
    34    24    15   ar
    35    24    18   ar
    36    11    14    1
    37    20    25    1
    38    20    26    1
@<TRIPOS>MOLECULE
*****
 34 38 0 0 0
SMALL
GASTEIGER

@<TRIPOS>ATOM
      1 N           6.6972   -4.5626   27.6146 N.ar    1  UNL1       -0.2451
      2 N           6.4309   -3.1635   27.1439 N.ar    1  UNL1       -0.1733
      3 C           6.7419   -3.1006   25.6778 C.ar    1  UNL1        0.0816
      4 C           6.6164   -1.8900   24.8011 C.3     1  UNL1        0.0540
      5 C           7.2004   -4.4609   25.2425 C.ar    1  UNL1        0.0460
      6 C           7.6394   -4.9934   23.9107 C.ar    1  UNL1        0.0532
      7 C           8.0509   -6.4295   23.7759 C.ar    1  UNL1        0.0148
      8 C           8.0233   -7.3331   24.9728 C.ar    1  UNL1        0.0028
      9 C           7.5842   -6.8005   26.3046 C.ar    1  UNL1        0.0189
     10 C           7.1728   -5.3644   26.4394 C.ar    1  UNL1        0.0806
     11 N           7.6670   -4.0898   22.7137 N.am    1  UNL1       -0.2803
     12 C           6.4286   -3.8994   21.8890 C.2     1  UNL1        0.2515
     13 O           5.1626   -4.6128   22.2613 O.2     1  UNL1       -0.2697
     14 H           8.4979   -3.6216   22.4694 H       1  UNL1        0.1552
     15 C           6.4562   -2.9959   20.6920 C.ar    1  UNL1        0.0784
     16 C           7.6488   -2.7147   19.8269 C.ar    1  UNL1        0.0416
     17 S           7.2257   -1.7598   18.7502 S.2     1  UNL1       -0.0819
     18 C           5.7714   -1.4509   18.9500 C.ar    1  UNL1        0.0784
     19 C           4.8190   -0.5727   18.1941 C.ar    1  UNL1        0.1346
     20 N           5.2945    0.1913   16.9939 N.pl3   1  UNL1       -0.3421
     21 N           3.3908   -0.4583   18.6383 N.ar    1  UNL1       -0.2089
     22 C           2.9152   -1.2223   19.8385 C.ar    1  UNL1        0.2000
     23 N           3.8678   -2.1005   20.5943 N.ar    1  UNL1       -0.2232
     24 C           5.2959   -2.2148   20.1501 C.ar    1  UNL1        0.0966
     25 H           6.2318    0.1162   16.7024 H       1  UNL1        0.1437
     26 H           4.6693    0.7677   16.4979 H       1  UNL1        0.1437
     27 C           6.5193   -5.0708   29.0146 C.3     1  UNL1        0.1727
     28 C           5.9479   -1.7526   32.9723 C.3     1  UNL1        0.0521
     29 C           6.8193   -2.6525   32.1470 C.ar    1  UNL1        0.0590
     30 C           8.2762   -2.7932   32.4753 C.ar    1  UNL1        0.0147
     31 C           9.1474   -3.6931   31.6500 C.ar    1  UNL1        0.0025
     32 C           8.5617   -4.4523   30.4964 C.ar    1  UNL1        0.0167
     33 C           7.1049   -4.3116   30.1681 C.ar    1  UNL1        0.0832
     34 N           6.2337   -3.4117   30.9934 N.ar    1  UNL1       -0.2520
@<TRIPOS>BOND
     1    28    29    1
     2    29    30   ar
     3    30    31   ar
     4    31    32   ar
     5    32    33   ar
     6    33    27    1
     7    27     1    1
     8     1     2   ar
     9     2     3   ar
    10     3     4    1
    11     3     5   ar
    12     5     6   ar
    13     6    11    1
    14    11    12   am
    15    12    13    2
    16    12    15    1
    17    15    16   ar
    18    16    17   ar
    19    17    18   ar
    20    18    19   ar
    21    19    20    1
    22    19    21   ar
    23    21    22   ar
    24    22    23   ar
    25    23    24   ar
    26     6     7   ar
    27     7     8   ar
    28     8     9   ar
    29     9    10   ar
    30    33    34   ar
    31    34    29   ar
    32    10     1   ar
    33    10     5   ar
    34    24    15   ar
    35    24    18   ar
    36    11    14    1
    37    20    25    1
    38    20    26    1
@<TRIPOS>MOLECULE
*****
 34 38 0 0 0
SMALL
GASTEIGER

@<TRIPOS>ATOM
      1 N           2.5353    0.1371   21.4998 N.ar    1  UNL1       -0.2451
      2 N           1.4151    0.9168   22.1219 N.ar    1  UNL1       -0.1733
      3 C           1.5111    0.7588   23.6105 C.ar    1  UNL1        0.0816
      4 C           0.5893    1.3707   24.6234 C.3     1  UNL1        0.0540
      5 C           2.6907   -0.1187   23.9083 C.ar    1  UNL1        0.0460
      6 C           3.2702   -0.6174   25.1988 C.ar    1  UNL1        0.0532
      7 C           4.4827   -1.5004   25.1848 C.ar    1  UNL1        0.0148
      8 C           5.1157   -1.8846   23.8804 C.ar    1  UNL1        0.0028
      9 C           4.5362   -1.3858   22.5898 C.ar    1  UNL1        0.0189
     10 C           3.3237   -0.5029   22.6038 C.ar    1  UNL1        0.0806
     11 N           2.6372   -0.2332   26.5033 N.am    1  UNL1       -0.2803
     12 C           3.1631    0.9405   27.2752 C.2     1  UNL1        0.2515
     13 O           4.3222    1.7299   26.7426 O.2     1  UNL1       -0.2697
     14 H           1.8765   -0.7513   26.8528 H       1  UNL1        0.1552
     15 C           2.5301    1.3247   28.5797 C.ar    1  UNL1        0.0784
     16 C           1.2980    2.1633   28.7485 C.ar    1  UNL1        0.0416
     17 S           1.0245    2.2948   30.2175 S.2     1  UNL1       -0.0819
     18 C           2.0876    1.5374   30.9566 C.ar    1  UNL1        0.0784
     19 C           2.3285    1.3162   32.4204 C.ar    1  UNL1        0.1346
     20 N           1.3980    1.9157   33.4327 N.pl3   1  UNL1       -0.3421
     21 N           3.5000    0.4955   32.8722 N.ar    1  UNL1       -0.2089
     22 C           4.4306   -0.1040   31.8598 C.ar    1  UNL1        0.2000
     23 N           4.1897    0.1172   30.3959 N.ar    1  UNL1       -0.2232
     24 C           3.0182    0.9379   29.9443 C.ar    1  UNL1        0.0966
     25 H           0.6291    2.4544   33.1363 H       1  UNL1        0.1437
     26 H           1.5561    1.7705   34.3935 H       1  UNL1        0.1437
     27 C           2.8176    0.0182   20.0314 C.3     1  UNL1        0.1727
     28 C           3.4032   -5.1131   19.4596 C.3     1  UNL1        0.0521
     29 C           3.8945   -3.7154   19.2246 C.ar    1  UNL1        0.0590
     30 C           5.1696   -3.4857   18.4689 C.ar    1  UNL1        0.0147
     31 C           5.6608   -2.0880   18.2339 C.ar    1  UNL1        0.0025
     32 C           4.8768   -0.9200   18.7548 C.ar    1  UNL1        0.0167
     33 C           3.6016   -1.1498   19.5106 C.ar    1  UNL1        0.0832
     34 N           3.1105   -2.5475   19.7455 N.ar    1  UNL1       -0.2520
@<TRIPOS>BOND
     1    28    29    1
     2    29    30   ar
     3    30    31   ar
     4    31    32   ar
     5    32    33   ar
     6    33    27    1
     7    27     1    1
     8     1     2   ar
     9     2     3   ar
    10     3     4    1
    11     3     5   ar
    12     5     6   ar
    13     6    11    1
    14    11    12   am
    15    12    13    2
    16    12    15    1
    17    15    16   ar
    18    16    17   ar
    19    17    18   ar
    20    18    19   ar
    21    19    20    1
    22    19    21   ar
    23    21    22   ar
    24    22    23   ar
    25    23    24   ar
    26     6     7   ar
    27     7     8   ar
    28     8     9   ar
    29     9    10   ar
    30    33    34   ar
    31    34    29   ar
    32    10     1   ar
    33    10     5   ar
    34    24    15   ar
    35    24    18   ar
    36    11    14    1
    37    20    25    1
    38    20    26    1
@<TRIPOS>MOLECULE
*****
 34 38 0 0 0
SMALL
GASTEIGER

@<TRIPOS>ATOM
      1 N           7.0226   -5.8667   26.0567 N.ar    1  UNL1       -0.2451
      2 N           6.4275   -4.4898   26.0458 N.ar    1  UNL1       -0.1733
      3 C           6.7138   -3.8717   24.7094 C.ar    1  UNL1        0.0816
      4 C           6.3006   -2.4996   24.2658 C.3     1  UNL1        0.0540
      5 C           7.4858   -4.8666   23.8943 C.ar    1  UNL1        0.0460
      6 C           8.0397   -4.8090   22.5015 C.ar    1  UNL1        0.0532
      7 C           8.7844   -5.9844   21.9414 C.ar    1  UNL1        0.0148
      8 C           8.9752   -7.2174   22.7741 C.ar    1  UNL1        0.0028
      9 C           8.4214   -7.2749   24.1669 C.ar    1  UNL1        0.0189
     10 C           7.6767   -6.0995   24.7270 C.ar    1  UNL1        0.0806
     11 N           7.8487   -3.5760   21.6688 N.am    1  UNL1       -0.2803
     12 C           6.7176   -3.5022   20.6865 C.2     1  UNL1        0.2515
     13 O           5.7773   -4.6613   20.5369 O.2     1  UNL1       -0.2697
     14 H           8.4659   -2.8153   21.7671 H       1  UNL1        0.1552
     15 C           6.5266   -2.2692   19.8538 C.ar    1  UNL1        0.0784
     16 C           7.3697   -1.8561   18.6840 C.ar    1  UNL1        0.0416
     17 S           6.8232   -0.5645   18.1519 S.2     1  UNL1       -0.0819
     18 C           5.6424   -0.1793   18.9930 C.ar    1  UNL1        0.0784
     19 C           4.7104    0.9946   18.9368 C.ar    1  UNL1        0.1346
     20 N           4.8937    2.0482   17.8850 N.pl3   1  UNL1       -0.3421
     21 N           3.5951    1.1151   19.9326 N.ar    1  UNL1       -0.2089
     22 C           3.4117    0.0614   20.9845 C.ar    1  UNL1        0.2000
     23 N           4.3438   -1.1126   21.0406 N.ar    1  UNL1       -0.2232
     24 C           5.4591   -1.2329   20.0448 C.ar    1  UNL1        0.0966
     25 H           5.6257    1.9692   17.2315 H       1  UNL1        0.1437
     26 H           4.2820    2.8187   17.8483 H       1  UNL1        0.1437
     27 C           6.9725   -6.8398   27.1970 C.3     1  UNL1        0.1727
     28 C           6.8836   -4.1796   31.6597 C.3     1  UNL1        0.0521
     29 C           7.5579   -5.1573   30.7434 C.ar    1  UNL1        0.0590
     30 C           8.8618   -5.7826   31.1420 C.ar    1  UNL1        0.0147
     31 C           9.5359   -6.7602   30.2257 C.ar    1  UNL1        0.0025
     32 C           8.9062   -7.1126   28.9107 C.ar    1  UNL1        0.0167
     33 C           7.6023   -6.4874   28.5120 C.ar    1  UNL1        0.0832
     34 N           6.9281   -5.5097   29.4284 N.ar    1  UNL1       -0.2520
@<TRIPOS>BOND
     1    28    29    1
     2    29    30   ar
     3    30    31   ar
     4    31    32   ar
     5    32    33   ar
     6    33    27    1
     7    27     1    1
     8     1     2   ar
     9     2     3   ar
    10     3     4    1
    11     3     5   ar
    12     5     6   ar
    13     6    11    1
    14    11    12   am
    15    12    13    2
    16    12    15    1
    17    15    16   ar
    18    16    17   ar
    19    17    18   ar
    20    18    19   ar
    21    19    20    1
    22    19    21   ar
    23    21    22   ar
    24    22    23   ar
    25    23    24   ar
    26     6     7   ar
    27     7     8   ar
    28     8     9   ar
    29     9    10   ar
    30    33    34   ar
    31    34    29   ar
    32    10     1   ar
    33    10     5   ar
    34    24    15   ar
    35    24    18   ar
    36    11    14    1
    37    20    25    1
    38    20    26    1
