@<TRIPOS>MOLECULE
*****
 44 48 0 0 0
SMALL
GASTEIGER

@<TRIPOS>ATOM
      1 C           7.5104   -5.1859   30.0235 C.ar    1  UNL1        0.2220
      2 N           8.9048   -5.3825   30.5404 N.ar    1  UNL1       -0.2110
      3 C           9.4925   -4.3969   31.5063 C.ar    1  UNL1        0.1160
      4 C           8.6859   -3.2147   31.9555 C.ar    1  UNL1        0.1085
      5 CL          9.2736   -2.2290   32.9214 Cl      1  UNL1       -0.0777
      6 C           7.2915   -3.0180   31.4386 C.ar    1  UNL1        0.1473
      7 N           6.7038   -4.0037   30.4726 N.ar    1  UNL1       -0.1976
      8 N           6.9227   -6.1716   29.0575 N.pl3   1  UNL1       -0.2801
      9 H           6.2568   -6.8272   29.3672 H       1  UNL1        0.1552
     10 C           8.4039   -7.1121   27.1415 C.ar    1  UNL1        0.1517
     11 C           8.8308   -7.0988   25.7035 C.ar    1  UNL1        0.0337
     12 C           8.2035   -6.1316   24.7438 C.ar    1  UNL1       -0.0216
     13 C           7.1493   -5.1778   25.2220 C.ar    1  UNL1       -0.0233
     14 C           6.7223   -5.1910   26.6599 C.ar    1  UNL1        0.0132
     15 C           7.3496   -6.1582   27.6196 C.ar    1  UNL1        0.0846
     16 C           6.4015   -4.1404   24.4379 C.3     1  UNL1        0.0434
     17 C           6.5234   -3.8007   22.9819 C.3     1  UNL1        0.0772
     18 N           7.4230   -4.4145   21.9506 N.3     1  UNL1       -0.2644
     19 C           8.4231   -5.5196   22.1203 C.3     1  UNL1        0.0772
     20 C           8.7704   -6.2838   23.3634 C.3     1  UNL1        0.0435
     21 C           9.5358   -9.4033   27.6091 C.3     1  UNL1        0.2525
     22 O           9.0312   -8.0793   28.1011 O.3     1  UNL1       -0.4702
     23 C           7.3074   -3.8484   20.5663 C.3     1  UNL1        0.1587
     24 C           5.9609   -3.7239   19.9169 C.2     1  UNL1        0.2421
     25 O           5.1639   -4.9548   19.6011 O.2     1  UNL1       -0.2734
     26 N           5.4115   -2.3686   19.5833 N.am    1  UNL1       -0.2749
     27 C           4.0651   -2.2442   18.9340 C.3     1  UNL1        0.1149
     28 C           6.2085   -1.1378   19.8992 C.3     1  UNL1        0.1149
     29 N           6.4848   -1.8359   31.8877 N.pl3   1  UNL1       -0.2948
     30 H           6.7138   -1.3736   32.7262 H       1  UNL1        0.1537
     31 C           5.3294   -1.3579   31.0592 C.ar    1  UNL1        0.0839
     32 C           5.5370   -1.0027   29.6167 C.ar    1  UNL1        0.0190
     33 C           4.3814   -0.5247   28.7883 C.ar    1  UNL1        0.0160
     34 C           3.0184   -0.4020   29.4023 C.ar    1  UNL1        0.0511
     35 C           2.8108   -0.7572   30.8447 C.ar    1  UNL1        0.0527
     36 C           3.9663   -1.2352   31.6732 C.ar    1  UNL1        0.1532
     37 N           1.8629    0.0760   28.5738 N.pl3   1  UNL1       -0.3027
     38 C           0.4568   -0.1706   29.0345 C.3     1  UNL1        0.1231
     39 C          -0.6985    0.3074   28.2059 C.3     1  UNL1        0.1636
     40 O          -0.4479    1.0319   26.9167 O.3     1  UNL1       -0.3501
     41 C           0.9581    1.2785   26.4560 C.3     1  UNL1        0.1636
     42 C           2.1135    0.8005   27.2845 C.3     1  UNL1        0.1231
     43 O           3.7588   -1.5904   33.1157 O.3     1  UNL1       -0.4701
     44 C           4.2311   -0.6594   34.1928 C.3     1  UNL1        0.2525
@<TRIPOS>BOND
     1    21    22    1
     2    22    10    1
     3    10    11   ar
     4    11    12   ar
     5    12    13   ar
     6    13    14   ar
     7    14    15   ar
     8    15     8    1
     9     8     1    1
    10     1     2   ar
    11     2     3   ar
    12     3     4   ar
    13     4     5    1
    14     4     6   ar
    15     6    29    1
    16    29    31    1
    17    31    32   ar
    18    32    33   ar
    19    33    34   ar
    20    34    37    1
    21    37    38    1
    22    38    39    1
    23    39    40    1
    24    40    41    1
    25    41    42    1
    26    34    35   ar
    27    35    36   ar
    28    36    43    1
    29    43    44    1
    30     6     7   ar
    31    13    16    1
    32    16    17    1
    33    17    18    1
    34    18    23    1
    35    23    24    1
    36    24    25    2
    37    24    26   am
    38    26    27    1
    39    26    28    1
    40    18    19    1
    41    19    20    1
    42    15    10   ar
    43     7     1   ar
    44    20    12    1
    45    36    31   ar
    46    42    37    1
    47     8     9    1
    48    29    30    1
@<TRIPOS>MOLECULE
*****
 44 48 0 0 0
SMALL
GASTEIGER

@<TRIPOS>ATOM
      1 C           4.9945   -3.5595   20.9228 C.ar    1  UNL1        0.2220
      2 N           6.3581   -4.1265   20.6598 N.ar    1  UNL1       -0.2110
      3 C           7.3441   -4.2601   21.7822 C.ar    1  UNL1        0.1160
      4 C           6.9665   -3.8266   23.1677 C.ar    1  UNL1        0.1085
      5 CL          7.9526   -3.9602   24.2902 Cl      1  UNL1       -0.0777
      6 C           5.6029   -3.2597   23.4308 C.ar    1  UNL1        0.1473
      7 N           4.6169   -3.1261   22.3083 N.ar    1  UNL1       -0.1976
      8 N           4.0084   -3.4260   19.8003 N.pl3   1  UNL1       -0.2801
      9 H           3.7278   -4.2225   19.2942 H       1  UNL1        0.1552
     10 C           4.0349   -1.2986   18.3092 C.ar    1  UNL1        0.1517
     11 C           3.4764    0.0485   17.9579 C.ar    1  UNL1        0.0337
     12 C           2.3330    0.6153   18.7463 C.ar    1  UNL1       -0.0216
     13 C           1.7482   -0.1650   19.8860 C.ar    1  UNL1       -0.0233
     14 C           2.3066   -1.5121   20.2374 C.ar    1  UNL1        0.0132
     15 C           3.4500   -2.0789   19.4490 C.ar    1  UNL1        0.0846
     16 C           0.6153    0.2123   20.7939 C.3     1  UNL1        0.0434
     17 C          -0.2124    1.4633   20.7863 C.3     1  UNL1        0.0772
     18 N          -0.1117    2.6457   19.8689 N.3     1  UNL1       -0.2644
     19 C           0.8415    2.8694   18.7325 C.3     1  UNL1        0.0772
     20 C           1.9296    1.9658   18.2329 C.3     1  UNL1        0.0435
     21 C           6.5905   -1.5931   17.9462 C.3     1  UNL1        0.2525
     22 O           5.1782   -1.8653   17.5208 O.3     1  UNL1       -0.4702
     23 C          -1.0942    3.7507   20.1212 C.3     1  UNL1        0.1587
     24 C          -2.5507    3.5405   19.8299 C.2     1  UNL1        0.2421
     25 O          -3.4255    2.8545   20.8370 O.2     1  UNL1       -0.2734
     26 N          -3.1322    4.0161   18.5316 N.am    1  UNL1       -0.2749
     27 C          -4.5885    3.8059   18.2404 C.3     1  UNL1        0.1149
     28 C          -2.2573    4.7020   17.5246 C.3     1  UNL1        0.1149
     29 N           5.2253   -2.8262   24.8162 N.pl3   1  UNL1       -0.2948
     30 H           5.6050   -3.2895   25.5975 H       1  UNL1        0.1537
     31 C           4.2692   -1.6871   25.0113 C.ar    1  UNL1        0.0839
     32 C           3.6371   -1.0264   23.8221 C.ar    1  UNL1        0.0190
     33 C           2.6809    0.1128   24.0172 C.ar    1  UNL1        0.0160
     34 C           2.3569    0.5913   25.4015 C.ar    1  UNL1        0.0511
     35 C           2.9889   -0.0694   26.5905 C.ar    1  UNL1        0.0527
     36 C           3.9451   -1.2086   26.3955 C.ar    1  UNL1        0.1532
     37 N           1.4007    1.7305   25.5965 N.pl3   1  UNL1       -0.3027
     38 C           1.9089    3.0669   26.0501 C.3     1  UNL1        0.1231
     39 C           0.9527    4.2060   26.2451 C.3     1  UNL1        0.1636
     40 O          -0.5117    4.0087   25.9865 O.3     1  UNL1       -0.3501
     41 C          -1.0197    2.6723   25.5329 C.3     1  UNL1        0.1636
     42 C          -0.0636    1.5332   25.3379 C.3     1  UNL1        0.1231
     43 O           4.5772   -1.8693   27.5845 O.3     1  UNL1       -0.4701
     44 C           5.8848   -1.3628   28.1169 C.3     1  UNL1        0.2525
@<TRIPOS>BOND
     1    21    22    1
     2    22    10    1
     3    10    11   ar
     4    11    12   ar
     5    12    13   ar
     6    13    14   ar
     7    14    15   ar
     8    15     8    1
     9     8     1    1
    10     1     2   ar
    11     2     3   ar
    12     3     4   ar
    13     4     5    1
    14     4     6   ar
    15     6    29    1
    16    29    31    1
    17    31    32   ar
    18    32    33   ar
    19    33    34   ar
    20    34    37    1
    21    37    38    1
    22    38    39    1
    23    39    40    1
    24    40    41    1
    25    41    42    1
    26    34    35   ar
    27    35    36   ar
    28    36    43    1
    29    43    44    1
    30     6     7   ar
    31    13    16    1
    32    16    17    1
    33    17    18    1
    34    18    23    1
    35    23    24    1
    36    24    25    2
    37    24    26   am
    38    26    27    1
    39    26    28    1
    40    18    19    1
    41    19    20    1
    42    15    10   ar
    43     7     1   ar
    44    20    12    1
    45    36    31   ar
    46    42    37    1
    47     8     9    1
    48    29    30    1
@<TRIPOS>MOLECULE
*****
 44 48 0 0 0
SMALL
GASTEIGER

@<TRIPOS>ATOM
      1 C           5.3346   -3.2619   20.7309 C.ar    1  UNL1        0.2220
      2 N           6.3553   -4.3065   20.3886 N.ar    1  UNL1       -0.2110
      3 C           7.6765   -4.3251   21.0984 C.ar    1  UNL1        0.1160
      4 C           7.9771   -3.2991   22.1506 C.ar    1  UNL1        0.1085
      5 CL          9.2984   -3.3177   22.8604 Cl      1  UNL1       -0.0777
      6 C           6.9565   -2.2545   22.4929 C.ar    1  UNL1        0.1473
      7 N           5.6352   -2.2359   21.7830 N.ar    1  UNL1       -0.1976
      8 N           4.0133   -3.2433   20.0210 N.pl3   1  UNL1       -0.2801
      9 H           3.5458   -4.0881   19.8288 H       1  UNL1        0.1552
     10 C           3.9133   -1.2281   18.3843 C.ar    1  UNL1        0.1517
     11 C           3.3044    0.0778   17.9672 C.ar    1  UNL1        0.0337
     12 C           2.1864    0.6743   18.7700 C.ar    1  UNL1       -0.0216
     13 C           1.6775   -0.0350   19.9897 C.ar    1  UNL1       -0.0233
     14 C           2.2864   -1.3408   20.4068 C.ar    1  UNL1        0.0132
     15 C           3.4043   -1.9374   19.6040 C.ar    1  UNL1        0.0846
     16 C           0.5806    0.3815   20.9244 C.3     1  UNL1        0.0434
     17 C          -0.2781    1.6102   20.8700 C.3     1  UNL1        0.0772
     18 N          -0.2521    2.7258   19.8677 N.3     1  UNL1       -0.2644
     19 C           0.6390    2.8883   18.6721 C.3     1  UNL1        0.0772
     20 C           1.7243    1.9753   18.1836 C.3     1  UNL1        0.0435
     21 C           6.4446   -1.3831   17.8202 C.3     1  UNL1        0.2525
     22 O           5.0312   -1.8246   17.5815 O.3     1  UNL1       -0.4702
     23 C          -1.2491    3.8241   20.0904 C.3     1  UNL1        0.1587
     24 C          -2.7137    3.5559   19.9085 C.2     1  UNL1        0.2421
     25 O          -3.4916    2.8730   20.9942 O.2     1  UNL1       -0.2734
     26 N          -3.4005    3.9706   18.6411 N.am    1  UNL1       -0.2749
     27 C          -4.8650    3.7024   18.4593 C.3     1  UNL1        0.1149
     28 C          -2.6226    4.6535   17.5555 C.3     1  UNL1        0.1149
     29 N           7.2571   -1.2284   23.5450 N.pl3   1  UNL1       -0.2948
     30 H           8.0495   -0.6508   23.4571 H       1  UNL1        0.1537
     31 C           6.3504   -1.0824   24.7309 C.ar    1  UNL1        0.0839
     32 C           5.3681    0.0497   24.7891 C.ar    1  UNL1        0.0190
     33 C           4.4614    0.1957   25.9752 C.ar    1  UNL1        0.0160
     34 C           4.5371   -0.7905   27.1030 C.ar    1  UNL1        0.0511
     35 C           5.5194   -1.9225   27.0447 C.ar    1  UNL1        0.0527
     36 C           6.4261   -2.0685   25.8587 C.ar    1  UNL1        0.1532
     37 N           3.6304   -0.6444   28.2890 N.pl3   1  UNL1       -0.3027
     38 C           4.1768   -0.8119   29.6759 C.3     1  UNL1        0.1231
     39 C           3.2701   -0.6658   30.8618 C.3     1  UNL1        0.1636
     40 O           1.8170   -0.3523   30.6609 O.3     1  UNL1       -0.3501
     41 C           1.2707   -0.1849   29.2740 C.3     1  UNL1        0.1636
     42 C           2.1774   -0.3309   28.0881 C.3     1  UNL1        0.1231
     43 O           7.4084   -3.2006   25.8004 O.3     1  UNL1       -0.4701
     44 C           6.9386   -4.5846   25.4632 C.3     1  UNL1        0.2525
@<TRIPOS>BOND
     1    21    22    1
     2    22    10    1
     3    10    11   ar
     4    11    12   ar
     5    12    13   ar
     6    13    14   ar
     7    14    15   ar
     8    15     8    1
     9     8     1    1
    10     1     2   ar
    11     2     3   ar
    12     3     4   ar
    13     4     5    1
    14     4     6   ar
    15     6    29    1
    16    29    31    1
    17    31    32   ar
    18    32    33   ar
    19    33    34   ar
    20    34    37    1
    21    37    38    1
    22    38    39    1
    23    39    40    1
    24    40    41    1
    25    41    42    1
    26    34    35   ar
    27    35    36   ar
    28    36    43    1
    29    43    44    1
    30     6     7   ar
    31    13    16    1
    32    16    17    1
    33    17    18    1
    34    18    23    1
    35    23    24    1
    36    24    25    2
    37    24    26   am
    38    26    27    1
    39    26    28    1
    40    18    19    1
    41    19    20    1
    42    15    10   ar
    43     7     1   ar
    44    20    12    1
    45    36    31   ar
    46    42    37    1
    47     8     9    1
    48    29    30    1
@<TRIPOS>MOLECULE
*****
 44 48 0 0 0
SMALL
GASTEIGER

@<TRIPOS>ATOM
      1 C           4.6145   -2.0318   19.6426 C.ar    1  UNL1        0.2220
      2 N           5.4251   -1.2593   18.6445 N.ar    1  UNL1       -0.2110
      3 C           6.9036   -1.4892   18.5402 C.ar    1  UNL1        0.1160
      4 C           7.5717   -2.4917   19.4340 C.ar    1  UNL1        0.1085
      5 CL          9.0503   -2.7217   19.3297 Cl      1  UNL1       -0.0777
      6 C           6.7611   -3.2642   20.4321 C.ar    1  UNL1        0.1473
      7 N           5.2825   -3.0343   20.5364 N.ar    1  UNL1       -0.1976
      8 N           3.1358   -1.8019   19.7469 N.pl3   1  UNL1       -0.2801
      9 H           2.5272   -2.2043   19.0859 H       1  UNL1        0.1552
     10 C           1.4756    0.0130   20.5832 C.ar    1  UNL1        0.1517
     11 C           0.9242    0.8561   21.6947 C.ar    1  UNL1        0.0337
     12 C           1.4819    0.7272   23.0813 C.ar    1  UNL1       -0.0216
     13 C           2.5908   -0.2446   23.3563 C.ar    1  UNL1       -0.0233
     14 C           3.1422   -1.0877   22.2449 C.ar    1  UNL1        0.0132
     15 C           2.5846   -0.9589   20.8584 C.ar    1  UNL1        0.0846
     16 C           3.2851   -0.5282   24.6554 C.3     1  UNL1        0.0434
     17 C           3.0418    0.0902   26.0003 C.3     1  UNL1        0.0772
     18 N           2.0443    1.1446   26.3781 N.3     1  UNL1       -0.2644
     19 C           1.0436    1.8414   25.5045 C.3     1  UNL1        0.0772
     20 C           0.7933    1.6556   24.0373 C.3     1  UNL1        0.0435
     21 C           0.8514    1.4874   18.5372 C.3     1  UNL1        0.2525
     22 O           0.9179    0.1419   19.1968 O.3     1  UNL1       -0.4702
     23 C           2.0479    1.5570   27.8203 C.3     1  UNL1        0.1587
     24 C           1.9361    0.5191   28.8975 C.2     1  UNL1        0.2421
     25 O           0.6743   -0.2793   29.0416 O.2     1  UNL1       -0.2734
     26 N           3.0859    0.2795   29.8306 N.am    1  UNL1       -0.2749
     27 C           2.9740   -0.7584   30.9077 C.3     1  UNL1        0.1149
     28 C           4.3475    1.0778   29.6864 C.3     1  UNL1        0.1149
     29 N           7.4290   -4.2667   21.3260 N.pl3   1  UNL1       -0.2948
     30 H           7.9773   -4.9854   20.9361 H       1  UNL1        0.1537
     31 C           7.2615   -4.1741   22.8136 C.ar    1  UNL1        0.0839
     32 C           6.7128   -2.9215   23.4301 C.ar    1  UNL1        0.0190
     33 C           6.5454   -2.8289   24.9179 C.ar    1  UNL1        0.0160
     34 C           6.9266   -3.9889   25.7891 C.ar    1  UNL1        0.0511
     35 C           7.4752   -5.2414   25.1727 C.ar    1  UNL1        0.0527
     36 C           7.6427   -5.3341   23.6849 C.ar    1  UNL1        0.1532
     37 N           6.7591   -3.8963   27.2769 N.pl3   1  UNL1       -0.3027
     38 C           6.4902   -2.5681   27.9201 C.3     1  UNL1        0.1231
     39 C           6.3227   -2.4756   29.4079 C.3     1  UNL1        0.1636
     40 O           6.4241   -3.7112   30.2524 O.3     1  UNL1       -0.3501
     41 C           6.6931   -5.0392   29.6091 C.3     1  UNL1        0.1636
     42 C           6.8605   -5.1318   28.1214 C.3     1  UNL1        0.1231
     43 O           8.1914   -6.5866   23.0684 O.3     1  UNL1       -0.4701
     44 C           8.9279   -7.5799   23.9175 C.3     1  UNL1        0.2525
@<TRIPOS>BOND
     1    21    22    1
     2    22    10    1
     3    10    11   ar
     4    11    12   ar
     5    12    13   ar
     6    13    14   ar
     7    14    15   ar
     8    15     8    1
     9     8     1    1
    10     1     2   ar
    11     2     3   ar
    12     3     4   ar
    13     4     5    1
    14     4     6   ar
    15     6    29    1
    16    29    31    1
    17    31    32   ar
    18    32    33   ar
    19    33    34   ar
    20    34    37    1
    21    37    38    1
    22    38    39    1
    23    39    40    1
    24    40    41    1
    25    41    42    1
    26    34    35   ar
    27    35    36   ar
    28    36    43    1
    29    43    44    1
    30     6     7   ar
    31    13    16    1
    32    16    17    1
    33    17    18    1
    34    18    23    1
    35    23    24    1
    36    24    25    2
    37    24    26   am
    38    26    27    1
    39    26    28    1
    40    18    19    1
    41    19    20    1
    42    15    10   ar
    43     7     1   ar
    44    20    12    1
    45    36    31   ar
    46    42    37    1
    47     8     9    1
    48    29    30    1
@<TRIPOS>MOLECULE
*****
 44 48 0 0 0
SMALL
GASTEIGER

@<TRIPOS>ATOM
      1 C           5.5620   -3.0477   20.7031 C.ar    1  UNL1        0.2220
      2 N           6.6366   -2.0389   20.4240 N.ar    1  UNL1       -0.2110
      3 C           7.8961   -2.0398   21.2384 C.ar    1  UNL1        0.1160
      4 C           8.0812   -3.0495   22.3322 C.ar    1  UNL1        0.1085
      5 CL          9.3408   -3.0505   23.1467 Cl      1  UNL1       -0.0777
      6 C           7.0068   -4.0583   22.6114 C.ar    1  UNL1        0.1473
      7 N           5.7472   -4.0574   21.7968 N.ar    1  UNL1       -0.1976
      8 N           4.3025   -3.0467   19.8885 N.pl3   1  UNL1       -0.2801
      9 H           3.9151   -3.8976   19.5800 H       1  UNL1        0.1552
     10 C           4.0970   -0.9580   18.3572 C.ar    1  UNL1        0.1517
     11 C           3.4277    0.3395   18.0127 C.ar    1  UNL1        0.0337
     12 C           2.2944    0.8456   18.8552 C.ar    1  UNL1       -0.0216
     13 C           1.8306    0.0543   20.0420 C.ar    1  UNL1       -0.0233
     14 C           2.4998   -1.2431   20.3865 C.ar    1  UNL1        0.0132
     15 C           3.6331   -1.7493   19.5441 C.ar    1  UNL1        0.0846
     16 C           0.7276    0.3750   21.0068 C.3     1  UNL1        0.0434
     17 C          -0.1838    1.5663   21.0229 C.3     1  UNL1        0.0772
     18 N          -0.2174    2.7310   20.0783 N.3     1  UNL1       -0.2644
     19 C           0.6521    2.9922   18.8843 C.3     1  UNL1        0.0772
     20 C           1.7700    2.1531   18.3399 C.3     1  UNL1        0.0435
     21 C           6.4141   -0.5840   17.2432 C.3     1  UNL1        0.2525
     22 O           5.2302   -1.4641   17.5148 O.3     1  UNL1       -0.4702
     23 C          -1.2581    3.7723   20.3658 C.3     1  UNL1        0.1587
     24 C          -2.6967    3.5065   20.0342 C.2     1  UNL1        0.2421
     25 O          -3.5579    2.7389   20.9929 O.2     1  UNL1       -0.2734
     26 N          -3.2740    4.0084   18.7439 N.am    1  UNL1       -0.2749
     27 C          -4.7125    3.7427   18.4123 C.3     1  UNL1        0.1149
     28 C          -2.4128    4.7760   17.7853 C.3     1  UNL1        0.1149
     29 N           7.1918   -5.0681   23.7050 N.pl3   1  UNL1       -0.2948
     30 H           7.4315   -5.9966   23.4823 H       1  UNL1        0.1537
     31 C           7.0118   -4.6632   25.1380 C.ar    1  UNL1        0.0839
     32 C           6.7807   -3.2227   25.4870 C.ar    1  UNL1        0.0190
     33 C           6.6007   -2.8178   26.9201 C.ar    1  UNL1        0.0160
     34 C           6.6517   -3.8533   28.0041 C.ar    1  UNL1        0.0511
     35 C           6.8827   -5.2937   27.6551 C.ar    1  UNL1        0.0527
     36 C           7.0628   -5.6986   26.2221 C.ar    1  UNL1        0.1532
     37 N           6.4716   -3.4483   29.4372 N.pl3   1  UNL1       -0.3027
     38 C           6.8059   -4.4124   30.5367 C.3     1  UNL1        0.1231
     39 C           6.6259   -4.0073   31.9697 C.3     1  UNL1        0.1636
     40 O           6.1115   -2.6383   32.3032 O.3     1  UNL1       -0.3501
     41 C           5.7772   -1.6743   31.2037 C.3     1  UNL1        0.1636
     42 C           5.9573   -2.0793   29.7707 C.3     1  UNL1        0.1231
     43 O           7.2938   -7.1390   25.8730 O.3     1  UNL1       -0.4701
     44 C           8.6610   -7.7373   26.0242 C.3     1  UNL1        0.2525
@<TRIPOS>BOND
     1    21    22    1
     2    22    10    1
     3    10    11   ar
     4    11    12   ar
     5    12    13   ar
     6    13    14   ar
     7    14    15   ar
     8    15     8    1
     9     8     1    1
    10     1     2   ar
    11     2     3   ar
    12     3     4   ar
    13     4     5    1
    14     4     6   ar
    15     6    29    1
    16    29    31    1
    17    31    32   ar
    18    32    33   ar
    19    33    34   ar
    20    34    37    1
    21    37    38    1
    22    38    39    1
    23    39    40    1
    24    40    41    1
    25    41    42    1
    26    34    35   ar
    27    35    36   ar
    28    36    43    1
    29    43    44    1
    30     6     7   ar
    31    13    16    1
    32    16    17    1
    33    17    18    1
    34    18    23    1
    35    23    24    1
    36    24    25    2
    37    24    26   am
    38    26    27    1
    39    26    28    1
    40    18    19    1
    41    19    20    1
    42    15    10   ar
    43     7     1   ar
    44    20    12    1
    45    36    31   ar
    46    42    37    1
    47     8     9    1
    48    29    30    1
@<TRIPOS>MOLECULE
*****
 44 48 0 0 0
SMALL
GASTEIGER

@<TRIPOS>ATOM
      1 C           8.0559   -5.4067   23.9457 C.ar    1  UNL1        0.2220
      2 N           8.0205   -6.8989   23.7966 N.ar    1  UNL1       -0.2110
      3 C           8.4663   -7.7765   24.9283 C.ar    1  UNL1        0.1160
      4 C           8.9474   -7.1620   26.2093 C.ar    1  UNL1        0.1085
      5 CL          9.3932   -8.0397   27.3412 Cl      1  UNL1       -0.0777
      6 C           8.9828   -5.6698   26.3585 C.ar    1  UNL1        0.1473
      7 N           8.5370   -4.7922   25.2267 N.ar    1  UNL1       -0.1976
      8 N           7.6101   -4.5290   22.8139 N.pl3   1  UNL1       -0.2801
      9 H           8.0715   -4.5734   21.9453 H       1  UNL1        0.1552
     10 C           5.4141   -3.4505   21.9397 C.ar    1  UNL1        0.1517
     11 C           4.2652   -2.5053   22.1312 C.ar    1  UNL1        0.0337
     12 C           4.1635   -1.6934   23.3885 C.ar    1  UNL1       -0.0216
     13 C           5.2106   -1.8267   24.4540 C.ar    1  UNL1       -0.0233
     14 C           6.3595   -2.7719   24.2626 C.ar    1  UNL1        0.0132
     15 C           6.4612   -3.5838   23.0054 C.ar    1  UNL1        0.0846
     16 C           5.2991   -1.1167   25.7724 C.3     1  UNL1        0.0434
     17 C           4.3621   -0.0979   26.3507 C.3     1  UNL1        0.0772
     18 N           3.1055    0.4623   25.7535 N.3     1  UNL1       -0.2644
     19 C           2.4752    0.1422   24.4305 C.3     1  UNL1        0.0772
     20 C           2.9461   -0.8171   23.3779 C.3     1  UNL1        0.0435
     21 C           4.4636   -4.1360   19.6210 C.3     1  UNL1        0.2525
     22 O           5.5157   -4.2624   20.6826 O.3     1  UNL1       -0.4702
     23 C           2.3834    1.4767   26.5899 C.3     1  UNL1        0.1587
     24 C           1.3783    1.0297   27.6097 C.2     1  UNL1        0.2421
     25 O           1.8400    0.4473   28.9126 O.2     1  UNL1       -0.2734
     26 N          -0.0885    1.1650   27.3265 N.am    1  UNL1       -0.2749
     27 C          -1.0936    0.7179   28.3463 C.3     1  UNL1        0.1149
     28 C          -0.5502    1.7473   26.0236 C.3     1  UNL1        0.1149
     29 N           9.4639   -5.0553   27.6394 N.pl3   1  UNL1       -0.2948
     30 H          10.4184   -5.0968   27.8773 H       1  UNL1        0.1537
     31 C           8.4909   -4.3775   28.5580 C.ar    1  UNL1        0.0839
     32 C           7.9787   -3.0067   28.2287 C.ar    1  UNL1        0.0190
     33 C           7.0057   -2.3289   29.1474 C.ar    1  UNL1        0.0160
     34 C           6.5449   -3.0220   30.3953 C.ar    1  UNL1        0.0511
     35 C           7.0571   -4.3928   30.7246 C.ar    1  UNL1        0.0527
     36 C           8.0301   -5.0706   29.8060 C.ar    1  UNL1        0.1532
     37 N           5.5719   -2.3442   31.3139 N.pl3   1  UNL1       -0.3027
     38 C           4.7301   -1.2095   30.8098 C.3     1  UNL1        0.1231
     39 C           3.7572   -0.5318   31.7285 C.3     1  UNL1        0.1636
     40 O           3.6259   -0.9887   33.1512 O.3     1  UNL1       -0.3501
     41 C           4.4676   -2.1233   33.6552 C.3     1  UNL1        0.1636
     42 C           5.4406   -2.8011   32.7366 C.3     1  UNL1        0.1231
     43 O           8.5424   -6.4414   30.1352 O.3     1  UNL1       -0.4701
     44 C           9.0926   -6.7284   31.5008 C.3     1  UNL1        0.2525
@<TRIPOS>BOND
     1    21    22    1
     2    22    10    1
     3    10    11   ar
     4    11    12   ar
     5    12    13   ar
     6    13    14   ar
     7    14    15   ar
     8    15     8    1
     9     8     1    1
    10     1     2   ar
    11     2     3   ar
    12     3     4   ar
    13     4     5    1
    14     4     6   ar
    15     6    29    1
    16    29    31    1
    17    31    32   ar
    18    32    33   ar
    19    33    34   ar
    20    34    37    1
    21    37    38    1
    22    38    39    1
    23    39    40    1
    24    40    41    1
    25    41    42    1
    26    34    35   ar
    27    35    36   ar
    28    36    43    1
    29    43    44    1
    30     6     7   ar
    31    13    16    1
    32    16    17    1
    33    17    18    1
    34    18    23    1
    35    23    24    1
    36    24    25    2
    37    24    26   am
    38    26    27    1
    39    26    28    1
    40    18    19    1
    41    19    20    1
    42    15    10   ar
    43     7     1   ar
    44    20    12    1
    45    36    31   ar
    46    42    37    1
    47     8     9    1
    48    29    30    1
@<TRIPOS>MOLECULE
*****
 44 48 0 0 0
SMALL
GASTEIGER

@<TRIPOS>ATOM
      1 C           5.5943   -3.5481   20.9403 C.ar    1  UNL1        0.2220
      2 N           6.7367   -4.4772   20.6539 N.ar    1  UNL1       -0.2110
      3 C           7.9325   -4.4969   21.5590 C.ar    1  UNL1        0.1160
      4 C           7.9861   -3.5874   22.7508 C.ar    1  UNL1        0.1085
      5 CL          9.1820   -3.6071   23.6560 Cl      1  UNL1       -0.0777
      6 C           6.8438   -2.6583   23.0372 C.ar    1  UNL1        0.1473
      7 N           5.6480   -2.6387   22.1320 N.ar    1  UNL1       -0.1976
      8 N           4.3984   -3.5285   20.0350 N.pl3   1  UNL1       -0.2801
      9 H           4.0116   -4.3742   19.7120 H       1  UNL1        0.1552
     10 C           4.3028   -1.5081   18.4045 C.ar    1  UNL1        0.1517
     11 C           3.6964   -0.1998   17.9913 C.ar    1  UNL1        0.0337
     12 C           2.5792    0.3963   18.7955 C.ar    1  UNL1       -0.0216
     13 C           2.0685   -0.3159   20.0127 C.ar    1  UNL1       -0.0233
     14 C           2.6749   -1.6241   20.4260 C.ar    1  UNL1        0.0132
     15 C           3.7920   -2.2202   19.6219 C.ar    1  UNL1        0.0846
     16 C           0.9720    0.0997   20.9483 C.3     1  UNL1        0.0434
     17 C           0.1155    1.3302   20.8974 C.3     1  UNL1        0.0772
     18 N           0.1440    2.4487   19.8986 N.3     1  UNL1       -0.2644
     19 C           1.0360    2.6134   18.7039 C.3     1  UNL1        0.0772
     20 C           2.1198    1.7000   18.2129 C.3     1  UNL1        0.0435
     21 C           6.8440   -1.7690   17.9312 C.3     1  UNL1        0.2525
     22 O           5.4200   -2.1041   17.6003 O.3     1  UNL1       -0.4702
     23 C          -0.8511    3.5482   20.1243 C.3     1  UNL1        0.1587
     24 C          -1.9552    3.3672   21.1235 C.2     1  UNL1        0.2421
     25 O          -3.2229    2.6728   20.7226 O.2     1  UNL1       -0.2734
     26 N          -1.7916    3.8805   22.5234 N.am    1  UNL1       -0.2749
     27 C          -2.8956    3.6995   23.5224 C.3     1  UNL1        0.1149
     28 C          -0.5238    4.5749   22.9241 C.3     1  UNL1        0.1149
     29 N           6.8974   -1.7489   24.2289 N.pl3   1  UNL1       -0.2948
     30 H           7.7472   -1.6140   24.7073 H       1  UNL1        0.1537
     31 C           5.6563   -1.0450   24.6915 C.ar    1  UNL1        0.0839
     32 C           4.8460   -1.6156   25.8175 C.ar    1  UNL1        0.0190
     33 C           3.6048   -0.9116   26.2802 C.ar    1  UNL1        0.0160
     34 C           3.1741    0.3629   25.6168 C.ar    1  UNL1        0.0511
     35 C           3.9843    0.9334   24.4909 C.ar    1  UNL1        0.0527
     36 C           5.2255    0.2295   24.0282 C.ar    1  UNL1        0.1532
     37 N           1.9329    1.0668   26.0795 N.pl3   1  UNL1       -0.3027
     38 C           0.7359    1.1464   25.1791 C.3     1  UNL1        0.1231
     39 C          -0.5052    1.8503   25.6419 C.3     1  UNL1        0.1636
     40 O          -0.5493    2.4747   27.0050 O.3     1  UNL1       -0.3501
     41 C           0.6477    2.3951   27.9054 C.3     1  UNL1        0.1636
     42 C           1.8888    1.6912   27.4427 C.3     1  UNL1        0.1231
     43 O           6.0358    0.8000   22.9022 O.3     1  UNL1       -0.4701
     44 C           5.4654    0.8453   21.5156 C.3     1  UNL1        0.2525
@<TRIPOS>BOND
     1    21    22    1
     2    22    10    1
     3    10    11   ar
     4    11    12   ar
     5    12    13   ar
     6    13    14   ar
     7    14    15   ar
     8    15     8    1
     9     8     1    1
    10     1     2   ar
    11     2     3   ar
    12     3     4   ar
    13     4     5    1
    14     4     6   ar
    15     6    29    1
    16    29    31    1
    17    31    32   ar
    18    32    33   ar
    19    33    34   ar
    20    34    37    1
    21    37    38    1
    22    38    39    1
    23    39    40    1
    24    40    41    1
    25    41    42    1
    26    34    35   ar
    27    35    36   ar
    28    36    43    1
    29    43    44    1
    30     6     7   ar
    31    13    16    1
    32    16    17    1
    33    17    18    1
    34    18    23    1
    35    23    24    1
    36    24    25    2
    37    24    26   am
    38    26    27    1
    39    26    28    1
    40    18    19    1
    41    19    20    1
    42    15    10   ar
    43     7     1   ar
    44    20    12    1
    45    36    31   ar
    46    42    37    1
    47     8     9    1
    48    29    30    1
@<TRIPOS>MOLECULE
*****
 44 48 0 0 0
SMALL
GASTEIGER

@<TRIPOS>ATOM
      1 C           5.4913   -3.4106   20.8569 C.ar    1  UNL1        0.2220
      2 N           6.5662   -4.3378   20.3721 N.ar    1  UNL1       -0.2110
      3 C           7.9019   -4.3594   21.0541 C.ar    1  UNL1        0.1160
      4 C           8.1629   -3.4538   22.2211 C.ar    1  UNL1        0.1085
      5 CL          9.4986   -3.4754   22.9032 Cl      1  UNL1       -0.0777
      6 C           7.0880   -2.5265   22.7060 C.ar    1  UNL1        0.1473
      7 N           5.7523   -2.5049   22.0239 N.ar    1  UNL1       -0.1976
      8 N           4.1555   -3.3890   20.1748 N.pl3   1  UNL1       -0.2801
      9 H           3.6720   -4.2310   20.0124 H       1  UNL1        0.1552
     10 C           4.0659   -1.3992   18.5066 C.ar    1  UNL1        0.1517
     11 C           3.4669   -0.0945   18.0718 C.ar    1  UNL1        0.0337
     12 C           2.3585    0.5250   18.8704 C.ar    1  UNL1       -0.0216
     13 C           1.8492   -0.1600   20.1036 C.ar    1  UNL1       -0.0233
     14 C           2.4482   -1.4647   20.5385 C.ar    1  UNL1        0.0132
     15 C           3.5565   -2.0843   19.7400 C.ar    1  UNL1        0.0846
     16 C           0.7609    0.2814   21.0369 C.3     1  UNL1        0.0434
     17 C          -0.0868    1.5170   20.9671 C.3     1  UNL1        0.0772
     18 N          -0.0555    2.6162   19.9471 N.3     1  UNL1       -0.2644
     19 C           0.8311    2.7514   18.7447 C.3     1  UNL1        0.0772
     20 C           1.9055    1.8208   18.2655 C.3     1  UNL1        0.0435
     21 C           6.5718   -1.4872   17.8265 C.3     1  UNL1        0.2525
     22 O           5.1742   -2.0187   17.7080 O.3     1  UNL1       -0.4702
     23 C          -1.0412    3.7272   20.1570 C.3     1  UNL1        0.1587
     24 C          -2.1686    3.5554   21.1315 C.2     1  UNL1        0.2421
     25 O          -3.3936    2.7866   20.7332 O.2     1  UNL1       -0.2734
     26 N          -2.0712    4.1524   22.5041 N.am    1  UNL1       -0.2749
     27 C          -3.1985    3.9806   23.4785 C.3     1  UNL1        0.1149
     28 C          -0.8462    4.9211   22.9023 C.3     1  UNL1        0.1149
     29 N           7.3489   -1.6209   23.8729 N.pl3   1  UNL1       -0.2948
     30 H           7.6036   -0.6823   23.7202 H       1  UNL1        0.1537
     31 C           7.2218   -2.1454   25.2724 C.ar    1  UNL1        0.0839
     32 C           8.4403   -2.6138   26.0114 C.ar    1  UNL1        0.0190
     33 C           8.3131   -3.1383   27.4110 C.ar    1  UNL1        0.0160
     34 C           6.9676   -3.1942   28.0715 C.ar    1  UNL1        0.0511
     35 C           5.7492   -2.7258   27.3327 C.ar    1  UNL1        0.0527
     36 C           5.8763   -2.2013   25.9331 C.ar    1  UNL1        0.1532
     37 N           6.8405   -3.7187   29.4711 N.pl3   1  UNL1       -0.3027
     38 C           7.1012   -5.1683   29.7555 C.3     1  UNL1        0.1231
     39 C           6.9741   -5.6926   31.1550 C.3     1  UNL1        0.1636
     40 O           6.5863   -4.7675   32.2703 O.3     1  UNL1       -0.3501
     41 C           6.3256   -3.3180   31.9859 C.3     1  UNL1        0.1636
     42 C           6.4527   -2.7936   30.5864 C.3     1  UNL1        0.1231
     43 O           4.6580   -1.7328   25.1941 O.3     1  UNL1       -0.4701
     44 C           3.7674   -0.6897   25.8014 C.3     1  UNL1        0.2525
@<TRIPOS>BOND
     1    21    22    1
     2    22    10    1
     3    10    11   ar
     4    11    12   ar
     5    12    13   ar
     6    13    14   ar
     7    14    15   ar
     8    15     8    1
     9     8     1    1
    10     1     2   ar
    11     2     3   ar
    12     3     4   ar
    13     4     5    1
    14     4     6   ar
    15     6    29    1
    16    29    31    1
    17    31    32   ar
    18    32    33   ar
    19    33    34   ar
    20    34    37    1
    21    37    38    1
    22    38    39    1
    23    39    40    1
    24    40    41    1
    25    41    42    1
    26    34    35   ar
    27    35    36   ar
    28    36    43    1
    29    43    44    1
    30     6     7   ar
    31    13    16    1
    32    16    17    1
    33    17    18    1
    34    18    23    1
    35    23    24    1
    36    24    25    2
    37    24    26   am
    38    26    27    1
    39    26    28    1
    40    18    19    1
    41    19    20    1
    42    15    10   ar
    43     7     1   ar
    44    20    12    1
    45    36    31   ar
    46    42    37    1
    47     8     9    1
    48    29    30    1
@<TRIPOS>MOLECULE
*****
 44 48 0 0 0
SMALL
GASTEIGER

@<TRIPOS>ATOM
      1 C           0.6203    1.8280   27.2850 C.ar    1  UNL1        0.2220
      2 N           1.5552    2.9862   27.4710 N.ar    1  UNL1       -0.2110
      3 C           2.0285    3.7667   26.2808 C.ar    1  UNL1        0.1160
      4 C           1.5669    3.3890   24.9044 C.ar    1  UNL1        0.1085
      5 CL          2.0402    4.1695   23.7141 Cl      1  UNL1       -0.0777
      6 C           0.6320    2.2308   24.7183 C.ar    1  UNL1        0.1473
      7 N           0.1587    1.4503   25.9086 N.ar    1  UNL1       -0.1976
      8 N           0.1470    1.0475   28.4753 N.pl3   1  UNL1       -0.2801
      9 H          -0.7411    0.6227   28.4640 H       1  UNL1        0.1552
     10 C           2.0770   -0.1559   29.7311 C.ar    1  UNL1        0.1517
     11 C           2.9569   -0.2893   30.9386 C.ar    1  UNL1        0.0337
     12 C           2.7866    0.6475   32.0978 C.ar    1  UNL1       -0.0216
     13 C           1.7366    1.7174   32.0494 C.ar    1  UNL1       -0.0233
     14 C           0.8567    1.8508   30.8420 C.ar    1  UNL1        0.0132
     15 C           1.0269    0.9142   29.6828 C.ar    1  UNL1        0.0846
     16 C           1.4021    2.7472   33.0876 C.3     1  UNL1        0.0434
     17 C           2.0353    2.9612   34.4306 C.3     1  UNL1        0.0772
     18 N           3.1591    2.1984   35.0669 N.3     1  UNL1       -0.2644
     19 C           3.9275    1.0331   34.5176 C.3     1  UNL1        0.0772
     20 C           3.7617    0.3429   33.1962 C.3     1  UNL1        0.0435
     21 C           3.4042   -0.9213   27.6329 C.3     1  UNL1        0.2525
     22 O           2.2472   -1.0926   28.5720 O.3     1  UNL1       -0.4702
     23 C           3.5689    2.6622   36.4333 C.3     1  UNL1        0.1587
     24 C           2.5251    3.0576   37.4355 C.2     1  UNL1        0.2421
     25 O           1.9638    4.4486   37.4246 O.2     1  UNL1       -0.2734
     26 N           2.0427    2.0621   38.4485 N.am    1  UNL1       -0.2749
     27 C           0.9991    2.4575   39.4506 C.3     1  UNL1        0.1149
     28 C           2.6041    0.6712   38.4594 C.3     1  UNL1        0.1149
     29 N           0.1704    1.8531   23.3420 N.pl3   1  UNL1       -0.2948
     30 H          -0.6868    2.1951   22.9992 H       1  UNL1        0.1537
     31 C           1.0147    0.9544   22.4881 C.ar    1  UNL1        0.0839
     32 C           2.2386    0.3055   23.0636 C.ar    1  UNL1        0.0190
     33 C           3.0829   -0.5933   22.2095 C.ar    1  UNL1        0.0160
     34 C           2.7033   -0.8431   20.7800 C.ar    1  UNL1        0.0511
     35 C           1.4795   -0.1943   20.2045 C.ar    1  UNL1        0.0527
     36 C           0.6351    0.7045   21.0585 C.ar    1  UNL1        0.1532
     37 N           3.5476   -1.7419   19.9260 N.pl3   1  UNL1       -0.3027
     38 C           3.7055   -3.1891   20.2877 C.3     1  UNL1        0.1231
     39 C           4.5498   -4.0878   19.4337 C.3     1  UNL1        0.1636
     40 O           5.2363   -3.5394   18.2180 O.3     1  UNL1       -0.3501
     41 C           5.0785   -2.0922   17.8563 C.3     1  UNL1        0.1636
     42 C           4.2341   -1.1935   18.7103 C.3     1  UNL1        0.1231
     43 O          -0.5887    1.3533   20.4831 O.3     1  UNL1       -0.4701
     44 C          -0.4919    2.7114   19.8537 C.3     1  UNL1        0.2525
@<TRIPOS>BOND
     1    21    22    1
     2    22    10    1
     3    10    11   ar
     4    11    12   ar
     5    12    13   ar
     6    13    14   ar
     7    14    15   ar
     8    15     8    1
     9     8     1    1
    10     1     2   ar
    11     2     3   ar
    12     3     4   ar
    13     4     5    1
    14     4     6   ar
    15     6    29    1
    16    29    31    1
    17    31    32   ar
    18    32    33   ar
    19    33    34   ar
    20    34    37    1
    21    37    38    1
    22    38    39    1
    23    39    40    1
    24    40    41    1
    25    41    42    1
    26    34    35   ar
    27    35    36   ar
    28    36    43    1
    29    43    44    1
    30     6     7   ar
    31    13    16    1
    32    16    17    1
    33    17    18    1
    34    18    23    1
    35    23    24    1
    36    24    25    2
    37    24    26   am
    38    26    27    1
    39    26    28    1
    40    18    19    1
    41    19    20    1
    42    15    10   ar
    43     7     1   ar
    44    20    12    1
    45    36    31   ar
    46    42    37    1
    47     8     9    1
    48    29    30    1
