@<TRIPOS>MOLECULE
*****
 32 35 0 0 0
SMALL
GASTEIGER

@<TRIPOS>ATOM
      1 C          -2.7938  -20.0600   20.9973 C.3     1  UNL1        0.0732
      2 N          -2.8460  -18.6359   21.4655 N.3     1  UNL1       -0.2682
      3 C          -1.8709  -17.6325   20.9249 C.3     1  UNL1        0.1046
      4 C          -1.9232  -16.2084   21.3931 C.3     1  UNL1        0.1598
      5 O          -2.9506  -15.7877   22.4018 O.3     1  UNL1       -0.3489
      6 C          -3.9257  -16.7911   22.9424 C.3     1  UNL1        0.1534
      7 C          -3.8734  -18.2152   22.4742 C.3     1  UNL1        0.1067
      8 C          -4.9530  -16.3705   23.9511 C.ar    1  UNL1        0.0059
      9 C          -6.3954  -16.2649   23.5533 C.ar    1  UNL1       -0.0020
     10 C          -7.4228  -15.8442   24.5621 C.ar    1  UNL1        0.0036
     11 C          -7.0078  -15.5291   25.9686 C.ar    1  UNL1        0.0714
     12 C          -5.5654  -15.6347   26.3664 C.ar    1  UNL1        0.0036
     13 C          -4.5380  -16.0554   25.3577 C.ar    1  UNL1       -0.0020
     14 C          -8.0351  -15.1085   26.9774 C.3     1  UNL1        0.4186
     15 F          -9.0625  -14.6878   27.9861 F       1  UNL1       -0.1659
     16 F          -6.9535  -14.9159   27.9986 F       1  UNL1       -0.1659
     17 F          -9.1168  -15.3010   25.9561 F       1  UNL1       -0.1659
     18 C          -3.8517  -20.5848   20.0725 C.3     1  UNL1        0.0294
     19 C          -5.1530  -19.8525   19.9291 C.3     1  UNL1        0.0666
     20 S          -6.3637  -20.3204   20.6809 S.3     1  UNL1       -0.0756
     21 C          -9.8579  -18.6352   20.8080 C.ar    1  UNL1        0.2029
     22 N          -9.6239  -18.7063   19.3280 N.ar    1  UNL1       -0.1250
     23 N          -8.2865  -19.3462   19.1003 N.ar    1  UNL1       -0.1220
     24 C          -7.6939  -19.6706   20.4395 C.ar    1  UNL1        0.1933
     25 N          -8.6650  -19.2312   21.4949 N.ar    1  UNL1       -0.2860
     26 C          -8.4764  -19.3645   22.9770 C.3     1  UNL1        0.1341
     27 C         -11.4863  -15.9594   19.8925 C.3     1  UNL1        0.0556
     28 C         -11.8200  -16.8378   21.0617 C.ar    1  UNL1        0.1001
     29 N         -12.9609  -16.6405   22.0154 N.ar    1  UNL1       -0.2085
     30 C         -12.9174  -17.7486   23.0257 C.ar    1  UNL1        0.2849
     31 O         -11.7497  -18.6306   22.6963 O.2     1  UNL1       -0.4283
     32 C         -11.0715  -18.0678   21.4826 C.ar    1  UNL1        0.1964
@<TRIPOS>BOND
     1    27    28    1
     2    28    29   ar
     3    29    30   ar
     4    30    31   ar
     5    31    32   ar
     6    32    21    1
     7    21    22   ar
     8    22    23   ar
     9    23    24   ar
    10    24    20    1
    11    20    19    1
    12    19    18    1
    13    18     1    1
    14     1     2    1
    15     2     3    1
    16     3     4    1
    17     4     5    1
    18     5     6    1
    19     6     8    1
    20     8     9   ar
    21     9    10   ar
    22    10    11   ar
    23    11    14    1
    24    14    15    1
    25    14    16    1
    26    14    17    1
    27    11    12   ar
    28    12    13   ar
    29     6     7    1
    30    24    25   ar
    31    25    26    1
    32    32    28   ar
    33    25    21   ar
    34     7     2    1
    35    13     8   ar
@<TRIPOS>MOLECULE
*****
 32 35 0 0 0
SMALL
GASTEIGER

@<TRIPOS>ATOM
      1 C         -11.1126  -19.1921   20.0797 C.3     1  UNL1        0.0732
      2 N         -10.0269  -19.5231   21.0605 N.3     1  UNL1       -0.2682
      3 C         -10.3786  -20.0682   22.4129 C.3     1  UNL1        0.1046
      4 C          -9.2929  -20.3992   23.3936 C.3     1  UNL1        0.1598
      5 O          -7.8556  -20.1850   23.0218 O.3     1  UNL1       -0.3489
      6 C          -7.5039  -19.6399   21.6694 C.3     1  UNL1        0.1534
      7 C          -8.5896  -19.3089   20.6887 C.3     1  UNL1        0.1067
      8 C          -6.0666  -19.4257   21.2976 C.ar    1  UNL1        0.0059
      9 C          -4.9943  -19.5646   22.3372 C.ar    1  UNL1       -0.0020
     10 C          -3.5570  -19.3504   21.9655 C.ar    1  UNL1        0.0036
     11 C          -3.1919  -18.9974   20.5541 C.ar    1  UNL1        0.0714
     12 C          -4.2642  -18.8586   19.5145 C.ar    1  UNL1        0.0036
     13 C          -5.7015  -19.0727   19.8862 C.ar    1  UNL1       -0.0020
     14 C          -1.7546  -18.7833   20.1823 C.3     1  UNL1        0.4186
     15 F          -0.3172  -18.5691   19.8105 F       1  UNL1       -0.1659
     16 F          -2.1304  -18.7818   18.7302 F       1  UNL1       -0.1659
     17 F          -1.3788  -18.7847   21.6345 F       1  UNL1       -0.1659
     18 C         -11.4532  -17.7597   19.7930 C.3     1  UNL1        0.0294
     19 C         -12.2994  -16.9825   20.7574 C.3     1  UNL1        0.0666
     20 S         -11.7069  -16.4838   22.0420 S.3     1  UNL1       -0.0756
     21 C          -7.9629  -15.8886   22.8749 C.ar    1  UNL1        0.2029
     22 N          -8.0700  -15.2276   21.5326 N.ar    1  UNL1       -0.1250
     23 N          -9.4855  -15.3701   21.0573 N.ar    1  UNL1       -0.1220
     24 C         -10.2533  -16.1192   22.1057 C.ar    1  UNL1        0.1933
     25 N          -9.3123  -16.4396   23.2291 N.ar    1  UNL1       -0.2860
     26 C          -9.6598  -17.1809   24.4859 C.3     1  UNL1        0.1341
     27 C          -7.7289  -15.1221   26.0384 C.3     1  UNL1        0.0556
     28 C          -6.6165  -15.6298   25.1695 C.ar    1  UNL1        0.1001
     29 N          -5.2012  -15.8743   25.6022 N.ar    1  UNL1       -0.2085
     30 C          -4.4342  -16.3778   24.4155 C.ar    1  UNL1        0.2849
     31 O          -5.3754  -16.4444   23.2494 O.2     1  UNL1       -0.4283
     32 C          -6.7241  -15.9821   23.7154 C.ar    1  UNL1        0.1964
@<TRIPOS>BOND
     1    27    28    1
     2    28    29   ar
     3    29    30   ar
     4    30    31   ar
     5    31    32   ar
     6    32    21    1
     7    21    22   ar
     8    22    23   ar
     9    23    24   ar
    10    24    20    1
    11    20    19    1
    12    19    18    1
    13    18     1    1
    14     1     2    1
    15     2     3    1
    16     3     4    1
    17     4     5    1
    18     5     6    1
    19     6     8    1
    20     8     9   ar
    21     9    10   ar
    22    10    11   ar
    23    11    14    1
    24    14    15    1
    25    14    16    1
    26    14    17    1
    27    11    12   ar
    28    12    13   ar
    29     6     7    1
    30    24    25   ar
    31    25    26    1
    32    32    28   ar
    33    25    21   ar
    34     7     2    1
    35    13     8   ar
@<TRIPOS>MOLECULE
*****
 32 35 0 0 0
SMALL
GASTEIGER

@<TRIPOS>ATOM
      1 C          -9.2645  -19.4900   19.1878 C.3     1  UNL1        0.0732
      2 N          -8.2492  -19.5604   20.2898 N.3     1  UNL1       -0.2682
      3 C          -8.6521  -20.0449   21.6510 C.3     1  UNL1        0.1046
      4 C          -7.6368  -20.1152   22.7528 C.3     1  UNL1        0.1598
      5 O          -6.2186  -19.7010   22.4935 O.3     1  UNL1       -0.3489
      6 C          -5.8157  -19.2165   21.1323 C.3     1  UNL1        0.1534
      7 C          -6.8310  -19.1462   20.0304 C.3     1  UNL1        0.1067
      8 C          -4.3976  -18.8023   20.8730 C.ar    1  UNL1        0.0059
      9 C          -3.8997  -18.6731   19.4640 C.ar    1  UNL1       -0.0020
     10 C          -2.4815  -18.2590   19.2046 C.ar    1  UNL1        0.0036
     11 C          -1.5612  -17.9739   20.3543 C.ar    1  UNL1        0.0714
     12 C          -2.0591  -18.1031   21.7633 C.ar    1  UNL1        0.0036
     13 C          -3.4773  -18.5173   22.0226 C.ar    1  UNL1       -0.0020
     14 C          -0.1431  -17.5597   20.0950 C.3     1  UNL1        0.4186
     15 F           1.2751  -17.1455   19.8356 F       1  UNL1       -0.1659
     16 F           0.1929  -18.9642   19.6892 F       1  UNL1       -0.1659
     17 F          -0.4791  -16.1553   20.5007 F       1  UNL1       -0.1659
     18 C         -10.6776  -19.0911   19.4944 C.3     1  UNL1        0.0294
     19 C         -10.9891  -17.6781   19.8900 C.3     1  UNL1        0.0666
     20 S         -11.0328  -17.2976   21.3402 S.3     1  UNL1       -0.0756
     21 C          -8.2034  -15.8655   23.5782 C.ar    1  UNL1        0.2029
     22 N          -7.9338  -15.1592   22.2826 N.ar    1  UNL1       -0.1250
     23 N          -8.9609  -15.6097   21.2866 N.ar    1  UNL1       -0.1220
     24 C          -9.8653  -16.5944   21.9665 C.ar    1  UNL1        0.1933
     25 N          -9.3972  -16.7525   23.3829 N.ar    1  UNL1       -0.2860
     26 C         -10.0144  -17.6415   24.4215 C.3     1  UNL1        0.1341
     27 C          -4.9572  -15.6200   23.8050 C.3     1  UNL1        0.0556
     28 C          -5.9252  -15.5989   24.9507 C.ar    1  UNL1        0.1001
     29 N          -5.5710  -15.4612   26.4018 N.ar    1  UNL1       -0.2085
     30 C          -6.8443  -15.4890   27.1943 C.ar    1  UNL1        0.2849
     31 O          -7.9854  -15.6438   26.2331 O.2     1  UNL1       -0.4283
     32 C          -7.4174  -15.7117   24.8465 C.ar    1  UNL1        0.1964
@<TRIPOS>BOND
     1    27    28    1
     2    28    29   ar
     3    29    30   ar
     4    30    31   ar
     5    31    32   ar
     6    32    21    1
     7    21    22   ar
     8    22    23   ar
     9    23    24   ar
    10    24    20    1
    11    20    19    1
    12    19    18    1
    13    18     1    1
    14     1     2    1
    15     2     3    1
    16     3     4    1
    17     4     5    1
    18     5     6    1
    19     6     8    1
    20     8     9   ar
    21     9    10   ar
    22    10    11   ar
    23    11    14    1
    24    14    15    1
    25    14    16    1
    26    14    17    1
    27    11    12   ar
    28    12    13   ar
    29     6     7    1
    30    24    25   ar
    31    25    26    1
    32    32    28   ar
    33    25    21   ar
    34     7     2    1
    35    13     8   ar
@<TRIPOS>MOLECULE
*****
 32 35 0 0 0
SMALL
GASTEIGER

@<TRIPOS>ATOM
      1 C          -3.6401  -17.8672   19.0058 C.3     1  UNL1        0.0732
      2 N          -4.4896  -18.9401   19.6201 N.3     1  UNL1       -0.2682
      3 C          -3.9593  -20.3377   19.7438 C.3     1  UNL1        0.1046
      4 C          -4.8088  -21.4105   20.3580 C.3     1  UNL1        0.1598
      5 O          -6.1886  -21.0857   20.8486 O.3     1  UNL1       -0.3489
      6 C          -6.7189  -19.6880   20.7250 C.3     1  UNL1        0.1534
      7 C          -5.8694  -18.6152   20.1107 C.3     1  UNL1        0.1067
      8 C          -8.0987  -19.3632   21.2156 C.ar    1  UNL1        0.0059
      9 C          -8.3894  -19.3572   22.6871 C.ar    1  UNL1       -0.0020
     10 C          -9.7691  -19.0324   23.1777 C.ar    1  UNL1        0.0036
     11 C         -10.8582  -18.7135   22.1968 C.ar    1  UNL1        0.0714
     12 C         -10.5675  -18.7195   20.7253 C.ar    1  UNL1        0.0036
     13 C          -9.1877  -19.0443   20.2347 C.ar    1  UNL1       -0.0020
     14 C         -12.2380  -18.3887   22.6874 C.3     1  UNL1        0.4186
     15 F         -13.6178  -18.0639   23.1780 F       1  UNL1       -0.1659
     16 F         -12.6821  -18.1431   21.2759 F       1  UNL1       -0.1659
     17 F         -11.7939  -18.6343   24.0990 F       1  UNL1       -0.1659
     18 C          -2.1447  -17.9701   19.0626 C.3     1  UNL1        0.0294
     19 C          -1.3970  -17.3933   20.2281 C.3     1  UNL1        0.0666
     20 S          -1.8913  -17.6249   21.6252 S.3     1  UNL1       -0.0756
     21 C          -4.7899  -15.8409   23.4909 C.ar    1  UNL1        0.2029
     22 N          -4.1198  -14.6796   22.8182 N.ar    1  UNL1       -0.1250
     23 N          -2.9524  -15.2066   22.0375 N.ar    1  UNL1       -0.1220
     24 C          -2.9010  -16.6936   22.2275 C.ar    1  UNL1        0.1933
     25 N          -4.0366  -17.0856   23.1258 N.ar    1  UNL1       -0.2860
     26 C          -4.3618  -18.4779   23.5793 C.3     1  UNL1        0.1341
     27 C          -7.8946  -15.7831   22.4873 C.3     1  UNL1        0.0556
     28 C          -7.4277  -15.7434   23.9122 C.ar    1  UNL1        0.1001
     29 N          -8.3059  -15.6702   25.1260 N.ar    1  UNL1       -0.2085
     30 C          -7.4215  -15.6516   26.3375 C.ar    1  UNL1        0.2849
     31 O          -5.9967  -15.7132   25.8724 O.2     1  UNL1       -0.4283
     32 C          -6.0006  -15.7700   24.3735 C.ar    1  UNL1        0.1964
@<TRIPOS>BOND
     1    27    28    1
     2    28    29   ar
     3    29    30   ar
     4    30    31   ar
     5    31    32   ar
     6    32    21    1
     7    21    22   ar
     8    22    23   ar
     9    23    24   ar
    10    24    20    1
    11    20    19    1
    12    19    18    1
    13    18     1    1
    14     1     2    1
    15     2     3    1
    16     3     4    1
    17     4     5    1
    18     5     6    1
    19     6     8    1
    20     8     9   ar
    21     9    10   ar
    22    10    11   ar
    23    11    14    1
    24    14    15    1
    25    14    16    1
    26    14    17    1
    27    11    12   ar
    28    12    13   ar
    29     6     7    1
    30    24    25   ar
    31    25    26    1
    32    32    28   ar
    33    25    21   ar
    34     7     2    1
    35    13     8   ar
@<TRIPOS>MOLECULE
*****
 32 35 0 0 0
SMALL
GASTEIGER

@<TRIPOS>ATOM
      1 C          -4.2349  -16.9563   22.7848 C.3     1  UNL1        0.0732
      2 N          -5.3242  -16.4798   23.6995 N.3     1  UNL1       -0.2682
      3 C          -4.9943  -15.5812   24.8543 C.3     1  UNL1        0.1046
      4 C          -6.0836  -15.1048   25.7688 C.3     1  UNL1        0.1598
      5 O          -7.5027  -15.5271   25.5286 O.3     1  UNL1       -0.3489
      6 C          -7.8326  -16.4257   24.3739 C.3     1  UNL1        0.1534
      7 C          -6.7433  -16.9021   23.4593 C.3     1  UNL1        0.1067
      8 C          -9.2518  -16.8480   24.1337 C.ar    1  UNL1        0.0059
      9 C         -10.1482  -16.0093   23.2717 C.ar    1  UNL1       -0.0020
     10 C         -11.5673  -16.4316   23.0315 C.ar    1  UNL1        0.0036
     11 C         -12.0901  -17.6926   23.6533 C.ar    1  UNL1        0.0714
     12 C         -11.1937  -18.5313   24.5152 C.ar    1  UNL1        0.0036
     13 C          -9.7745  -18.1090   24.7554 C.ar    1  UNL1       -0.0020
     14 C         -13.5092  -18.1148   23.4131 C.3     1  UNL1        0.4186
     15 F         -14.9284  -18.5371   23.1729 F       1  UNL1       -0.1659
     16 F         -13.3312  -17.8767   21.9429 F       1  UNL1       -0.1659
     17 F         -13.6872  -18.3530   24.8833 F       1  UNL1       -0.1659
     18 C          -3.1752  -17.8843   23.3003 C.3     1  UNL1        0.0294
     19 C          -2.4525  -18.7969   22.3541 C.3     1  UNL1        0.0666
     20 S          -3.2158  -19.8270   21.5756 S.3     1  UNL1       -0.0756
     21 C          -6.7107  -19.1133   20.0454 C.ar    1  UNL1        0.2029
     22 N          -5.8122  -18.4853   19.0214 N.ar    1  UNL1       -0.1250
     23 N          -4.3936  -18.6762   19.4700 N.ar    1  UNL1       -0.1220
     24 C          -4.4154  -19.4222   20.7712 C.ar    1  UNL1        0.1933
     25 N          -5.8474  -19.6923   21.1268 N.ar    1  UNL1       -0.2860
     26 C          -6.3312  -20.4146   22.3491 C.3     1  UNL1        0.1341
     27 C          -8.5141  -20.9834   18.0705 C.3     1  UNL1        0.0556
     28 C          -9.0383  -20.0145   19.0886 C.ar    1  UNL1        0.1001
     29 N         -10.4834  -19.7351   19.3779 N.ar    1  UNL1       -0.2085
     30 C         -10.5475  -18.7029   20.4644 C.ar    1  UNL1        0.2849
     31 O          -9.1420  -18.3443   20.8466 O.2     1  UNL1       -0.4283
     32 C          -8.2093  -19.1549   19.9964 C.ar    1  UNL1        0.1964
@<TRIPOS>BOND
     1    27    28    1
     2    28    29   ar
     3    29    30   ar
     4    30    31   ar
     5    31    32   ar
     6    32    21    1
     7    21    22   ar
     8    22    23   ar
     9    23    24   ar
    10    24    20    1
    11    20    19    1
    12    19    18    1
    13    18     1    1
    14     1     2    1
    15     2     3    1
    16     3     4    1
    17     4     5    1
    18     5     6    1
    19     6     8    1
    20     8     9   ar
    21     9    10   ar
    22    10    11   ar
    23    11    14    1
    24    14    15    1
    25    14    16    1
    26    14    17    1
    27    11    12   ar
    28    12    13   ar
    29     6     7    1
    30    24    25   ar
    31    25    26    1
    32    32    28   ar
    33    25    21   ar
    34     7     2    1
    35    13     8   ar
@<TRIPOS>MOLECULE
*****
 32 35 0 0 0
SMALL
GASTEIGER

@<TRIPOS>ATOM
      1 C          -3.4984  -17.7767   23.8289 C.3     1  UNL1        0.0732
      2 N          -4.6502  -16.9354   24.2934 N.3     1  UNL1       -0.2682
      3 C          -4.5188  -16.1033   25.5344 C.3     1  UNL1        0.1046
      4 C          -5.6705  -15.2620   25.9988 C.3     1  UNL1        0.1598
      5 O          -6.9538  -15.2529   25.2221 O.3     1  UNL1       -0.3489
      6 C          -7.0852  -16.0850   23.9810 C.3     1  UNL1        0.1534
      7 C          -5.9334  -16.9262   23.5167 C.3     1  UNL1        0.1067
      8 C          -8.3684  -16.0758   23.2043 C.ar    1  UNL1        0.0059
      9 C          -8.3783  -15.6128   21.7776 C.ar    1  UNL1       -0.0020
     10 C          -9.6615  -15.6036   21.0009 C.ar    1  UNL1        0.0036
     11 C         -10.9349  -16.0575   21.6509 C.ar    1  UNL1        0.0714
     12 C         -10.9250  -16.5205   23.0776 C.ar    1  UNL1        0.0036
     13 C          -9.6418  -16.5296   23.8543 C.ar    1  UNL1       -0.0020
     14 C         -12.2181  -16.0483   20.8742 C.3     1  UNL1        0.4186
     15 F         -13.5013  -16.0391   20.0975 F       1  UNL1       -0.1659
     16 F         -11.4639  -15.6748   19.6326 F       1  UNL1       -0.1659
     17 F         -12.9723  -16.4218   22.1158 F       1  UNL1       -0.1659
     18 C          -3.1821  -17.8732   22.3659 C.3     1  UNL1        0.0294
     19 C          -2.7980  -19.1938   21.7671 C.3     1  UNL1        0.0666
     20 S          -3.7346  -19.8913   20.8257 S.3     1  UNL1       -0.0756
     21 C          -7.5591  -19.3697   21.2342 C.ar    1  UNL1        0.2029
     22 N          -7.2467  -18.3849   20.1467 N.ar    1  UNL1       -0.1250
     23 N          -5.7760  -18.4604   19.8614 N.ar    1  UNL1       -0.1220
     24 C          -5.1795  -19.4919   20.7724 C.ar    1  UNL1        0.1933
     25 N          -6.2814  -20.0539   21.6209 N.ar    1  UNL1       -0.2860
     26 C          -6.1321  -21.1140   22.6716 C.3     1  UNL1        0.1341
     27 C         -10.4081  -19.2510   19.6472 C.3     1  UNL1        0.0556
     28 C         -10.2212  -19.5709   21.1007 C.ar    1  UNL1        0.1001
     29 N         -11.3110  -19.8924   22.0800 N.ar    1  UNL1       -0.2085
     30 C         -10.6748  -20.1457   23.4147 C.ar    1  UNL1        0.2849
     31 O          -9.1920  -19.9807   23.2603 O.2     1  UNL1       -0.4283
     32 C          -8.9116  -19.6255   21.8302 C.ar    1  UNL1        0.1964
@<TRIPOS>BOND
     1    27    28    1
     2    28    29   ar
     3    29    30   ar
     4    30    31   ar
     5    31    32   ar
     6    32    21    1
     7    21    22   ar
     8    22    23   ar
     9    23    24   ar
    10    24    20    1
    11    20    19    1
    12    19    18    1
    13    18     1    1
    14     1     2    1
    15     2     3    1
    16     3     4    1
    17     4     5    1
    18     5     6    1
    19     6     8    1
    20     8     9   ar
    21     9    10   ar
    22    10    11   ar
    23    11    14    1
    24    14    15    1
    25    14    16    1
    26    14    17    1
    27    11    12   ar
    28    12    13   ar
    29     6     7    1
    30    24    25   ar
    31    25    26    1
    32    32    28   ar
    33    25    21   ar
    34     7     2    1
    35    13     8   ar
@<TRIPOS>MOLECULE
*****
 32 35 0 0 0
SMALL
GASTEIGER

@<TRIPOS>ATOM
      1 C           8.5854   -8.7685   27.5729 C.3     1  UNL1        0.0732
      2 N           8.2985  -10.2278   27.7688 N.3     1  UNL1       -0.2682
      3 C           9.4300  -11.2046   27.8928 C.3     1  UNL1        0.1046
      4 C           9.1431  -12.6637   28.0887 C.3     1  UNL1        0.1598
      5 O           7.7246  -13.1461   28.1606 O.3     1  UNL1       -0.3489
      6 C           6.5930  -12.1693   28.0367 C.3     1  UNL1        0.1534
      7 C           6.8800  -10.7101   27.8408 C.3     1  UNL1        0.1067
      8 C           5.1745  -12.6517   28.1086 C.ar    1  UNL1        0.0059
      9 C           4.6464  -13.5869   27.0615 C.ar    1  UNL1       -0.0020
     10 C           3.2279  -14.0692   27.1334 C.ar    1  UNL1        0.0036
     11 C           2.3375  -13.6164   28.2525 C.ar    1  UNL1        0.0714
     12 C           2.8657  -12.6813   29.2995 C.ar    1  UNL1        0.0036
     13 C           4.2842  -12.1989   29.2276 C.ar    1  UNL1       -0.0020
     14 C           0.9190  -14.0988   28.3244 C.3     1  UNL1        0.4186
     15 F          -0.4995  -14.5812   28.3963 F       1  UNL1       -0.1659
     16 F           1.3672  -15.4752   27.9311 F       1  UNL1       -0.1659
     17 F           0.4709  -12.7224   28.7177 F       1  UNL1       -0.1659
     18 C           9.3114   -7.9976   28.6353 C.3     1  UNL1        0.0294
     19 C           9.0582   -6.5285   28.8013 C.3     1  UNL1        0.0666
     20 S           7.6517   -6.0156   28.8948 S.3     1  UNL1       -0.0756
     21 C           6.2376   -3.9292   31.8465 C.ar    1  UNL1        0.2029
     22 N           6.4815   -5.2496   32.5154 N.ar    1  UNL1       -0.1250
     23 N           7.0409   -6.1918   31.4911 N.ar    1  UNL1       -0.1220
     24 C           7.1428   -5.4539   30.1891 C.ar    1  UNL1        0.1933
     25 N           6.6463   -4.0556   30.4088 N.ar    1  UNL1       -0.2860
     26 C           6.5717   -2.9735   29.3727 C.3     1  UNL1        0.1341
     27 C           7.9600   -1.3401   32.8362 C.3     1  UNL1        0.0556
     28 C           6.4743   -1.5086   32.9554 C.ar    1  UNL1        0.1001
     29 N           5.5194   -0.5167   33.5505 N.ar    1  UNL1       -0.2085
     30 C           4.1375   -1.0938   33.4634 C.ar    1  UNL1        0.2849
     31 O           4.2384   -2.4423   32.8145 O.2     1  UNL1       -0.4283
     32 C           5.6826   -2.6988   32.5005 C.ar    1  UNL1        0.1964
@<TRIPOS>BOND
     1    27    28    1
     2    28    29   ar
     3    29    30   ar
     4    30    31   ar
     5    31    32   ar
     6    32    21    1
     7    21    22   ar
     8    22    23   ar
     9    23    24   ar
    10    24    20    1
    11    20    19    1
    12    19    18    1
    13    18     1    1
    14     1     2    1
    15     2     3    1
    16     3     4    1
    17     4     5    1
    18     5     6    1
    19     6     8    1
    20     8     9   ar
    21     9    10   ar
    22    10    11   ar
    23    11    14    1
    24    14    15    1
    25    14    16    1
    26    14    17    1
    27    11    12   ar
    28    12    13   ar
    29     6     7    1
    30    24    25   ar
    31    25    26    1
    32    32    28   ar
    33    25    21   ar
    34     7     2    1
    35    13     8   ar
@<TRIPOS>MOLECULE
*****
 32 35 0 0 0
SMALL
GASTEIGER

@<TRIPOS>ATOM
      1 C          -3.9920  -17.3210   24.8698 C.3     1  UNL1        0.0732
      2 N          -3.6832  -18.0113   23.5743 N.3     1  UNL1       -0.2682
      3 C          -2.2580  -18.2001   23.1462 C.3     1  UNL1        0.1046
      4 C          -1.9493  -18.8905   21.8509 C.3     1  UNL1        0.1598
      5 O          -3.0656  -19.3920   20.9836 O.3     1  UNL1       -0.3489
      6 C          -4.4908  -19.2032   21.4117 C.3     1  UNL1        0.1534
      7 C          -4.7995  -18.5129   22.7070 C.3     1  UNL1        0.1067
      8 C          -5.6071  -19.7047   20.5444 C.ar    1  UNL1        0.0059
      9 C          -6.7162  -18.7795   20.1397 C.ar    1  UNL1       -0.0020
     10 C          -7.8326  -19.2810   19.2724 C.ar    1  UNL1        0.0036
     11 C          -7.8399  -20.7078   18.8098 C.ar    1  UNL1        0.0714
     12 C          -6.7308  -21.6331   19.2144 C.ar    1  UNL1        0.0036
     13 C          -5.6144  -21.1315   20.0817 C.ar    1  UNL1       -0.0020
     14 C          -8.9562  -21.2093   17.9425 C.3     1  UNL1        0.4186
     15 F         -10.0726  -21.7109   17.0752 F       1  UNL1       -0.1659
     16 F          -8.0574  -22.2843   17.4072 F       1  UNL1       -0.1659
     17 F          -9.8550  -20.1344   18.4778 F       1  UNL1       -0.1659
     18 C          -4.5756  -15.9392   24.8627 C.3     1  UNL1        0.0294
     19 C          -5.5673  -15.5385   25.9145 C.3     1  UNL1        0.0666
     20 S          -6.9567  -15.1337   25.5199 S.3     1  UNL1       -0.0756
     21 C          -8.8967  -16.8573   22.6335 C.ar    1  UNL1        0.2029
     22 N          -8.0040  -15.9264   21.8675 N.ar    1  UNL1       -0.1250
     23 N          -7.1686  -15.1675   22.8556 N.ar    1  UNL1       -0.1220
     24 C          -7.5450  -15.6293   24.2322 C.ar    1  UNL1        0.1933
     25 N          -8.6130  -16.6736   24.0950 N.ar    1  UNL1       -0.2860
     26 C          -9.2801  -17.4057   25.2214 C.3     1  UNL1        0.1341
     27 C          -8.8577  -20.1083   22.9141 C.3     1  UNL1        0.0556
     28 C          -9.8794  -19.2997   22.1710 C.ar    1  UNL1        0.1001
     29 N         -11.0625  -19.8434   21.4263 N.ar    1  UNL1       -0.2085
     30 C         -11.8116  -18.6849   20.8371 C.ar    1  UNL1        0.2849
     31 O         -11.0914  -17.4254   21.2176 O.2     1  UNL1       -0.4283
     32 C          -9.8973  -17.8053   22.0420 C.ar    1  UNL1        0.1964
@<TRIPOS>BOND
     1    27    28    1
     2    28    29   ar
     3    29    30   ar
     4    30    31   ar
     5    31    32   ar
     6    32    21    1
     7    21    22   ar
     8    22    23   ar
     9    23    24   ar
    10    24    20    1
    11    20    19    1
    12    19    18    1
    13    18     1    1
    14     1     2    1
    15     2     3    1
    16     3     4    1
    17     4     5    1
    18     5     6    1
    19     6     8    1
    20     8     9   ar
    21     9    10   ar
    22    10    11   ar
    23    11    14    1
    24    14    15    1
    25    14    16    1
    26    14    17    1
    27    11    12   ar
    28    12    13   ar
    29     6     7    1
    30    24    25   ar
    31    25    26    1
    32    32    28   ar
    33    25    21   ar
    34     7     2    1
    35    13     8   ar
@<TRIPOS>MOLECULE
*****
 32 35 0 0 0
SMALL
GASTEIGER

@<TRIPOS>ATOM
      1 C          -5.4891  -15.0969   25.0120 C.3     1  UNL1        0.0732
      2 N          -5.0806  -16.3381   24.2754 N.3     1  UNL1       -0.2682
      3 C          -3.7619  -16.9876   24.5739 C.3     1  UNL1        0.1046
      4 C          -3.3534  -18.2288   23.8373 C.3     1  UNL1        0.1598
      5 O          -4.2636  -18.8204   22.8022 O.3     1  UNL1       -0.3489
      6 C          -5.5823  -18.1709   22.5036 C.3     1  UNL1        0.1534
      7 C          -5.9908  -16.9297   23.2402 C.3     1  UNL1        0.1067
      8 C          -6.4925  -18.7625   21.4685 C.ar    1  UNL1        0.0059
      9 C          -7.9297  -19.0342   21.8007 C.ar    1  UNL1       -0.0020
     10 C          -8.8399  -19.6258   20.7656 C.ar    1  UNL1        0.0036
     11 C          -8.3129  -19.9458   19.3982 C.ar    1  UNL1        0.0714
     12 C          -6.8756  -19.6742   19.0660 C.ar    1  UNL1        0.0036
     13 C          -5.9654  -19.0825   20.1011 C.ar    1  UNL1       -0.0020
     14 C          -9.2231  -20.5375   18.3631 C.3     1  UNL1        0.4186
     15 F         -10.1332  -21.1291   17.3280 F       1  UNL1       -0.1659
     16 F         -10.2394  -19.4715   18.6475 F       1  UNL1       -0.1659
     17 F          -8.2067  -21.6034   18.0787 F       1  UNL1       -0.1659
     18 C          -5.8617  -15.1741   26.4629 C.3     1  UNL1        0.0294
     19 C          -6.6028  -16.3696   26.9843 C.3     1  UNL1        0.0666
     20 S          -8.0991  -16.3394   27.0845 S.3     1  UNL1       -0.0756
     21 C         -10.1759  -17.2364   23.9305 C.ar    1  UNL1        0.2029
     22 N         -10.2715  -18.5125   24.7132 N.ar    1  UNL1       -0.1250
     23 N          -9.5051  -18.3318   25.9899 N.ar    1  UNL1       -0.1220
     24 C          -8.9359  -16.9440   25.9963 C.ar    1  UNL1        0.1933
     25 N          -9.3505  -16.2670   24.7236 N.ar    1  UNL1       -0.2860
     26 C          -9.0010  -14.8666   24.3155 C.3     1  UNL1        0.1341
     27 C         -13.2946  -17.7622   23.1263 C.3     1  UNL1        0.0556
     28 C         -12.2303  -17.2172   22.2206 C.ar    1  UNL1        0.1001
     29 N         -12.4127  -16.8183   20.7861 N.ar    1  UNL1       -0.2085
     30 C         -11.0918  -16.3300   20.2693 C.ar    1  UNL1        0.2849
     31 O         -10.0931  -16.4273   21.3843 O.2     1  UNL1       -0.4283
     32 C         -10.7968  -16.9756   22.5902 C.ar    1  UNL1        0.1964
@<TRIPOS>BOND
     1    27    28    1
     2    28    29   ar
     3    29    30   ar
     4    30    31   ar
     5    31    32   ar
     6    32    21    1
     7    21    22   ar
     8    22    23   ar
     9    23    24   ar
    10    24    20    1
    11    20    19    1
    12    19    18    1
    13    18     1    1
    14     1     2    1
    15     2     3    1
    16     3     4    1
    17     4     5    1
    18     5     6    1
    19     6     8    1
    20     8     9   ar
    21     9    10   ar
    22    10    11   ar
    23    11    14    1
    24    14    15    1
    25    14    16    1
    26    14    17    1
    27    11    12   ar
    28    12    13   ar
    29     6     7    1
    30    24    25   ar
    31    25    26    1
    32    32    28   ar
    33    25    21   ar
    34     7     2    1
    35    13     8   ar
