@<TRIPOS>MOLECULE
*****
 22 24 0 0 0
SMALL
GASTEIGER

@<TRIPOS>ATOM
      1 N          -6.8927  -19.5655   20.8428 N.3     1  UNL1       -0.2647
      2 C          -7.8231  -19.9240   19.7221 C.3     1  UNL1        0.1049
      3 C          -9.1277  -19.1997   19.5696 C.3     1  UNL1        0.1594
      4 O          -9.5020  -18.1168   20.5377 O.3     1  UNL1       -0.3533
      5 C          -8.5717  -17.7583   21.6584 C.3     1  UNL1        0.1315
      6 C          -7.2670  -18.4827   21.8110 C.3     1  UNL1        0.1023
      7 C          -5.5881  -20.2899   20.9954 C.3     1  UNL1        0.0993
      8 CL         -0.4163  -17.3588   20.1826 Cl      1  UNL1       -0.0822
      9 C          -1.7093  -18.0915   20.3858 C.ar    1  UNL1        0.0577
     10 C          -2.6770  -18.2345   19.2488 C.ar    1  UNL1        0.0111
     11 C          -3.9700  -18.9673   19.4520 C.ar    1  UNL1       -0.0021
     12 C          -4.2952  -19.5571   20.7922 C.ar    1  UNL1       -0.0061
     13 C          -3.3274  -19.4142   21.9292 C.ar    1  UNL1       -0.0021
     14 C          -2.0344  -18.6814   21.7261 C.ar    1  UNL1        0.0111
     15 C          -8.9460  -16.6754   22.6265 C.3     1  UNL1        0.0357
     16 C          -7.9266  -15.6573   23.0439 C.3     1  UNL1        0.0289
     17 C          -7.5210  -15.5487   24.4839 C.ar    1  UNL1       -0.0221
     18 C          -8.5660  -15.5556   25.5600 C.ar    1  UNL1       -0.0043
     19 C          -8.1603  -15.4470   27.0000 C.ar    1  UNL1       -0.0003
     20 C          -6.7096  -15.3316   27.3639 C.ar    1  UNL1       -0.0000
     21 C          -5.6647  -15.3247   26.2878 C.ar    1  UNL1       -0.0003
     22 C          -6.0704  -15.4333   24.8478 C.ar    1  UNL1       -0.0043
@<TRIPOS>BOND
     1     8     9    1
     2     9    10   ar
     3    10    11   ar
     4    11    12   ar
     5    12     7    1
     6     7     1    1
     7     1     2    1
     8     2     3    1
     9     3     4    1
    10     4     5    1
    11     5    15    1
    12    15    16    1
    13    16    17    1
    14    17    18   ar
    15    18    19   ar
    16    19    20   ar
    17    20    21   ar
    18    21    22   ar
    19     5     6    1
    20    12    13   ar
    21    13    14   ar
    22    14     9   ar
    23     6     1    1
    24    22    17   ar
@<TRIPOS>MOLECULE
*****
 22 24 0 0 0
SMALL
GASTEIGER

@<TRIPOS>ATOM
      1 N          -7.4088  -19.6658   22.3102 N.3     1  UNL1       -0.2647
      2 C          -8.5514  -20.2972   23.0492 C.3     1  UNL1        0.1049
      3 C          -9.7043  -19.4549   23.5088 C.3     1  UNL1        0.1594
      4 O          -9.7147  -17.9812   23.2295 O.3     1  UNL1       -0.3533
      5 C          -8.5722  -17.3498   22.4906 C.3     1  UNL1        0.1315
      6 C          -7.4192  -18.1921   22.0309 C.3     1  UNL1        0.1023
      7 C          -6.2559  -20.5081   21.8506 C.3     1  UNL1        0.0993
      8 CL         -1.1200  -17.9024   20.1675 Cl      1  UNL1       -0.0822
      9 C          -2.4039  -18.5539   20.5883 C.ar    1  UNL1        0.0577
     10 C          -2.7210  -18.7147   22.0455 C.ar    1  UNL1        0.0111
     11 C          -4.0050  -19.3661   22.4663 C.ar    1  UNL1       -0.0021
     12 C          -4.9719  -19.8567   21.4299 C.ar    1  UNL1       -0.0061
     13 C          -4.6549  -19.6959   19.9726 C.ar    1  UNL1       -0.0021
     14 C          -3.3709  -19.0445   19.5519 C.ar    1  UNL1        0.0111
     15 C          -8.5827  -15.8760   22.2113 C.3     1  UNL1        0.0357
     16 C          -7.6477  -14.9658   22.9511 C.3     1  UNL1        0.0289
     17 C          -7.3718  -15.1969   24.4073 C.ar    1  UNL1       -0.0221
     18 C          -5.9584  -15.3370   24.8899 C.ar    1  UNL1       -0.0043
     19 C          -5.6825  -15.5680   26.3461 C.ar    1  UNL1       -0.0003
     20 C          -6.8200  -15.6590   27.3197 C.ar    1  UNL1       -0.0000
     21 C          -8.2333  -15.5189   26.8372 C.ar    1  UNL1       -0.0003
     22 C          -8.5092  -15.2878   25.3810 C.ar    1  UNL1       -0.0043
@<TRIPOS>BOND
     1     8     9    1
     2     9    10   ar
     3    10    11   ar
     4    11    12   ar
     5    12     7    1
     6     7     1    1
     7     1     2    1
     8     2     3    1
     9     3     4    1
    10     4     5    1
    11     5    15    1
    12    15    16    1
    13    16    17    1
    14    17    18   ar
    15    18    19   ar
    16    19    20   ar
    17    20    21   ar
    18    21    22   ar
    19     5     6    1
    20    12    13   ar
    21    13    14   ar
    22    14     9   ar
    23     6     1    1
    24    22    17   ar
@<TRIPOS>MOLECULE
*****
 22 24 0 0 0
SMALL
GASTEIGER

@<TRIPOS>ATOM
      1 N          -6.0324  -19.3381   21.3653 N.3     1  UNL1       -0.2647
      2 C          -4.8815  -20.1105   20.7919 C.3     1  UNL1        0.1049
      3 C          -3.4812  -19.8131   21.2399 C.3     1  UNL1        0.1594
      4 O          -3.2318  -18.7431   22.2612 O.3     1  UNL1       -0.3533
      5 C          -4.3827  -17.9707   22.8345 C.3     1  UNL1        0.1315
      6 C          -5.7830  -18.2682   22.3866 C.3     1  UNL1        0.1023
      7 C          -7.4327  -19.6355   20.9173 C.3     1  UNL1        0.0993
      8 CL        -12.0470  -18.6053   24.6115 Cl      1  UNL1       -0.0822
      9 C         -10.8934  -18.8629   23.6880 C.ar    1  UNL1        0.0577
     10 C          -9.9050  -19.9452   24.0063 C.ar    1  UNL1        0.0111
     11 C          -8.7514  -20.2028   23.0828 C.ar    1  UNL1       -0.0021
     12 C          -8.5863  -19.3780   21.8409 C.ar    1  UNL1       -0.0061
     13 C          -9.5747  -18.2956   21.5225 C.ar    1  UNL1       -0.0021
     14 C         -10.7283  -18.0381   22.4461 C.ar    1  UNL1        0.0111
     15 C          -4.1333  -16.9008   23.8559 C.3     1  UNL1        0.0357
     16 C          -5.0173  -15.6901   23.9049 C.3     1  UNL1        0.0289
     17 C          -6.1239  -15.6098   24.9145 C.ar    1  UNL1       -0.0221
     18 C          -5.8006  -15.4477   26.3703 C.ar    1  UNL1       -0.0043
     19 C          -6.9071  -15.3674   27.3798 C.ar    1  UNL1       -0.0003
     20 C          -8.3369  -15.4493   26.9335 C.ar    1  UNL1       -0.0000
     21 C          -8.6601  -15.6113   25.4778 C.ar    1  UNL1       -0.0003
     22 C          -7.5536  -15.6916   24.4683 C.ar    1  UNL1       -0.0043
@<TRIPOS>BOND
     1     8     9    1
     2     9    10   ar
     3    10    11   ar
     4    11    12   ar
     5    12     7    1
     6     7     1    1
     7     1     2    1
     8     2     3    1
     9     3     4    1
    10     4     5    1
    11     5    15    1
    12    15    16    1
    13    16    17    1
    14    17    18   ar
    15    18    19   ar
    16    19    20   ar
    17    20    21   ar
    18    21    22   ar
    19     5     6    1
    20    12    13   ar
    21    13    14   ar
    22    14     9   ar
    23     6     1    1
    24    22    17   ar
@<TRIPOS>MOLECULE
*****
 22 24 0 0 0
SMALL
GASTEIGER

@<TRIPOS>ATOM
      1 N          -8.9280  -18.3136   20.9332 N.3     1  UNL1       -0.2647
      2 C          -9.6096  -18.9120   19.7385 C.3     1  UNL1        0.1049
      3 C          -8.9346  -19.9995   18.9564 C.3     1  UNL1        0.1594
      4 O          -7.5779  -20.4886   19.3690 O.3     1  UNL1       -0.3533
      5 C          -6.8963  -19.8902   20.5637 C.3     1  UNL1        0.1315
      6 C          -7.5713  -18.8027   21.3458 C.3     1  UNL1        0.1023
      7 C          -9.6030  -17.2261   21.7153 C.3     1  UNL1        0.0993
      8 CL        -14.3656  -18.5030   25.1341 Cl      1  UNL1       -0.0822
      9 C         -13.1749  -18.1838   24.2794 C.ar    1  UNL1        0.0577
     10 C         -13.3258  -17.2834   23.0892 C.ar    1  UNL1        0.0111
     11 C         -12.1352  -16.9642   22.2345 C.ar    1  UNL1       -0.0021
     12 C         -10.7937  -17.5453   22.5700 C.ar    1  UNL1       -0.0061
     13 C         -10.6428  -18.4457   23.7602 C.ar    1  UNL1       -0.0021
     14 C         -11.8334  -18.7649   24.6149 C.ar    1  UNL1        0.0111
     15 C          -5.5396  -20.3793   20.9763 C.3     1  UNL1        0.0357
     16 C          -4.3597  -20.1670   20.0748 C.3     1  UNL1        0.0289
     17 C          -3.4019  -19.0446   20.3448 C.ar    1  UNL1       -0.0221
     18 C          -3.3684  -18.3962   21.6971 C.ar    1  UNL1       -0.0043
     19 C          -2.4106  -17.2738   21.9671 C.ar    1  UNL1       -0.0003
     20 C          -1.4864  -16.7998   20.8848 C.ar    1  UNL1       -0.0000
     21 C          -1.5200  -17.4481   19.5326 C.ar    1  UNL1       -0.0003
     22 C          -2.4778  -18.5705   19.2626 C.ar    1  UNL1       -0.0043
@<TRIPOS>BOND
     1     8     9    1
     2     9    10   ar
     3    10    11   ar
     4    11    12   ar
     5    12     7    1
     6     7     1    1
     7     1     2    1
     8     2     3    1
     9     3     4    1
    10     4     5    1
    11     5    15    1
    12    15    16    1
    13    16    17    1
    14    17    18   ar
    15    18    19   ar
    16    19    20   ar
    17    20    21   ar
    18    21    22   ar
    19     5     6    1
    20    12    13   ar
    21    13    14   ar
    22    14     9   ar
    23     6     1    1
    24    22    17   ar
@<TRIPOS>MOLECULE
*****
 22 24 0 0 0
SMALL
GASTEIGER

@<TRIPOS>ATOM
      1 N          -4.1438  -17.0159   22.8725 N.3     1  UNL1       -0.2647
      2 C          -2.6971  -17.3750   22.7039 C.3     1  UNL1        0.1049
      3 C          -2.3170  -18.7125   22.1412 C.3     1  UNL1        0.1594
      4 O          -3.3834  -19.6909   21.7471 O.3     1  UNL1       -0.3533
      5 C          -4.8300  -19.3319   21.9157 C.3     1  UNL1        0.1315
      6 C          -5.2102  -17.9944   22.4784 C.3     1  UNL1        0.1023
      7 C          -4.5239  -15.6785   23.4352 C.3     1  UNL1        0.0993
      8 CL         -8.7572  -15.2988   27.6702 Cl      1  UNL1       -0.0822
      9 C          -7.6989  -15.3937   26.6114 C.ar    1  UNL1        0.0577
     10 C          -6.2630  -15.5844   27.0012 C.ar    1  UNL1        0.0111
     11 C          -5.2047  -15.6793   25.9425 C.ar    1  UNL1       -0.0021
     12 C          -5.5822  -15.5836   24.4939 C.ar    1  UNL1       -0.0061
     13 C          -7.0181  -15.3929   24.1042 C.ar    1  UNL1       -0.0021
     14 C          -8.0764  -15.2980   25.1629 C.ar    1  UNL1        0.0111
     15 C          -5.8964  -20.3104   21.5216 C.3     1  UNL1        0.0357
     16 C          -6.7709  -20.0295   20.3357 C.3     1  UNL1        0.0289
     17 C          -8.2096  -19.6557   20.5365 C.ar    1  UNL1       -0.0221
     18 C          -9.1406  -19.5987   19.3617 C.ar    1  UNL1       -0.0043
     19 C         -10.5794  -19.2249   19.5625 C.ar    1  UNL1       -0.0003
     20 C         -11.0871  -18.9082   20.9380 C.ar    1  UNL1       -0.0000
     21 C         -10.1561  -18.9652   22.1127 C.ar    1  UNL1       -0.0003
     22 C          -8.7173  -19.3390   21.9119 C.ar    1  UNL1       -0.0043
@<TRIPOS>BOND
     1     8     9    1
     2     9    10   ar
     3    10    11   ar
     4    11    12   ar
     5    12     7    1
     6     7     1    1
     7     1     2    1
     8     2     3    1
     9     3     4    1
    10     4     5    1
    11     5    15    1
    12    15    16    1
    13    16    17    1
    14    17    18   ar
    15    18    19   ar
    16    19    20   ar
    17    20    21   ar
    18    21    22   ar
    19     5     6    1
    20    12    13   ar
    21    13    14   ar
    22    14     9   ar
    23     6     1    1
    24    22    17   ar
@<TRIPOS>MOLECULE
*****
 22 24 0 0 0
SMALL
GASTEIGER

@<TRIPOS>ATOM
      1 N          -8.8601  -17.5390   21.3313 N.3     1  UNL1       -0.2647
      2 C          -9.9173  -18.0567   20.4015 C.3     1  UNL1        0.1049
      3 C          -9.7089  -19.3532   19.6765 C.3     1  UNL1        0.1594
      4 O          -8.4434  -20.1321   19.8812 O.3     1  UNL1       -0.3533
      5 C          -7.3863  -19.6144   20.8110 C.3     1  UNL1        0.1315
      6 C          -7.5946  -18.3179   21.5360 C.3     1  UNL1        0.1023
      7 C          -9.0685  -16.2425   22.0563 C.3     1  UNL1        0.0993
      8 CL         -6.5558  -15.3757   27.4354 Cl      1  UNL1       -0.0822
      9 C          -7.1840  -15.5924   26.0906 C.ar    1  UNL1        0.0577
     10 C          -6.4716  -15.1442   24.8491 C.ar    1  UNL1        0.0111
     11 C          -7.0997  -15.3609   23.5043 C.ar    1  UNL1       -0.0021
     12 C          -8.4403  -16.0258   23.4010 C.ar    1  UNL1       -0.0061
     13 C          -9.1527  -16.4740   24.6426 C.ar    1  UNL1       -0.0021
     14 C          -8.5246  -16.2573   25.9874 C.ar    1  UNL1        0.0111
     15 C          -6.1208  -20.3933   21.0158 C.3     1  UNL1        0.0357
     16 C          -4.8901  -20.0440   20.2326 C.3     1  UNL1        0.0289
     17 C          -3.9593  -18.9796   20.7335 C.ar    1  UNL1       -0.0221
     18 C          -3.0100  -18.3072   19.7866 C.ar    1  UNL1       -0.0043
     19 C          -2.0793  -17.2428   20.2874 C.ar    1  UNL1       -0.0003
     20 C          -2.0978  -16.8510   21.7353 C.ar    1  UNL1       -0.0000
     21 C          -3.0470  -17.5235   22.6822 C.ar    1  UNL1       -0.0003
     22 C          -3.9778  -18.5878   22.1813 C.ar    1  UNL1       -0.0043
@<TRIPOS>BOND
     1     8     9    1
     2     9    10   ar
     3    10    11   ar
     4    11    12   ar
     5    12     7    1
     6     7     1    1
     7     1     2    1
     8     2     3    1
     9     3     4    1
    10     4     5    1
    11     5    15    1
    12    15    16    1
    13    16    17    1
    14    17    18   ar
    15    18    19   ar
    16    19    20   ar
    17    20    21   ar
    18    21    22   ar
    19     5     6    1
    20    12    13   ar
    21    13    14   ar
    22    14     9   ar
    23     6     1    1
    24    22    17   ar
@<TRIPOS>MOLECULE
*****
 22 24 0 0 0
SMALL
GASTEIGER

@<TRIPOS>ATOM
      1 N          -6.7665  -20.1100   20.6410 N.3     1  UNL1       -0.2647
      2 C          -6.6033  -21.2356   19.6629 C.3     1  UNL1        0.1049
      3 C          -7.6975  -21.5431   18.6840 C.3     1  UNL1        0.1594
      4 O          -8.9549  -20.7252   18.6833 O.3     1  UNL1       -0.3533
      5 C          -9.1181  -19.5997   19.6613 C.3     1  UNL1        0.1315
      6 C          -8.0238  -19.2921   20.6402 C.3     1  UNL1        0.1023
      7 C          -5.6723  -19.8025   21.6198 C.3     1  UNL1        0.0993
      8 CL         -0.3257  -17.9227   19.6499 Cl      1  UNL1       -0.0822
      9 C          -1.6624  -18.3926   20.1423 C.ar    1  UNL1        0.0577
     10 C          -1.8289  -18.8147   21.5720 C.ar    1  UNL1        0.0111
     11 C          -3.1655  -19.2847   22.0645 C.ar    1  UNL1       -0.0021
     12 C          -4.3357  -19.3326   21.1273 C.ar    1  UNL1       -0.0061
     13 C          -4.1692  -18.9104   19.6976 C.ar    1  UNL1       -0.0021
     14 C          -2.8325  -18.4405   19.2051 C.ar    1  UNL1        0.0111
     15 C         -10.3754  -18.7817   19.6606 C.3     1  UNL1        0.0357
     16 C         -10.5675  -17.7006   20.6824 C.3     1  UNL1        0.0289
     17 C         -11.2977  -17.9961   21.9588 C.ar    1  UNL1       -0.0221
     18 C         -10.6017  -18.7259   23.0693 C.ar    1  UNL1       -0.0043
     19 C         -11.3319  -19.0215   24.3458 C.ar    1  UNL1       -0.0003
     20 C         -12.7582  -18.5872   24.5118 C.ar    1  UNL1       -0.0000
     21 C         -13.4540  -17.8575   23.4014 C.ar    1  UNL1       -0.0003
     22 C         -12.7238  -17.5620   22.1249 C.ar    1  UNL1       -0.0043
@<TRIPOS>BOND
     1     8     9    1
     2     9    10   ar
     3    10    11   ar
     4    11    12   ar
     5    12     7    1
     6     7     1    1
     7     1     2    1
     8     2     3    1
     9     3     4    1
    10     4     5    1
    11     5    15    1
    12    15    16    1
    13    16    17    1
    14    17    18   ar
    15    18    19   ar
    16    19    20   ar
    17    20    21   ar
    18    21    22   ar
    19     5     6    1
    20    12    13   ar
    21    13    14   ar
    22    14     9   ar
    23     6     1    1
    24    22    17   ar
@<TRIPOS>MOLECULE
*****
 22 24 0 0 0
SMALL
GASTEIGER

@<TRIPOS>ATOM
      1 N          -8.9215  -19.1061   21.3754 N.3     1  UNL1       -0.2647
      2 C          -9.8984  -20.2063   21.6669 C.3     1  UNL1        0.1049
      3 C         -10.9426  -20.0206   22.7277 C.3     1  UNL1        0.1594
      4 O         -11.0098  -18.7347   23.4969 O.3     1  UNL1       -0.3533
      5 C         -10.0329  -17.6344   23.2054 C.3     1  UNL1        0.1315
      6 C          -8.9887  -17.8201   22.1446 C.3     1  UNL1        0.1023
      7 C          -7.8773  -19.2918   20.3146 C.3     1  UNL1        0.0993
      8 CL         -2.0604  -19.2065   21.7831 Cl      1  UNL1       -0.0822
      9 C          -3.5147  -19.2278   21.4159 C.ar    1  UNL1        0.0577
     10 C          -4.5554  -19.3921   22.4836 C.ar    1  UNL1        0.0111
     11 C          -6.0096  -19.4135   22.1164 C.ar    1  UNL1       -0.0021
     12 C          -6.4231  -19.2704   20.6817 C.ar    1  UNL1       -0.0061
     13 C          -5.3824  -19.1061   19.6141 C.ar    1  UNL1       -0.0021
     14 C          -3.9282  -19.0848   19.9812 C.ar    1  UNL1        0.0111
     15 C         -10.1001  -16.3484   23.9747 C.3     1  UNL1        0.0357
     16 C          -9.0045  -15.3333   23.8359 C.3     1  UNL1        0.0289
     17 C          -7.7724  -15.4387   24.6850 C.ar    1  UNL1       -0.0221
     18 C          -7.8971  -15.5871   26.1725 C.ar    1  UNL1       -0.0043
     19 C          -6.6650  -15.6925   27.0215 C.ar    1  UNL1       -0.0003
     20 C          -5.3083  -15.6495   26.3831 C.ar    1  UNL1       -0.0000
     21 C          -5.1837  -15.5011   24.8957 C.ar    1  UNL1       -0.0003
     22 C          -6.4158  -15.3957   24.0467 C.ar    1  UNL1       -0.0043
@<TRIPOS>BOND
     1     8     9    1
     2     9    10   ar
     3    10    11   ar
     4    11    12   ar
     5    12     7    1
     6     7     1    1
     7     1     2    1
     8     2     3    1
     9     3     4    1
    10     4     5    1
    11     5    15    1
    12    15    16    1
    13    16    17    1
    14    17    18   ar
    15    18    19   ar
    16    19    20   ar
    17    20    21   ar
    18    21    22   ar
    19     5     6    1
    20    12    13   ar
    21    13    14   ar
    22    14     9   ar
    23     6     1    1
    24    22    17   ar
@<TRIPOS>MOLECULE
*****
 22 24 0 0 0
SMALL
GASTEIGER

@<TRIPOS>ATOM
      1 N         -14.2138   -7.2342   18.7327 N.3     1  UNL1       -0.2647
      2 C         -15.4159   -8.1311   18.7097 C.3     1  UNL1        0.1049
      3 C         -16.7423   -7.6199   19.1885 C.3     1  UNL1        0.1594
      4 O         -16.8667   -6.2118   19.6904 O.3     1  UNL1       -0.3533
      5 C         -15.6646   -5.3149   19.7134 C.3     1  UNL1        0.1315
      6 C         -14.3381   -5.8261   19.2345 C.3     1  UNL1        0.1023
      7 C         -12.8874   -7.7453   18.2538 C.3     1  UNL1        0.0993
      8 CL         -8.6948   -3.8943   16.3585 Cl      1  UNL1       -0.0822
      9 C          -9.7430   -4.8571   16.8324 C.ar    1  UNL1        0.0577
     10 C          -9.5865   -5.5444   18.1564 C.ar    1  UNL1        0.0111
     11 C         -10.6346   -6.5071   18.6302 C.ar    1  UNL1       -0.0021
     12 C         -11.8393   -6.7826   17.7800 C.ar    1  UNL1       -0.0061
     13 C         -11.9958   -6.0953   16.4560 C.ar    1  UNL1       -0.0021
     14 C         -10.9476   -5.1326   15.9822 C.ar    1  UNL1        0.0111
     15 C         -15.7889   -3.9068   20.2152 C.3     1  UNL1        0.0357
     16 C         -14.5768   -3.1797   20.7171 C.3     1  UNL1        0.0289
     17 C         -13.7110   -2.4152   19.7599 C.ar    1  UNL1       -0.0221
     18 C         -12.2946   -2.8472   19.5207 C.ar    1  UNL1       -0.0043
     19 C         -11.4288   -2.0828   18.5636 C.ar    1  UNL1       -0.0003
     20 C         -11.9795   -0.8863   17.8457 C.ar    1  UNL1       -0.0000
     21 C         -13.3959   -0.4544   18.0849 C.ar    1  UNL1       -0.0003
     22 C         -14.2616   -1.2188   19.0421 C.ar    1  UNL1       -0.0043
@<TRIPOS>BOND
     1     8     9    1
     2     9    10   ar
     3    10    11   ar
     4    11    12   ar
     5    12     7    1
     6     7     1    1
     7     1     2    1
     8     2     3    1
     9     3     4    1
    10     4     5    1
    11     5    15    1
    12    15    16    1
    13    16    17    1
    14    17    18   ar
    15    18    19   ar
    16    19    20   ar
    17    20    21   ar
    18    21    22   ar
    19     5     6    1
    20    12    13   ar
    21    13    14   ar
    22    14     9   ar
    23     6     1    1
    24    22    17   ar
