@<TRIPOS>MOLECULE
*****
 43 48 0 0 0
SMALL
GASTEIGER

@<TRIPOS>ATOM
      1 N           4.6260   -1.0897   18.4668 N.3     1  UNL1       -0.2688
      2 C           4.7014   -0.5424   19.8614 C.3     1  UNL1        0.0741
      3 C           3.7142    0.4915   20.3157 C.3     1  UNL1        0.0372
      4 C           2.6516    0.9781   19.3754 C.3     1  UNL1        0.0799
      5 C           2.5762    0.4308   17.9809 C.3     1  UNL1        0.0372
      6 C           3.5634   -0.6031   17.5266 C.3     1  UNL1        0.0741
      7 N           1.6643    2.0120   19.8297 N.am    1  UNL1       -0.2618
      8 C           0.3129    1.7408   20.4214 C.2     1  UNL1        0.3074
      9 O          -0.2885    0.3881   20.6628 O.2     1  UNL1       -0.2523
     10 N          -0.3314    3.0599   20.7295 N.am    1  UNL1       -0.2635
     11 C           0.6217    4.1464   20.3281 C.3     1  UNL1        0.1192
     12 C           1.8552    3.4987   19.7721 C.3     1  UNL1        0.1191
     13 C          -1.6904    3.2577   21.3329 C.3     1  UNL1        0.0819
     14 C          -2.9149    3.1566   20.4725 C.3     1  UNL1        0.0520
     15 C          -4.2739    3.3544   21.0760 C.3     1  UNL1        0.1439
     16 O          -4.4082    3.6533   22.5397 O.3     1  UNL1       -0.3537
     17 C          -3.1837    3.7545   23.4001 C.3     1  UNL1        0.1439
     18 C          -1.8247    3.5566   22.7966 C.3     1  UNL1        0.0520
     19 C           3.0667    4.2125   19.2500 C.ar    1  UNL1       -0.0026
     20 C           3.3049    4.3033   17.7717 C.ar    1  UNL1       -0.0026
     21 C           4.5164    5.0171   17.2496 C.ar    1  UNL1       -0.0003
     22 C           5.4899    5.6402   18.2057 C.ar    1  UNL1       -0.0000
     23 C           5.2518    5.5494   19.6839 C.ar    1  UNL1       -0.0003
     24 C           4.0403    4.8357   20.2060 C.ar    1  UNL1       -0.0026
     25 C           5.6132   -2.1237   18.0125 C.3     1  UNL1        0.1003
     26 C           6.1387   -3.7919   19.9337 C.ar    1  UNL1        0.0594
     27 N           7.1104   -4.3821   20.9121 N.ar    1  UNL1       -0.2160
     28 C           8.5284   -3.8942   20.9479 C.ar    1  UNL1        0.2293
     29 C           8.9746   -2.8162   20.0053 C.ar    1  UNL1        0.0578
     30 C           8.0029   -2.2260   19.0268 C.ar    1  UNL1        0.0031
     31 C           6.5849   -2.7139   18.9910 C.ar    1  UNL1        0.0077
     32 C           4.3197   -5.3490   18.9252 C.3     1  UNL1        0.0067
     33 C           4.7207   -4.2798   19.8978 C.3     1  UNL1        0.0456
     34 O           9.5001   -4.4844   21.9265 O.3     1  UNL1       -0.4361
     35 C           8.9991   -5.2962   23.0840 C.ar    1  UNL1        0.1472
     36 C           8.3534   -4.6150   24.2542 C.ar    1  UNL1        0.0376
     37 C           7.8523   -5.4268   25.4117 C.ar    1  UNL1        0.0043
     38 C           7.9970   -6.9198   25.3992 C.ar    1  UNL1        0.0142
     39 C           8.6426   -7.6010   24.2291 C.ar    1  UNL1        0.0043
     40 C           9.1437   -6.7892   23.0715 C.ar    1  UNL1        0.0376
     41 C           7.4960   -7.7317   26.5567 C.2     1  UNL1        0.0729
     42 O           8.0470   -7.4967   27.9319 O.co2   1  UNL1       -0.5446
     43 O           6.4439   -8.7785   26.3390 O.co2   1  UNL1       -0.5446
@<TRIPOS>UNITY_ATOM_ATTR
42 1
charge -1
@<TRIPOS>BOND
     1    32    33    1
     2    33    26    1
     3    26    27   ar
     4    27    28   ar
     5    28    34    1
     6    34    35    1
     7    35    36   ar
     8    36    37   ar
     9    37    38   ar
    10    38    41    1
    11    41    42   ar
    12    41    43   ar
    13    38    39   ar
    14    39    40   ar
    15    28    29   ar
    16    29    30   ar
    17    30    31   ar
    18    31    25    1
    19    25     1    1
    20     1     2    1
    21     2     3    1
    22     3     4    1
    23     4     7    1
    24     7     8   am
    25     8     9    2
    26     8    10   am
    27    10    13    1
    28    13    14    1
    29    14    15    1
    30    15    16    1
    31    16    17    1
    32    17    18    1
    33    10    11    1
    34    11    12    1
    35    12    19    1
    36    19    20   ar
    37    20    21   ar
    38    21    22   ar
    39    22    23   ar
    40    23    24   ar
    41     4     5    1
    42     5     6    1
    43    31    26   ar
    44     6     1    1
    45    40    35   ar
    46    12     7    1
    47    24    19   ar
    48    18    13    1
@<TRIPOS>MOLECULE
*****
 43 48 0 0 0
SMALL
GASTEIGER

@<TRIPOS>ATOM
      1 N           3.9029   -0.6586   19.5930 N.3     1  UNL1       -0.2688
      2 C           2.5546   -1.2393   19.9013 C.3     1  UNL1        0.0741
      3 C           1.5727   -0.4596   20.7246 C.3     1  UNL1        0.0372
      4 C           1.9390    0.9008   21.2396 C.3     1  UNL1        0.0799
      5 C           3.2872    1.4815   20.9313 C.3     1  UNL1        0.0372
      6 C           4.2691    0.7018   20.1080 C.3     1  UNL1        0.0741
      7 N           0.9570    1.6805   22.0629 N.am    1  UNL1       -0.2618
      8 C          -0.2483    2.4069   21.5438 C.2     1  UNL1        0.3074
      9 O          -0.6833    2.4812   20.1101 O.2     1  UNL1       -0.2523
     10 N          -0.9423    3.0460   22.7099 N.am    1  UNL1       -0.2635
     11 C          -0.1659    2.7146   23.9498 C.3     1  UNL1        0.1192
     12 C           1.0079    1.8706   23.5499 C.3     1  UNL1        0.1191
     13 C          -2.1931    3.8716   22.6471 C.3     1  UNL1        0.0819
     14 C          -2.3171    4.9691   21.6321 C.3     1  UNL1        0.0520
     15 C          -3.5679    5.7947   21.5694 C.3     1  UNL1        0.1439
     16 O          -4.6946    5.5228   22.5216 O.3     1  UNL1       -0.3537
     17 C          -4.5705    4.4253   23.5365 C.3     1  UNL1        0.1439
     18 C          -3.3197    3.5998   23.5993 C.3     1  UNL1        0.0520
     19 C           2.0497    1.3145   24.4748 C.ar    1  UNL1       -0.0026
     20 C           2.6388    2.1807   25.5485 C.ar    1  UNL1       -0.0026
     21 C           3.6806    1.6245   26.4733 C.ar    1  UNL1       -0.0003
     22 C           4.1334    0.2023   26.3245 C.ar    1  UNL1       -0.0000
     23 C           3.5444   -0.6638   25.2508 C.ar    1  UNL1       -0.0003
     24 C           2.5026   -0.1077   24.3260 C.ar    1  UNL1       -0.0026
     25 C           4.8849   -1.4383   18.7697 C.3     1  UNL1        0.1003
     26 C           5.6377   -3.8071   19.5259 C.ar    1  UNL1        0.0594
     27 N           6.6389   -4.6990   20.1983 N.ar    1  UNL1       -0.2160
     28 C           7.8884   -4.1140   20.7869 C.ar    1  UNL1        0.2293
     29 C           8.1368   -2.6371   20.7031 C.ar    1  UNL1        0.0578
     30 C           7.1356   -1.7452   20.0307 C.ar    1  UNL1        0.0031
     31 C           5.8861   -2.3302   19.4421 C.ar    1  UNL1        0.0077
     32 C           3.4264   -5.1407   19.8117 C.3     1  UNL1        0.0067
     33 C           4.3882   -4.3921   18.9373 C.3     1  UNL1        0.0456
     34 O           8.8897   -5.0059   21.4593 O.3     1  UNL1       -0.4361
     35 C           8.5704   -5.6235   22.7885 C.ar    1  UNL1        0.1472
     36 C           9.0316   -7.0169   23.0982 C.ar    1  UNL1        0.0376
     37 C           8.7124   -7.6345   24.4274 C.ar    1  UNL1        0.0043
     38 C           7.9320   -6.8587   25.4468 C.ar    1  UNL1        0.0142
     39 C           7.4708   -5.4654   25.1370 C.ar    1  UNL1        0.0043
     40 C           7.7900   -4.8478   23.8079 C.ar    1  UNL1        0.0376
     41 C           7.6127   -7.4762   26.7760 C.2     1  UNL1        0.0729
     42 O           7.5049   -6.6127   27.9977 O.co2   1  UNL1       -0.5446
     43 O           7.4014   -8.9574   26.8834 O.co2   1  UNL1       -0.5446
@<TRIPOS>UNITY_ATOM_ATTR
42 1
charge -1
@<TRIPOS>BOND
     1    32    33    1
     2    33    26    1
     3    26    27   ar
     4    27    28   ar
     5    28    34    1
     6    34    35    1
     7    35    36   ar
     8    36    37   ar
     9    37    38   ar
    10    38    41    1
    11    41    42   ar
    12    41    43   ar
    13    38    39   ar
    14    39    40   ar
    15    28    29   ar
    16    29    30   ar
    17    30    31   ar
    18    31    25    1
    19    25     1    1
    20     1     2    1
    21     2     3    1
    22     3     4    1
    23     4     7    1
    24     7     8   am
    25     8     9    2
    26     8    10   am
    27    10    13    1
    28    13    14    1
    29    14    15    1
    30    15    16    1
    31    16    17    1
    32    17    18    1
    33    10    11    1
    34    11    12    1
    35    12    19    1
    36    19    20   ar
    37    20    21   ar
    38    21    22   ar
    39    22    23   ar
    40    23    24   ar
    41     4     5    1
    42     5     6    1
    43    31    26   ar
    44     6     1    1
    45    40    35   ar
    46    12     7    1
    47    24    19   ar
    48    18    13    1
@<TRIPOS>MOLECULE
*****
 43 48 0 0 0
SMALL
GASTEIGER

@<TRIPOS>ATOM
      1 N           2.5534    1.0098   29.1992 N.3     1  UNL1       -0.2688
      2 C           3.0842    2.2436   29.8671 C.3     1  UNL1        0.0741
      3 C           3.4735    2.2040   31.3151 C.3     1  UNL1        0.0372
      4 C           3.3322    0.9306   32.0953 C.3     1  UNL1        0.0799
      5 C           2.8015   -0.3031   31.4273 C.3     1  UNL1        0.0372
      6 C           2.4121   -0.2636   29.9793 C.3     1  UNL1        0.0741
      7 N           3.7215    0.8910   33.5433 N.am    1  UNL1       -0.2618
      8 C           3.1484    1.7463   34.6341 C.2     1  UNL1        0.3074
      9 O           2.0852    2.7914   34.4684 O.2     1  UNL1       -0.2523
     10 N           3.8250    1.3731   35.9198 N.am    1  UNL1       -0.2635
     11 C           4.8164    0.2871   35.6235 C.3     1  UNL1        0.1192
     12 C           4.7524   -0.0108   34.1548 C.3     1  UNL1        0.1191
     13 C           3.5573    1.9794   37.2654 C.3     1  UNL1        0.0819
     14 C           4.6489    2.7109   37.9889 C.3     1  UNL1        0.0520
     15 C           4.3812    3.3173   39.3345 C.3     1  UNL1        0.1439
     16 O           3.0220    3.1921   39.9565 O.3     1  UNL1       -0.3537
     17 C           1.9305    2.4606   39.2330 C.3     1  UNL1        0.1439
     18 C           2.1982    1.8543   37.8874 C.3     1  UNL1        0.0520
     19 C           5.5750   -1.0315   33.4256 C.ar    1  UNL1       -0.0026
     20 C           5.0361   -2.4149   33.2113 C.ar    1  UNL1       -0.0026
     21 C           5.8587   -3.4356   32.4821 C.ar    1  UNL1       -0.0003
     22 C           7.2200   -3.0728   31.9672 C.ar    1  UNL1       -0.0000
     23 C           7.7588   -1.6895   32.1814 C.ar    1  UNL1       -0.0003
     24 C           6.9363   -0.6689   32.9106 C.ar    1  UNL1       -0.0026
     25 C           2.1641    1.0494   27.7511 C.3     1  UNL1        0.1003
     26 C          -0.4021    1.3633   27.4931 C.ar    1  UNL1        0.0594
     27 N          -1.5715    2.1934   27.0534 N.ar    1  UNL1       -0.2160
     28 C          -1.3443    3.5395   26.4319 C.ar    1  UNL1        0.2293
     29 C           0.0523    4.0556   26.2501 C.ar    1  UNL1        0.0578
     30 C           1.2217    3.2256   26.6899 C.ar    1  UNL1        0.0031
     31 C           0.9945    1.8794   27.3114 C.ar    1  UNL1        0.0077
     32 C          -1.7140   -0.1646   29.1345 C.3     1  UNL1        0.0067
     33 C          -0.6292    0.0172   28.1146 C.3     1  UNL1        0.0456
     34 O          -2.5138    4.3696   25.9922 O.3     1  UNL1       -0.4361
     35 C          -3.0607    4.2188   24.6036 C.ar    1  UNL1        0.1472
     36 C          -4.2677    3.3616   24.3619 C.ar    1  UNL1        0.0376
     37 C          -4.8146    3.2107   22.9733 C.ar    1  UNL1        0.0043
     38 C          -4.1544    3.9171   21.8264 C.ar    1  UNL1        0.0142
     39 C          -2.9474    4.7743   22.0681 C.ar    1  UNL1        0.0043
     40 C          -2.4006    4.9251   23.4567 C.ar    1  UNL1        0.0376
     41 C          -4.7013    3.7663   20.4378 C.2     1  UNL1        0.0729
     42 O          -6.1832    3.7959   20.2080 O.co2   1  UNL1       -0.5446
     43 O          -3.7661    3.5859   19.2789 O.co2   1  UNL1       -0.5446
@<TRIPOS>UNITY_ATOM_ATTR
42 1
charge -1
@<TRIPOS>BOND
     1    32    33    1
     2    33    26    1
     3    26    27   ar
     4    27    28   ar
     5    28    34    1
     6    34    35    1
     7    35    36   ar
     8    36    37   ar
     9    37    38   ar
    10    38    41    1
    11    41    42   ar
    12    41    43   ar
    13    38    39   ar
    14    39    40   ar
    15    28    29   ar
    16    29    30   ar
    17    30    31   ar
    18    31    25    1
    19    25     1    1
    20     1     2    1
    21     2     3    1
    22     3     4    1
    23     4     7    1
    24     7     8   am
    25     8     9    2
    26     8    10   am
    27    10    13    1
    28    13    14    1
    29    14    15    1
    30    15    16    1
    31    16    17    1
    32    17    18    1
    33    10    11    1
    34    11    12    1
    35    12    19    1
    36    19    20   ar
    37    20    21   ar
    38    21    22   ar
    39    22    23   ar
    40    23    24   ar
    41     4     5    1
    42     5     6    1
    43    31    26   ar
    44     6     1    1
    45    40    35   ar
    46    12     7    1
    47    24    19   ar
    48    18    13    1
@<TRIPOS>MOLECULE
*****
 43 48 0 0 0
SMALL
GASTEIGER

@<TRIPOS>ATOM
      1 N          -0.8025    2.5809   27.3267 N.3     1  UNL1       -0.2688
      2 C          -0.7803    1.1400   27.7433 C.3     1  UNL1        0.0741
      3 C           0.2505    0.6576   28.7203 C.3     1  UNL1        0.0372
      4 C           1.2592    1.6160   29.2808 C.3     1  UNL1        0.0799
      5 C           1.2370    3.0568   28.8643 C.3     1  UNL1        0.0372
      6 C           0.2062    3.5393   27.8872 C.3     1  UNL1        0.0741
      7 N           2.2900    1.1335   30.2579 N.am    1  UNL1       -0.2618
      8 C           2.2157    1.2571   31.7509 C.2     1  UNL1        0.3074
      9 O           1.0975    1.8849   32.5291 O.2     1  UNL1       -0.2523
     10 N           3.4559    0.6427   32.3293 N.am    1  UNL1       -0.2635
     11 C           4.2967    0.1394   31.1936 C.3     1  UNL1        0.1192
     12 C           3.5761    0.4427   29.9135 C.3     1  UNL1        0.1191
     13 C           3.7956    0.5483   33.7872 C.3     1  UNL1        0.0819
     14 C           4.4914   -0.6701   34.3177 C.3     1  UNL1        0.0520
     15 C           4.8311   -0.7645   35.7756 C.3     1  UNL1        0.1439
     16 O           4.4750    0.3593   36.7031 O.3     1  UNL1       -0.3537
     17 C           3.7791    1.5776   36.1726 C.3     1  UNL1        0.1439
     18 C           3.4394    1.6721   34.7146 C.3     1  UNL1        0.0520
     19 C           4.0573    0.1131   28.5315 C.ar    1  UNL1       -0.0026
     20 C           3.4473   -1.0317   27.7781 C.ar    1  UNL1       -0.0026
     21 C           3.9285   -1.3613   26.3961 C.ar    1  UNL1       -0.0003
     22 C           5.0195   -0.5462   25.7675 C.ar    1  UNL1       -0.0000
     23 C           5.6295    0.5985   26.5209 C.ar    1  UNL1       -0.0003
     24 C           5.1484    0.9281   27.9028 C.ar    1  UNL1       -0.0026
     25 C          -1.8333    3.0634   26.3496 C.3     1  UNL1        0.1003
     26 C          -2.5439    3.5908   23.9069 C.ar    1  UNL1        0.0594
     27 N          -2.2431    3.5891   22.4374 N.ar    1  UNL1       -0.2160
     28 C          -0.9308    3.0584   21.9411 C.ar    1  UNL1        0.2293
     29 C           0.0806    2.5293   22.9142 C.ar    1  UNL1        0.0578
     30 C          -0.2202    2.5310   24.3837 C.ar    1  UNL1        0.0031
     31 C          -1.5325    3.0617   24.8801 C.ar    1  UNL1        0.0077
     32 C          -5.1330    3.4224   24.0415 C.3     1  UNL1        0.0067
     33 C          -3.8561    4.1215   24.4032 C.3     1  UNL1        0.0456
     34 O          -0.6300    3.0567   20.4715 O.3     1  UNL1       -0.4361
     35 C           0.3724    2.0912   19.9122 C.ar    1  UNL1        0.1472
     36 C           0.2639    0.6292   20.2302 C.ar    1  UNL1        0.0376
     37 C           1.2663   -0.3364   19.6710 C.ar    1  UNL1        0.0043
     38 C           2.3773    0.1600   18.7937 C.ar    1  UNL1        0.0142
     39 C           2.4858    1.6219   18.4758 C.ar    1  UNL1        0.0043
     40 C           1.4834    2.5874   19.0351 C.ar    1  UNL1        0.0376
     41 C           3.3798   -0.8056   18.2345 C.2     1  UNL1        0.0729
     42 O           3.7594   -0.7370   16.7850 O.co2   1  UNL1       -0.5446
     43 O           4.0026   -1.8398   19.1248 O.co2   1  UNL1       -0.5446
@<TRIPOS>UNITY_ATOM_ATTR
42 1
charge -1
@<TRIPOS>BOND
     1    32    33    1
     2    33    26    1
     3    26    27   ar
     4    27    28   ar
     5    28    34    1
     6    34    35    1
     7    35    36   ar
     8    36    37   ar
     9    37    38   ar
    10    38    41    1
    11    41    42   ar
    12    41    43   ar
    13    38    39   ar
    14    39    40   ar
    15    28    29   ar
    16    29    30   ar
    17    30    31   ar
    18    31    25    1
    19    25     1    1
    20     1     2    1
    21     2     3    1
    22     3     4    1
    23     4     7    1
    24     7     8   am
    25     8     9    2
    26     8    10   am
    27    10    13    1
    28    13    14    1
    29    14    15    1
    30    15    16    1
    31    16    17    1
    32    17    18    1
    33    10    11    1
    34    11    12    1
    35    12    19    1
    36    19    20   ar
    37    20    21   ar
    38    21    22   ar
    39    22    23   ar
    40    23    24   ar
    41     4     5    1
    42     5     6    1
    43    31    26   ar
    44     6     1    1
    45    40    35   ar
    46    12     7    1
    47    24    19   ar
    48    18    13    1
@<TRIPOS>MOLECULE
*****
 43 48 0 0 0
SMALL
GASTEIGER

@<TRIPOS>ATOM
      1 N           5.8616   -0.5348   28.4551 N.3     1  UNL1       -0.2688
      2 C           5.7448    0.9604   28.4857 C.3     1  UNL1        0.0741
      3 C           4.8474    1.6221   29.4890 C.3     1  UNL1        0.0372
      4 C           4.0667    0.7887   30.4617 C.3     1  UNL1        0.0799
      5 C           4.1835   -0.7064   30.4310 C.3     1  UNL1        0.0372
      6 C           5.0810   -1.3682   29.4277 C.3     1  UNL1        0.0741
      7 N           3.1692    1.4504   31.4650 N.am    1  UNL1       -0.2618
      8 C           3.5446    1.8348   32.8655 C.2     1  UNL1        0.3074
      9 O           4.8834    1.6249   33.5085 O.2     1  UNL1       -0.2523
     10 N           2.3462    2.4659   33.5100 N.am    1  UNL1       -0.2635
     11 C           1.2301    2.4716   32.5079 C.3     1  UNL1        0.1192
     12 C           1.7387    1.8440   31.2440 C.3     1  UNL1        0.1191
     13 C           2.2762    2.9979   34.9107 C.3     1  UNL1        0.0819
     14 C           1.6400    4.3302   35.1760 C.3     1  UNL1        0.0520
     15 C           1.5700    4.8622   36.5767 C.3     1  UNL1        0.1439
     16 O           2.1361    4.0620   37.7121 O.3     1  UNL1       -0.3537
     17 C           2.7723    2.7298   37.4468 C.3     1  UNL1        0.1439
     18 C           2.8423    2.1978   36.0461 C.3     1  UNL1        0.0520
     19 C           0.9546    1.6449   29.9809 C.ar    1  UNL1       -0.0026
     20 C           0.3724    0.2993   29.6637 C.ar    1  UNL1       -0.0026
     21 C          -0.4118    0.1002   28.4006 C.ar    1  UNL1       -0.0003
     22 C          -0.6138    1.2466   27.4547 C.ar    1  UNL1       -0.0000
     23 C          -0.0317    2.5922   27.7719 C.ar    1  UNL1       -0.0003
     24 C           0.7525    2.7913   29.0349 C.ar    1  UNL1       -0.0026
     25 C           6.7591   -1.1966   27.4517 C.3     1  UNL1        0.1003
     26 C           6.7358   -3.1209   25.7063 C.ar    1  UNL1        0.0594
     27 N           6.1502   -3.7548   24.4794 N.ar    1  UNL1       -0.2160
     28 C           5.0024   -3.0984   23.7711 C.ar    1  UNL1        0.2293
     29 C           4.4402   -1.8081   24.2897 C.ar    1  UNL1        0.0578
     30 C           5.0257   -1.1742   25.5165 C.ar    1  UNL1        0.0031
     31 C           6.1735   -1.8306   26.2248 C.ar    1  UNL1        0.0077
     32 C           7.9229   -5.2700   26.5559 C.3     1  UNL1        0.0067
     33 C           7.8836   -3.7773   26.4146 C.3     1  UNL1        0.0456
     34 O           4.4168   -3.7324   22.5442 O.3     1  UNL1       -0.4361
     35 C           4.5803   -3.0714   21.2077 C.ar    1  UNL1        0.1472
     36 C           3.5387   -2.1117   20.7133 C.ar    1  UNL1        0.0376
     37 C           3.7021   -1.4506   19.3768 C.ar    1  UNL1        0.0043
     38 C           4.9071   -1.7492   18.5346 C.ar    1  UNL1        0.0142
     39 C           5.9485   -2.7088   19.0291 C.ar    1  UNL1        0.0043
     40 C           5.7851   -3.3699   20.3656 C.ar    1  UNL1        0.0376
     41 C           5.0705   -1.0882   17.1981 C.2     1  UNL1        0.0729
     42 O           3.9098   -1.0145   16.2509 O.co2   1  UNL1       -0.5446
     43 O           6.3947   -0.5008   16.8088 O.co2   1  UNL1       -0.5446
@<TRIPOS>UNITY_ATOM_ATTR
42 1
charge -1
@<TRIPOS>BOND
     1    32    33    1
     2    33    26    1
     3    26    27   ar
     4    27    28   ar
     5    28    34    1
     6    34    35    1
     7    35    36   ar
     8    36    37   ar
     9    37    38   ar
    10    38    41    1
    11    41    42   ar
    12    41    43   ar
    13    38    39   ar
    14    39    40   ar
    15    28    29   ar
    16    29    30   ar
    17    30    31   ar
    18    31    25    1
    19    25     1    1
    20     1     2    1
    21     2     3    1
    22     3     4    1
    23     4     7    1
    24     7     8   am
    25     8     9    2
    26     8    10   am
    27    10    13    1
    28    13    14    1
    29    14    15    1
    30    15    16    1
    31    16    17    1
    32    17    18    1
    33    10    11    1
    34    11    12    1
    35    12    19    1
    36    19    20   ar
    37    20    21   ar
    38    21    22   ar
    39    22    23   ar
    40    23    24   ar
    41     4     5    1
    42     5     6    1
    43    31    26   ar
    44     6     1    1
    45    40    35   ar
    46    12     7    1
    47    24    19   ar
    48    18    13    1
@<TRIPOS>MOLECULE
*****
 43 48 0 0 0
SMALL
GASTEIGER

@<TRIPOS>ATOM
      1 N          -0.8528    2.9844   26.8384 N.3     1  UNL1       -0.2688
      2 C          -1.0704    1.6001   27.3738 C.3     1  UNL1        0.0741
      3 C          -0.1617    1.0553   28.4356 C.3     1  UNL1        0.0372
      4 C           0.9646    1.8947   28.9620 C.3     1  UNL1        0.0799
      5 C           1.1821    3.2789   28.4265 C.3     1  UNL1        0.0372
      6 C           0.2734    3.8237   27.3648 C.3     1  UNL1        0.0741
      7 N           1.8733    1.3498   30.0237 N.am    1  UNL1       -0.2618
      8 C           2.6367    0.0605   29.9544 C.2     1  UNL1        0.3074
      9 O           2.6254   -0.9104   28.8110 O.2     1  UNL1       -0.2523
     10 N           3.4134   -0.0875   31.2291 N.am    1  UNL1       -0.2635
     11 C           3.1300    1.1103   32.0863 C.3     1  UNL1        0.1192
     12 C           2.1782    1.9986   31.3414 C.3     1  UNL1        0.1191
     13 C           4.3151   -1.2324   31.5842 C.3     1  UNL1        0.0819
     14 C           4.1196   -1.9680   32.8768 C.3     1  UNL1        0.0520
     15 C           5.0213   -3.1129   33.2319 C.3     1  UNL1        0.1439
     16 O           6.1185   -3.5222   32.2945 O.3     1  UNL1       -0.3537
     17 C           6.3140   -2.7865   31.0020 C.3     1  UNL1        0.1439
     18 C           5.4122   -1.6416   30.6468 C.3     1  UNL1        0.0520
     19 C           1.6279    3.3063   31.8285 C.ar    1  UNL1       -0.0026
     20 C           2.5404    4.4828   32.0107 C.ar    1  UNL1       -0.0026
     21 C           1.9901    5.7904   32.4979 C.ar    1  UNL1       -0.0003
     22 C           0.5273    5.9215   32.8029 C.ar    1  UNL1       -0.0000
     23 C          -0.3852    4.7450   32.6207 C.ar    1  UNL1       -0.0003
     24 C           0.1651    3.4375   32.1336 C.ar    1  UNL1       -0.0026
     25 C          -1.7615    3.5292   25.7766 C.3     1  UNL1        0.1003
     26 C          -2.5300    3.4605   23.2957 C.ar    1  UNL1        0.0594
     27 N          -2.2263    3.2106   21.8482 N.ar    1  UNL1       -0.2160
     28 C          -0.8506    2.7798   21.4340 C.ar    1  UNL1        0.2293
     29 C           0.2216    2.5987   22.4673 C.ar    1  UNL1        0.0578
     30 C          -0.0821    2.8486   23.9148 C.ar    1  UNL1        0.0031
     31 C          -1.4579    3.2794   24.3290 C.ar    1  UNL1        0.0077
     32 C          -5.1113    3.2481   23.0911 C.3     1  UNL1        0.0067
     33 C          -3.9058    3.8913   23.7099 C.3     1  UNL1        0.0456
     34 O          -0.5469    2.5300   19.9864 O.3     1  UNL1       -0.4361
     35 C           0.5506    1.5821   19.6030 C.ar    1  UNL1        0.1472
     36 C           1.6555    2.0405   18.6979 C.ar    1  UNL1        0.0376
     37 C           2.7530    1.0927   18.3146 C.ar    1  UNL1        0.0043
     38 C           2.7456   -0.3137   18.8363 C.ar    1  UNL1        0.0142
     39 C           1.6408   -0.7721   19.7414 C.ar    1  UNL1        0.0043
     40 C           0.5433    0.1758   20.1248 C.ar    1  UNL1        0.0376
     41 C           3.8431   -1.2616   18.4530 C.2     1  UNL1        0.0729
     42 O           4.3516   -1.2891   17.0421 O.co2   1  UNL1       -0.5446
     43 O           4.4322   -2.1820   19.4806 O.co2   1  UNL1       -0.5446
@<TRIPOS>UNITY_ATOM_ATTR
42 1
charge -1
@<TRIPOS>BOND
     1    32    33    1
     2    33    26    1
     3    26    27   ar
     4    27    28   ar
     5    28    34    1
     6    34    35    1
     7    35    36   ar
     8    36    37   ar
     9    37    38   ar
    10    38    41    1
    11    41    42   ar
    12    41    43   ar
    13    38    39   ar
    14    39    40   ar
    15    28    29   ar
    16    29    30   ar
    17    30    31   ar
    18    31    25    1
    19    25     1    1
    20     1     2    1
    21     2     3    1
    22     3     4    1
    23     4     7    1
    24     7     8   am
    25     8     9    2
    26     8    10   am
    27    10    13    1
    28    13    14    1
    29    14    15    1
    30    15    16    1
    31    16    17    1
    32    17    18    1
    33    10    11    1
    34    11    12    1
    35    12    19    1
    36    19    20   ar
    37    20    21   ar
    38    21    22   ar
    39    22    23   ar
    40    23    24   ar
    41     4     5    1
    42     5     6    1
    43    31    26   ar
    44     6     1    1
    45    40    35   ar
    46    12     7    1
    47    24    19   ar
    48    18    13    1
@<TRIPOS>MOLECULE
*****
 43 48 0 0 0
SMALL
GASTEIGER

@<TRIPOS>ATOM
      1 N           0.8489    2.2101   26.3901 N.3     1  UNL1       -0.2688
      2 C           2.2622    2.4123   25.9301 C.3     1  UNL1        0.0741
      3 C           2.6597    2.0265   24.5361 C.3     1  UNL1        0.0372
      4 C           1.6438    1.4384   23.6022 C.3     1  UNL1        0.0799
      5 C           0.2305    1.2361   24.0622 C.3     1  UNL1        0.0372
      6 C          -0.1669    1.6220   25.4562 C.3     1  UNL1        0.0741
      7 N           2.0413    1.0525   22.2082 N.am    1  UNL1       -0.2618
      8 C           2.9905   -0.0472   21.8345 C.2     1  UNL1        0.3074
      9 O           3.7088   -0.9542   22.7891 O.2     1  UNL1       -0.2523
     10 N           3.0952   -0.0808   20.3385 N.am    1  UNL1       -0.2635
     11 C           2.2107    0.9982   19.7877 C.3     1  UNL1        0.1192
     12 C           1.5594    1.6986   20.9432 C.3     1  UNL1        0.1191
     13 C           3.9366   -1.0272   19.5346 C.3     1  UNL1        0.0819
     14 C           3.6804   -2.5035   19.6051 C.3     1  UNL1        0.0520
     15 C           4.5218   -3.4499   18.8012 C.3     1  UNL1        0.1439
     16 O           5.6195   -2.9200   17.9268 O.3     1  UNL1       -0.3537
     17 C           5.8757   -1.4437   17.8564 C.3     1  UNL1        0.1439
     18 C           5.0342   -0.4973   18.6603 C.3     1  UNL1        0.0520
     19 C           0.5954    2.8441   20.8500 C.ar    1  UNL1       -0.0026
     20 C          -0.8542    2.5831   20.5659 C.ar    1  UNL1       -0.0026
     21 C          -1.8182    3.7286   20.4727 C.ar    1  UNL1       -0.0003
     22 C          -1.3327    5.1349   20.6636 C.ar    1  UNL1       -0.0000
     23 C           0.1169    5.3958   20.9477 C.ar    1  UNL1       -0.0003
     24 C           1.0808    4.2504   21.0409 C.ar    1  UNL1       -0.0026
     25 C           0.4514    2.5959   27.7841 C.3     1  UNL1        0.1003
     26 C           0.8940    0.6043   29.3927 C.ar    1  UNL1        0.0594
     27 N           1.6201    0.0206   30.5683 N.ar    1  UNL1       -0.2160
     28 C           2.6296    0.8448   31.3110 C.ar    1  UNL1        0.2293
     29 C           2.9131    2.2527   30.8780 C.ar    1  UNL1        0.0578
     30 C           2.1870    2.8364   29.7024 C.ar    1  UNL1        0.0031
     31 C           1.1775    2.0122   28.9597 C.ar    1  UNL1        0.0077
     32 C          -1.5572   -0.1914   29.0633 C.3     1  UNL1        0.0067
     33 C          -0.1155   -0.2199   28.6500 C.3     1  UNL1        0.0456
     34 O           3.3557    0.2611   32.4866 O.3     1  UNL1       -0.4361
     35 C           4.3627   -0.8311   32.2793 C.ar    1  UNL1        0.1472
     36 C           5.4716   -0.6500   31.2854 C.ar    1  UNL1        0.0376
     37 C           6.4787   -1.7422   31.0781 C.ar    1  UNL1        0.0043
     38 C           6.3768   -3.0155   31.8646 C.ar    1  UNL1        0.0142
     39 C           5.2680   -3.1965   32.8584 C.ar    1  UNL1        0.0043
     40 C           4.2609   -2.1043   33.0657 C.ar    1  UNL1        0.0376
     41 C           7.3839   -4.1077   31.6573 C.2     1  UNL1        0.0729
     42 O           6.9247   -5.5089   31.3823 O.co2   1  UNL1       -0.5446
     43 O           8.8502   -3.7985   31.7249 O.co2   1  UNL1       -0.5446
@<TRIPOS>UNITY_ATOM_ATTR
42 1
charge -1
@<TRIPOS>BOND
     1    32    33    1
     2    33    26    1
     3    26    27   ar
     4    27    28   ar
     5    28    34    1
     6    34    35    1
     7    35    36   ar
     8    36    37   ar
     9    37    38   ar
    10    38    41    1
    11    41    42   ar
    12    41    43   ar
    13    38    39   ar
    14    39    40   ar
    15    28    29   ar
    16    29    30   ar
    17    30    31   ar
    18    31    25    1
    19    25     1    1
    20     1     2    1
    21     2     3    1
    22     3     4    1
    23     4     7    1
    24     7     8   am
    25     8     9    2
    26     8    10   am
    27    10    13    1
    28    13    14    1
    29    14    15    1
    30    15    16    1
    31    16    17    1
    32    17    18    1
    33    10    11    1
    34    11    12    1
    35    12    19    1
    36    19    20   ar
    37    20    21   ar
    38    21    22   ar
    39    22    23   ar
    40    23    24   ar
    41     4     5    1
    42     5     6    1
    43    31    26   ar
    44     6     1    1
    45    40    35   ar
    46    12     7    1
    47    24    19   ar
    48    18    13    1
@<TRIPOS>MOLECULE
*****
 43 48 0 0 0
SMALL
GASTEIGER

@<TRIPOS>ATOM
      1 N           2.0263    0.7241   18.7553 N.3     1  UNL1       -0.2688
      2 C           1.8728    2.2154   18.7055 C.3     1  UNL1        0.0741
      3 C           0.8703    2.8961   19.5896 C.3     1  UNL1        0.0372
      4 C           0.0213    2.0854   20.5236 C.3     1  UNL1        0.0799
      5 C           0.1749    0.5942   20.5733 C.3     1  UNL1        0.0372
      6 C           1.1774   -0.0865   19.6892 C.3     1  UNL1        0.0741
      7 N          -0.9811    2.7661   21.4077 N.am    1  UNL1       -0.2618
      8 C          -2.3258    3.2787   20.9844 C.2     1  UNL1        0.3074
      9 O          -2.9040    3.2006   19.6025 O.2     1  UNL1       -0.2523
     10 N          -2.9906    3.8831   22.1855 N.am    1  UNL1       -0.2635
     11 C          -2.0569    3.7441   23.3512 C.3     1  UNL1        0.1192
     12 C          -0.8150    3.0538   22.8705 C.3     1  UNL1        0.1191
     13 C          -4.3505    4.5155   22.2156 C.3     1  UNL1        0.0819
     14 C          -4.5105    5.9666   21.8711 C.3     1  UNL1        0.0520
     15 C          -5.8703    6.5990   21.9012 C.3     1  UNL1        0.1439
     16 O          -7.0701    5.7803   22.2757 O.3     1  UNL1       -0.3537
     17 C          -6.9100    4.3292   22.6202 C.3     1  UNL1        0.1439
     18 C          -5.5502    3.6968   22.5901 C.3     1  UNL1        0.0520
     19 C           0.3828    2.7112   23.7059 C.ar    1  UNL1       -0.0026
     20 C           1.4336    3.7484   23.9713 C.ar    1  UNL1       -0.0026
     21 C           2.6314    3.4058   24.8067 C.ar    1  UNL1       -0.0003
     22 C           2.7785    2.0262   25.3768 C.ar    1  UNL1       -0.0000
     23 C           1.7277    0.9892   25.1115 C.ar    1  UNL1       -0.0003
     24 C           0.5300    1.3316   24.2761 C.ar    1  UNL1       -0.0026
     25 C           3.0287    0.0434   17.8711 C.3     1  UNL1        0.1003
     26 C           5.3720   -0.1921   18.9683 C.ar    1  UNL1        0.0594
     27 N           6.4433   -1.0511   19.5720 N.ar    1  UNL1       -0.2160
     28 C           6.2427   -2.5336   19.6820 C.ar    1  UNL1        0.2293
     29 C           4.9709   -3.1570   19.1884 C.ar    1  UNL1        0.0578
     30 C           3.8996   -2.2980   18.5848 C.ar    1  UNL1        0.0031
     31 C           4.1001   -0.8156   18.4748 C.ar    1  UNL1        0.0077
     32 C           5.3100    2.1726   20.0426 C.3     1  UNL1        0.0067
     33 C           5.5725    1.2903   18.8583 C.3     1  UNL1        0.0456
     34 O           7.3141   -3.3926   20.2857 O.3     1  UNL1       -0.4361
     35 C           7.2060   -3.8321   21.7157 C.ar    1  UNL1        0.1472
     36 C           6.1438   -3.2503   22.6009 C.ar    1  UNL1        0.0376
     37 C           6.0357   -3.6899   24.0310 C.ar    1  UNL1        0.0043
     38 C           6.9897   -4.7112   24.5759 C.ar    1  UNL1        0.0142
     39 C           8.0517   -5.2930   23.6907 C.ar    1  UNL1        0.0043
     40 C           8.1599   -4.8534   22.2606 C.ar    1  UNL1        0.0376
     41 C           6.8815   -5.1508   26.0059 C.2     1  UNL1        0.0729
     42 O           6.7514   -4.1294   27.0967 O.co2   1  UNL1       -0.5446
     43 O           6.9035   -6.6118   26.3452 O.co2   1  UNL1       -0.5446
@<TRIPOS>UNITY_ATOM_ATTR
42 1
charge -1
@<TRIPOS>BOND
     1    32    33    1
     2    33    26    1
     3    26    27   ar
     4    27    28   ar
     5    28    34    1
     6    34    35    1
     7    35    36   ar
     8    36    37   ar
     9    37    38   ar
    10    38    41    1
    11    41    42   ar
    12    41    43   ar
    13    38    39   ar
    14    39    40   ar
    15    28    29   ar
    16    29    30   ar
    17    30    31   ar
    18    31    25    1
    19    25     1    1
    20     1     2    1
    21     2     3    1
    22     3     4    1
    23     4     7    1
    24     7     8   am
    25     8     9    2
    26     8    10   am
    27    10    13    1
    28    13    14    1
    29    14    15    1
    30    15    16    1
    31    16    17    1
    32    17    18    1
    33    10    11    1
    34    11    12    1
    35    12    19    1
    36    19    20   ar
    37    20    21   ar
    38    21    22   ar
    39    22    23   ar
    40    23    24   ar
    41     4     5    1
    42     5     6    1
    43    31    26   ar
    44     6     1    1
    45    40    35   ar
    46    12     7    1
    47    24    19   ar
    48    18    13    1
@<TRIPOS>MOLECULE
*****
 43 48 0 0 0
SMALL
GASTEIGER

@<TRIPOS>ATOM
      1 N           2.7241    0.7938   28.7411 N.3     1  UNL1       -0.2688
      2 C           3.6104    1.8538   29.3250 C.3     1  UNL1        0.0741
      3 C           4.0883    1.7351   30.7419 C.3     1  UNL1        0.0372
      4 C           3.6799    0.5563   31.5748 C.3     1  UNL1        0.0799
      5 C           2.7936   -0.5036   30.9909 C.3     1  UNL1        0.0372
      6 C           2.3157   -0.3849   29.5741 C.3     1  UNL1        0.0741
      7 N           4.1578    0.4375   32.9917 N.am    1  UNL1       -0.2618
      8 C           3.6409    1.2163   34.1648 C.2     1  UNL1        0.3074
      9 O           2.5552    2.2507   34.1270 O.2     1  UNL1       -0.2523
     10 N           4.4002    0.7792   35.3824 N.am    1  UNL1       -0.2635
     11 C           5.3864   -0.2697   34.9617 C.3     1  UNL1        0.1192
     12 C           5.2367   -0.4809   33.4842 C.3     1  UNL1        0.1191
     13 C           4.2071    1.2997   36.7758 C.3     1  UNL1        0.0819
     14 C           5.3821    1.8134   37.5540 C.3     1  UNL1        0.0520
     15 C           5.1890    2.3339   38.9475 C.3     1  UNL1        0.1439
     16 O           3.8210    2.3407   39.5627 O.3     1  UNL1       -0.3537
     17 C           2.6460    1.8271   38.7845 C.3     1  UNL1        0.1439
     18 C           2.8391    1.3066   37.3910 C.3     1  UNL1        0.0520
     19 C           6.0270   -1.4418   32.6464 C.ar    1  UNL1       -0.0026
     20 C           5.6986   -2.9053   32.6723 C.ar    1  UNL1       -0.0026
     21 C           6.4889   -3.8662   31.8344 C.ar    1  UNL1       -0.0003
     22 C           7.6076   -3.3638   30.9707 C.ar    1  UNL1       -0.0000
     23 C           7.9360   -1.9004   30.9449 C.ar    1  UNL1       -0.0003
     24 C           7.1458   -0.9395   31.7826 C.ar    1  UNL1       -0.0026
     25 C           2.2462    0.9126   27.3243 C.3     1  UNL1        0.1003
     26 C           2.5938    0.3966   24.8018 C.ar    1  UNL1        0.0594
     27 N           3.2517   -0.4058   23.7186 N.ar    1  UNL1       -0.2160
     28 C           4.2201   -1.4946   24.0748 C.ar    1  UNL1        0.2293
     29 C           4.5305   -1.7810   25.5141 C.ar    1  UNL1        0.0578
     30 C           3.8725   -0.9786   26.5972 C.ar    1  UNL1        0.0031
     31 C           2.9041    0.1102   26.2410 C.ar    1  UNL1        0.0077
     32 C           0.6630    1.2917   23.3115 C.3     1  UNL1        0.0067
     33 C           1.6254    1.4854   24.4456 C.3     1  UNL1        0.0456
     34 O           4.8781   -2.2970   22.9916 O.3     1  UNL1       -0.4361
     35 C           4.8419   -1.8128   21.5723 C.ar    1  UNL1        0.1472
     36 C           5.9427   -0.9379   21.0500 C.ar    1  UNL1        0.0376
     37 C           5.9065   -0.4537   19.6308 C.ar    1  UNL1        0.0043
     38 C           4.7694   -0.8444   18.7339 C.ar    1  UNL1        0.0142
     39 C           3.6686   -1.7192   19.2562 C.ar    1  UNL1        0.0043
     40 C           3.7048   -2.2034   20.6754 C.ar    1  UNL1        0.0376
     41 C           4.7332   -0.3602   17.3146 C.2     1  UNL1        0.0729
     42 O           5.5501    0.8300   16.9071 O.co2   1  UNL1       -0.5446
     43 O           3.8800   -1.0663   16.3028 O.co2   1  UNL1       -0.5446
@<TRIPOS>UNITY_ATOM_ATTR
42 1
charge -1
@<TRIPOS>BOND
     1    32    33    1
     2    33    26    1
     3    26    27   ar
     4    27    28   ar
     5    28    34    1
     6    34    35    1
     7    35    36   ar
     8    36    37   ar
     9    37    38   ar
    10    38    41    1
    11    41    42   ar
    12    41    43   ar
    13    38    39   ar
    14    39    40   ar
    15    28    29   ar
    16    29    30   ar
    17    30    31   ar
    18    31    25    1
    19    25     1    1
    20     1     2    1
    21     2     3    1
    22     3     4    1
    23     4     7    1
    24     7     8   am
    25     8     9    2
    26     8    10   am
    27    10    13    1
    28    13    14    1
    29    14    15    1
    30    15    16    1
    31    16    17    1
    32    17    18    1
    33    10    11    1
    34    11    12    1
    35    12    19    1
    36    19    20   ar
    37    20    21   ar
    38    21    22   ar
    39    22    23   ar
    40    23    24   ar
    41     4     5    1
    42     5     6    1
    43    31    26   ar
    44     6     1    1
    45    40    35   ar
    46    12     7    1
    47    24    19   ar
    48    18    13    1
