@<TRIPOS>MOLECULE
*****
 33 38 0 0 0
SMALL
GASTEIGER

@<TRIPOS>ATOM
      1 C           0.4655    1.9472   23.2072 C.ar    1  UNL1        0.0198
      2 C          -0.5543    3.0083   22.9178 C.ar    1  UNL1        0.0146
      3 C          -0.8778    3.3706   21.4985 C.ar    1  UNL1        0.0786
      4 CL         -1.8977    4.4318   21.2092 Cl      1  UNL1       -0.0806
      5 C          -0.1813    2.6717   20.3688 C.ar    1  UNL1        0.1326
      6 N          -0.2916    2.8147   18.8797 N.ar    1  UNL1       -0.1276
      7 N           0.6601    1.8420   18.2489 N.ar    1  UNL1       -0.0598
      8 N           1.3586    1.0977   19.3481 N.ar    1  UNL1       -0.2141
      9 C           0.8386    1.6105   20.6583 C.ar    1  UNL1        0.1043
     10 C           1.1620    1.2483   22.0775 C.ar    1  UNL1        0.0223
     11 C           2.3951    0.0284   19.1685 C.2     1  UNL1        0.0681
     12 C           2.2715   -1.2683   19.9123 C.2     1  UNL1        0.0153
     13 C           3.3080   -2.3377   19.7328 C.2     1  UNL1        0.0041
     14 C           4.4681   -2.1103   18.8096 C.2     1  UNL1        0.0367
     15 C           5.6361   -2.9733   18.4338 C.2     1  UNL1        0.1233
     16 N           6.4816   -2.2099   17.4580 N.2     1  UNL1       -0.1467
     17 N           5.8361   -0.8750   17.2305 N.2     1  UNL1       -0.1519
     18 C           4.5917   -0.8134   18.0658 C.2     1  UNL1        0.0880
     19 C           3.5553    0.2559   18.2453 C.3     1  UNL1        0.0934
     20 N           2.1632    1.3953   25.1968 N.ar    1  UNL1       -0.2464
     21 N           2.0184    1.0418   26.6474 N.ar    1  UNL1       -0.1674
     22 C           0.5546    1.0131   26.9736 C.ar    1  UNL1        0.1217
     23 C          -0.2053    1.3487   25.7246 C.ar    1  UNL1        0.0412
     24 C           0.7889    1.5849   24.6265 C.ar    1  UNL1        0.0799
     25 C           3.4555    1.5345   24.4480 C.3     1  UNL1        0.1538
     26 C           5.4404   -2.1012   22.6900 C.ar    1  UNL1        0.0684
     27 C           5.7131   -0.7444   22.1115 C.ar    1  UNL1        0.0100
     28 C           5.0515    0.4676   22.6975 C.ar    1  UNL1       -0.0016
     29 C           4.1171    0.3226   23.8620 C.ar    1  UNL1        0.0021
     30 C           3.8445   -1.0342   24.4404 C.ar    1  UNL1       -0.0016
     31 C           4.5061   -2.2462   23.8544 C.ar    1  UNL1        0.0100
     32 N           6.7639   -4.5250   21.5178 N.1     1  UNL1       -0.1908
     33 C           6.1021   -3.3131   22.1039 C.1     1  UNL1        0.1004
@<TRIPOS>BOND
     1    32    33    3
     2    33    26    1
     3    26    27   ar
     4    27    28   ar
     5    28    29   ar
     6    29    25    1
     7    25    20    1
     8    20    21   ar
     9    21    22   ar
    10    22    23   ar
    11    23    24   ar
    12    24     1    1
    13     1     2   ar
    14     2     3   ar
    15     3     4    1
    16     3     5   ar
    17     5     6   ar
    18     6     7   ar
    19     7     8   ar
    20     8    11    1
    21    11    12    2
    22    12    13    1
    23    13    14    2
    24    14    15    1
    25    15    16    2
    26    16    17    1
    27    17    18    2
    28    18    19    1
    29     8     9   ar
    30     9    10   ar
    31    29    30   ar
    32    30    31   ar
    33    31    26   ar
    34    24    20   ar
    35    10     1   ar
    36     9     5   ar
    37    19    11    1
    38    18    14    1
@<TRIPOS>MOLECULE
*****
 33 38 0 0 0
SMALL
GASTEIGER

@<TRIPOS>ATOM
      1 C          -9.3385  -17.3330   24.2015 C.ar    1  UNL1        0.0198
      2 C         -10.8313  -17.2449   24.0853 C.ar    1  UNL1        0.0146
      3 C         -11.5277  -17.8406   22.8977 C.ar    1  UNL1        0.0786
      4 CL        -13.0206  -17.7524   22.7816 Cl      1  UNL1       -0.0806
      5 C         -10.7311  -18.5244   21.8264 C.ar    1  UNL1        0.1326
      6 N         -11.1374  -19.1997   20.5501 N.ar    1  UNL1       -0.1276
      7 N          -9.8956  -19.7052   19.8775 N.ar    1  UNL1       -0.0598
      8 N          -8.7218  -19.3423   20.7381 N.ar    1  UNL1       -0.2141
      9 C          -9.2382  -18.6125   21.9426 C.ar    1  UNL1        0.1043
     10 C          -8.5419  -18.0168   23.1301 C.ar    1  UNL1        0.0223
     11 C          -7.2841  -19.6544   20.4455 C.2     1  UNL1        0.0681
     12 C          -6.7603  -21.0439   20.6570 C.2     1  UNL1        0.0153
     13 C          -5.3225  -21.3561   20.3644 C.2     1  UNL1        0.0041
     14 C          -4.4087  -20.2788   19.8605 C.2     1  UNL1        0.0367
     15 C          -2.9556  -20.2879   19.4884 C.2     1  UNL1        0.1233
     16 N          -2.5813  -18.9040   19.0471 N.2     1  UNL1       -0.1467
     17 N          -3.8032  -18.0395   19.1463 N.2     1  UNL1       -0.1519
     18 C          -4.9326  -18.8891   19.6490 C.2     1  UNL1        0.0880
     19 C          -6.3702  -18.5769   19.9416 C.3     1  UNL1        0.0934
     20 N          -7.4924  -15.7749   25.3459 N.ar    1  UNL1       -0.2464
     21 N          -7.1130  -15.4423   26.7585 N.ar    1  UNL1       -0.1674
     22 C          -8.0281  -16.1993   27.6747 C.ar    1  UNL1        0.1217
     23 C          -8.9732  -16.9997   26.8284 C.ar    1  UNL1        0.0412
     24 C          -8.6421  -16.7374   25.3891 C.ar    1  UNL1        0.0799
     25 C          -6.8373  -15.2390   24.1075 C.3     1  UNL1        0.1538
     26 C          -3.0794  -17.1557   22.5410 C.ar    1  UNL1        0.0684
     27 C          -4.1736  -18.0076   23.1128 C.ar    1  UNL1        0.0100
     28 C          -5.4263  -17.3687   23.6350 C.ar    1  UNL1       -0.0016
     29 C          -5.5846  -15.8779   23.5853 C.ar    1  UNL1        0.0021
     30 C          -4.4904  -15.0261   23.0135 C.ar    1  UNL1       -0.0016
     31 C          -3.2377  -15.6650   22.4913 C.ar    1  UNL1        0.0100
     32 N          -0.5741  -18.4336   21.4966 N.1     1  UNL1       -0.1908
     33 C          -1.8267  -17.7947   22.0188 C.1     1  UNL1        0.1004
@<TRIPOS>BOND
     1    32    33    3
     2    33    26    1
     3    26    27   ar
     4    27    28   ar
     5    28    29   ar
     6    29    25    1
     7    25    20    1
     8    20    21   ar
     9    21    22   ar
    10    22    23   ar
    11    23    24   ar
    12    24     1    1
    13     1     2   ar
    14     2     3   ar
    15     3     4    1
    16     3     5   ar
    17     5     6   ar
    18     6     7   ar
    19     7     8   ar
    20     8    11    1
    21    11    12    2
    22    12    13    1
    23    13    14    2
    24    14    15    1
    25    15    16    2
    26    16    17    1
    27    17    18    2
    28    18    19    1
    29     8     9   ar
    30     9    10   ar
    31    29    30   ar
    32    30    31   ar
    33    31    26   ar
    34    24    20   ar
    35    10     1   ar
    36     9     5   ar
    37    19    11    1
    38    18    14    1
@<TRIPOS>MOLECULE
*****
 33 38 0 0 0
SMALL
GASTEIGER

@<TRIPOS>ATOM
      1 C           0.6949    2.0467   23.1567 C.ar    1  UNL1        0.0198
      2 C          -0.0003    2.3677   24.4465 C.ar    1  UNL1        0.0146
      3 C           0.5085    1.7940   25.7358 C.ar    1  UNL1        0.0786
      4 CL         -0.1867    2.1151   27.0256 Cl      1  UNL1       -0.0806
      5 C           1.7125    0.8994   25.7351 C.ar    1  UNL1        0.1326
      6 N           2.4381    0.1923   26.8413 N.ar    1  UNL1       -0.1276
      7 N           3.5817   -0.5656   26.2351 N.ar    1  UNL1       -0.0598
      8 N           3.5629   -0.3271   24.7543 N.ar    1  UNL1       -0.2141
      9 C           2.4076    0.5784   24.4453 C.ar    1  UNL1        0.1043
     10 C           1.8989    1.1520   23.1561 C.ar    1  UNL1        0.0223
     11 C           4.5297   -0.8944   23.7575 C.2     1  UNL1        0.0681
     12 C           5.3993    0.0231   22.9502 C.2     1  UNL1        0.0153
     13 C           6.3661   -0.5441   21.9533 C.2     1  UNL1        0.0041
     14 C           6.4632   -2.0289   21.7639 C.2     1  UNL1        0.0367
     15 C           7.3162   -2.8722   20.8631 C.2     1  UNL1        0.1233
     16 N           6.9736   -4.3109   21.1137 N.2     1  UNL1       -0.1467
     17 N           5.9090   -4.3568   22.1695 N.2     1  UNL1       -0.1519
     18 C           5.5935   -2.9464   22.5713 C.2     1  UNL1        0.0880
     19 C           4.6268   -2.3792   23.5681 C.3     1  UNL1        0.0934
     20 N          -0.0625    1.8572   20.6002 N.ar    1  UNL1       -0.2464
     21 N          -0.5656    2.8231   19.5687 N.ar    1  UNL1       -0.1674
     22 C          -0.6279    4.1831   20.1984 C.ar    1  UNL1        0.1217
     23 C          -0.1633    4.0578   21.6191 C.ar    1  UNL1        0.0412
     24 C           0.1861    2.6203   21.8674 C.ar    1  UNL1        0.0799
     25 C           0.1539    0.3865   20.3997 C.3     1  UNL1        0.1538
     26 C           3.9972   -1.0958   18.5883 C.ar    1  UNL1        0.0684
     27 C           3.4575   -1.7379   19.8319 C.ar    1  UNL1        0.0100
     28 C           2.1764   -1.2438   20.4358 C.ar    1  UNL1       -0.0016
     29 C           1.4350   -0.1076   19.7959 C.ar    1  UNL1        0.0021
     30 C           1.9746    0.5344   18.5523 C.ar    1  UNL1       -0.0016
     31 C           3.2557    0.0403   17.9485 C.ar    1  UNL1        0.0100
     32 N           6.5594   -2.0842   17.3807 N.1     1  UNL1       -0.1908
     33 C           5.2783   -1.5900   17.9845 C.1     1  UNL1        0.1004
@<TRIPOS>BOND
     1    32    33    3
     2    33    26    1
     3    26    27   ar
     4    27    28   ar
     5    28    29   ar
     6    29    25    1
     7    25    20    1
     8    20    21   ar
     9    21    22   ar
    10    22    23   ar
    11    23    24   ar
    12    24     1    1
    13     1     2   ar
    14     2     3   ar
    15     3     4    1
    16     3     5   ar
    17     5     6   ar
    18     6     7   ar
    19     7     8   ar
    20     8    11    1
    21    11    12    2
    22    12    13    1
    23    13    14    2
    24    14    15    1
    25    15    16    2
    26    16    17    1
    27    17    18    2
    28    18    19    1
    29     8     9   ar
    30     9    10   ar
    31    29    30   ar
    32    30    31   ar
    33    31    26   ar
    34    24    20   ar
    35    10     1   ar
    36     9     5   ar
    37    19    11    1
    38    18    14    1
@<TRIPOS>MOLECULE
*****
 33 38 0 0 0
SMALL
GASTEIGER

@<TRIPOS>ATOM
      1 C          -8.9499  -16.2062   23.5829 C.ar    1  UNL1        0.0198
      2 C          -9.4173  -15.6123   24.8785 C.ar    1  UNL1        0.0146
      3 C          -8.4319  -15.3332   25.9745 C.ar    1  UNL1        0.0786
      4 CL         -8.8995  -14.7392   27.2701 Cl      1  UNL1       -0.0806
      5 C          -6.9791  -15.6482   25.7748 C.ar    1  UNL1        0.1326
      6 N          -5.7847  -15.4844   26.6674 N.ar    1  UNL1       -0.1276
      7 N          -4.5791  -15.9772   25.9234 N.ar    1  UNL1       -0.0598
      8 N          -5.0283  -16.4456   24.5710 N.ar    1  UNL1       -0.2141
      9 C          -6.5116  -16.2422   24.4792 C.ar    1  UNL1        0.1043
     10 C          -7.4970  -16.5212   23.3832 C.ar    1  UNL1        0.0223
     11 C          -4.1486  -17.0169   23.4987 C.2     1  UNL1        0.0681
     12 C          -4.2253  -18.4772   23.1648 C.2     1  UNL1        0.0153
     13 C          -3.3456  -19.0487   22.0925 C.2     1  UNL1        0.0041
     14 C          -2.3893  -18.1597   21.3542 C.2     1  UNL1        0.0367
     15 C          -1.4048  -18.4366   20.2568 C.2     1  UNL1        0.1233
     16 N          -0.7198  -17.1473   19.9125 N.2     1  UNL1       -0.1467
     17 N          -1.2809  -16.0736   20.7971 N.2     1  UNL1       -0.1519
     18 C          -2.3127  -16.6993   21.6882 C.2     1  UNL1        0.0880
     19 C          -3.1923  -16.1279   22.7604 C.3     1  UNL1        0.0934
     20 N         -10.2704  -17.8351   21.9251 N.ar    1  UNL1       -0.2464
     21 N         -11.3008  -17.6474   20.8513 N.ar    1  UNL1       -0.1674
     22 C         -11.6024  -16.1816   20.7493 C.ar    1  UNL1        0.1217
     23 C         -10.7585  -15.4633   21.7602 C.ar    1  UNL1        0.0412
     24 C          -9.9353  -16.4853   22.4869 C.ar    1  UNL1        0.0799
     25 C          -9.6790  -19.1430   22.3607 C.3     1  UNL1        0.1538
     26 C          -5.7927  -20.5571   20.5870 C.ar    1  UNL1        0.0684
     27 C          -6.7042  -19.6732   19.7881 C.ar    1  UNL1        0.0100
     28 C          -7.9996  -19.2018   20.3793 C.ar    1  UNL1       -0.0016
     29 C          -8.3836  -19.6143   21.7695 C.ar    1  UNL1        0.0021
     30 C          -7.4722  -20.4982   22.5683 C.ar    1  UNL1       -0.0016
     31 C          -6.1767  -20.9695   21.9770 C.ar    1  UNL1        0.0100
     32 N          -3.2018  -21.4997   19.4044 N.1     1  UNL1       -0.1908
     33 C          -4.4973  -21.0284   19.9956 C.1     1  UNL1        0.1004
@<TRIPOS>BOND
     1    32    33    3
     2    33    26    1
     3    26    27   ar
     4    27    28   ar
     5    28    29   ar
     6    29    25    1
     7    25    20    1
     8    20    21   ar
     9    21    22   ar
    10    22    23   ar
    11    23    24   ar
    12    24     1    1
    13     1     2   ar
    14     2     3   ar
    15     3     4    1
    16     3     5   ar
    17     5     6   ar
    18     6     7   ar
    19     7     8   ar
    20     8    11    1
    21    11    12    2
    22    12    13    1
    23    13    14    2
    24    14    15    1
    25    15    16    2
    26    16    17    1
    27    17    18    2
    28    18    19    1
    29     8     9   ar
    30     9    10   ar
    31    29    30   ar
    32    30    31   ar
    33    31    26   ar
    34    24    20   ar
    35    10     1   ar
    36     9     5   ar
    37    19    11    1
    38    18    14    1
@<TRIPOS>MOLECULE
*****
 33 38 0 0 0
SMALL
GASTEIGER

@<TRIPOS>ATOM
      1 C           5.6423   -2.4605   25.4244 C.ar    1  UNL1        0.0198
      2 C           6.5332   -3.4001   26.1815 C.ar    1  UNL1        0.0146
      3 C           7.3476   -4.4205   25.4427 C.ar    1  UNL1        0.0786
      4 CL          8.2387   -5.3601   26.1999 Cl      1  UNL1       -0.0806
      5 C           7.2709   -4.5011   23.9469 C.ar    1  UNL1        0.1326
      6 N           7.9513   -5.3961   22.9538 N.ar    1  UNL1       -0.1276
      7 N           7.4808   -5.0095   21.5830 N.ar    1  UNL1       -0.0598
      8 N           6.5096   -3.8757   21.7288 N.ar    1  UNL1       -0.2141
      9 C           6.3799   -3.5615   23.1898 C.ar    1  UNL1        0.1043
     10 C           5.5655   -2.5412   23.9286 C.ar    1  UNL1        0.0223
     11 C           5.7938   -3.1785   20.6101 C.2     1  UNL1        0.0681
     12 C           4.3000   -3.2666   20.5054 C.2     1  UNL1        0.0153
     13 C           3.5842   -2.5694   19.3866 C.2     1  UNL1        0.0041
     14 C           4.3620   -1.7842   18.3727 C.2     1  UNL1        0.0367
     15 C           3.9346   -0.9974   17.1692 C.2     1  UNL1        0.1233
     16 N           5.1641   -0.4231   16.5301 N.2     1  UNL1       -0.1467
     17 N           6.3516   -0.8549   17.3387 N.2     1  UNL1       -0.1519
     18 C           5.8559   -1.6961   18.4774 C.2     1  UNL1        0.0880
     19 C           6.5717   -2.3933   19.5961 C.3     1  UNL1        0.0934
     20 N           4.5788   -0.0268   25.7268 N.ar    1  UNL1       -0.2464
     21 N           3.7165    0.6328   26.7620 N.ar    1  UNL1       -0.1674
     22 C           3.4328   -0.3729   27.8382 C.ar    1  UNL1        0.1217
     23 C           4.1197   -1.6540   27.4681 C.ar    1  UNL1        0.0412
     24 C           4.8279   -1.4401   26.1632 C.ar    1  UNL1        0.0799
     25 C           5.1002    0.6143   24.4750 C.3     1  UNL1        0.1538
     26 C           2.5609    0.6920   20.7608 C.ar    1  UNL1        0.0684
     27 C           1.9515    0.3134   22.0782 C.ar    1  UNL1        0.0100
     28 C           2.7980    0.2875   23.3163 C.ar    1  UNL1       -0.0016
     29 C           4.2538    0.6402   23.2369 C.ar    1  UNL1        0.0021
     30 C           4.8631    1.0188   21.9196 C.ar    1  UNL1       -0.0016
     31 C           4.0166    1.0446   20.6815 C.ar    1  UNL1        0.0100
     32 N           0.8678    0.7436   18.2847 N.1     1  UNL1       -0.1908
     33 C           1.7144    0.7179   19.5228 C.1     1  UNL1        0.1004
@<TRIPOS>BOND
     1    32    33    3
     2    33    26    1
     3    26    27   ar
     4    27    28   ar
     5    28    29   ar
     6    29    25    1
     7    25    20    1
     8    20    21   ar
     9    21    22   ar
    10    22    23   ar
    11    23    24   ar
    12    24     1    1
    13     1     2   ar
    14     2     3   ar
    15     3     4    1
    16     3     5   ar
    17     5     6   ar
    18     6     7   ar
    19     7     8   ar
    20     8    11    1
    21    11    12    2
    22    12    13    1
    23    13    14    2
    24    14    15    1
    25    15    16    2
    26    16    17    1
    27    17    18    2
    28    18    19    1
    29     8     9   ar
    30     9    10   ar
    31    29    30   ar
    32    30    31   ar
    33    31    26   ar
    34    24    20   ar
    35    10     1   ar
    36     9     5   ar
    37    19    11    1
    38    18    14    1
@<TRIPOS>MOLECULE
*****
 33 38 0 0 0
SMALL
GASTEIGER

@<TRIPOS>ATOM
      1 C           4.4139   -2.4996   22.2402 C.ar    1  UNL1        0.0198
      2 C           5.3605   -3.1286   23.2190 C.ar    1  UNL1        0.0146
      3 C           5.3900   -2.6574   24.6428 C.ar    1  UNL1        0.0786
      4 CL          6.3366   -3.2866   25.6217 Cl      1  UNL1       -0.0806
      5 C           4.4728   -1.5570   25.0877 C.ar    1  UNL1        0.1326
      6 N           4.2779   -0.8884   26.4162 N.ar    1  UNL1       -0.1276
      7 N           3.2108    0.1539   26.2584 N.ar    1  UNL1       -0.0598
      8 N           2.7462    0.1295   24.8324 N.ar    1  UNL1       -0.2141
      9 C           3.5262   -0.9279   24.1088 C.ar    1  UNL1        0.1043
     10 C           3.4967   -1.3992   22.6851 C.ar    1  UNL1        0.0223
     11 C           1.6875    1.0082   24.2348 C.2     1  UNL1        0.0681
     12 C           1.7689    1.4043   22.7904 C.2     1  UNL1        0.0153
     13 C           0.7103    2.2830   22.1928 C.2     1  UNL1        0.0041
     14 C          -0.4297    2.7657   23.0397 C.2     1  UNL1        0.0367
     15 C          -1.6119    3.6357   22.7303 C.2     1  UNL1        0.1233
     16 N          -2.4239    3.7773   23.9835 N.2     1  UNL1       -0.1467
     17 N          -1.7436    2.9948   25.0675 N.2     1  UNL1       -0.1519
     18 C          -0.5111    2.3697   24.4842 C.2     1  UNL1        0.0880
     19 C           0.5475    1.4910   25.0818 C.3     1  UNL1        0.0934
     20 N           4.5161   -2.1054   19.5983 N.ar    1  UNL1       -0.2464
     21 N           4.4312   -2.9901   18.3899 N.ar    1  UNL1       -0.1674
     22 C           4.2470   -4.4021   18.8612 C.ar    1  UNL1        0.1217
     23 C           4.2182   -4.3903   20.3608 C.ar    1  UNL1        0.0412
     24 C           4.3845   -2.9708   20.8164 C.ar    1  UNL1        0.0799
     25 C           4.7003   -0.6168   19.5901 C.3     1  UNL1        0.1538
     26 C           1.2535    2.0711   18.5204 C.ar    1  UNL1        0.0684
     27 C           1.0016    0.6388   18.8885 C.ar    1  UNL1        0.0100
     28 C           2.1506   -0.2571   19.2451 C.ar    1  UNL1       -0.0016
     29 C           3.5514    0.2792   19.2335 C.ar    1  UNL1        0.0021
     30 C           3.8033    1.7113   18.8654 C.ar    1  UNL1       -0.0016
     31 C           2.6543    2.6073   18.5088 C.ar    1  UNL1        0.0100
     32 N          -1.0445    3.8629   17.8073 N.1     1  UNL1       -0.1908
     33 C           0.1045    2.9670   18.1638 C.1     1  UNL1        0.1004
@<TRIPOS>BOND
     1    32    33    3
     2    33    26    1
     3    26    27   ar
     4    27    28   ar
     5    28    29   ar
     6    29    25    1
     7    25    20    1
     8    20    21   ar
     9    21    22   ar
    10    22    23   ar
    11    23    24   ar
    12    24     1    1
    13     1     2   ar
    14     2     3   ar
    15     3     4    1
    16     3     5   ar
    17     5     6   ar
    18     6     7   ar
    19     7     8   ar
    20     8    11    1
    21    11    12    2
    22    12    13    1
    23    13    14    2
    24    14    15    1
    25    15    16    2
    26    16    17    1
    27    17    18    2
    28    18    19    1
    29     8     9   ar
    30     9    10   ar
    31    29    30   ar
    32    30    31   ar
    33    31    26   ar
    34    24    20   ar
    35    10     1   ar
    36     9     5   ar
    37    19    11    1
    38    18    14    1
@<TRIPOS>MOLECULE
*****
 33 38 0 0 0
SMALL
GASTEIGER

@<TRIPOS>ATOM
      1 C           3.7555    0.8214   19.0209 C.ar    1  UNL1        0.0198
      2 C           2.5239    1.4327   18.4215 C.ar    1  UNL1        0.0146
      3 C           1.3408    1.7417   19.2904 C.ar    1  UNL1        0.0786
      4 CL          0.1092    2.3530   18.6909 Cl      1  UNL1       -0.0806
      5 C           1.3895    1.4393   20.7588 C.ar    1  UNL1        0.1326
      6 N           0.3861    1.6319   21.8570 N.ar    1  UNL1       -0.1276
      7 N           0.9976    1.1395   23.1351 N.ar    1  UNL1       -0.0598
      8 N           2.3789    0.6427   22.8269 N.ar    1  UNL1       -0.2141
      9 C           2.6212    0.8280   21.3582 C.ar    1  UNL1        0.1043
     10 C           3.8041    0.5190   20.4893 C.ar    1  UNL1        0.0223
     11 C           3.3479    0.0624   23.8140 C.2     1  UNL1        0.0681
     12 C           4.8039   -0.0353   23.4670 C.2     1  UNL1        0.0153
     13 C           5.7729   -0.6156   24.4541 C.2     1  UNL1        0.0041
     14 C           5.2859   -1.0980   25.7882 C.2     1  UNL1        0.0367
     15 C           6.0004   -1.7118   26.9557 C.2     1  UNL1        0.1233
     16 N           4.9860   -1.9933   28.0242 N.2     1  UNL1       -0.1467
     17 N           3.6445   -1.5535   27.5171 N.2     1  UNL1       -0.1519
     18 C           3.8298   -1.0002   26.1353 C.2     1  UNL1        0.0880
     19 C           2.8608   -0.4200   25.1482 C.3     1  UNL1        0.0934
     20 N           5.4702   -0.8551   17.8400 N.ar    1  UNL1       -0.2464
     21 N           6.6578   -0.6960   16.9377 N.ar    1  UNL1       -0.1674
     22 C           6.8601    0.7699   16.6919 C.ar    1  UNL1        0.1217
     23 C           5.7975    1.5167   17.4424 C.ar    1  UNL1        0.0412
     24 C           4.9385    0.5123   18.1519 C.ar    1  UNL1        0.0799
     25 C           4.9122   -2.1537   18.3423 C.3     1  UNL1        0.1538
     26 C           6.0561   -3.6658   22.4233 C.ar    1  UNL1        0.0684
     27 C           7.1137   -3.1609   21.4869 C.ar    1  UNL1        0.0100
     28 C           6.7324   -2.6569   20.1265 C.ar    1  UNL1       -0.0016
     29 C           5.2935   -2.6578   19.7026 C.ar    1  UNL1        0.0021
     30 C           4.2360   -3.1627   20.6390 C.ar    1  UNL1       -0.0016
     31 C           4.6174   -3.6667   21.9993 C.ar    1  UNL1        0.0100
     32 N           6.8190   -4.6739   25.1439 N.1     1  UNL1       -0.1908
     33 C           6.4375   -4.1698   23.7836 C.1     1  UNL1        0.1004
@<TRIPOS>BOND
     1    32    33    3
     2    33    26    1
     3    26    27   ar
     4    27    28   ar
     5    28    29   ar
     6    29    25    1
     7    25    20    1
     8    20    21   ar
     9    21    22   ar
    10    22    23   ar
    11    23    24   ar
    12    24     1    1
    13     1     2   ar
    14     2     3   ar
    15     3     4    1
    16     3     5   ar
    17     5     6   ar
    18     6     7   ar
    19     7     8   ar
    20     8    11    1
    21    11    12    2
    22    12    13    1
    23    13    14    2
    24    14    15    1
    25    15    16    2
    26    16    17    1
    27    17    18    2
    28    18    19    1
    29     8     9   ar
    30     9    10   ar
    31    29    30   ar
    32    30    31   ar
    33    31    26   ar
    34    24    20   ar
    35    10     1   ar
    36     9     5   ar
    37    19    11    1
    38    18    14    1
@<TRIPOS>MOLECULE
*****
 33 38 0 0 0
SMALL
GASTEIGER

@<TRIPOS>ATOM
      1 C           2.4670    2.9913   18.8328 C.ar    1  UNL1        0.0198
      2 C           2.5148    4.2906   18.0848 C.ar    1  UNL1        0.0146
      3 C           3.7515    4.6755   17.3282 C.ar    1  UNL1        0.0786
      4 CL          3.7992    5.9748   16.5802 Cl      1  UNL1       -0.0806
      5 C           4.9405    3.7610   17.3196 C.ar    1  UNL1        0.1326
      6 N           6.2872    3.8717   16.6683 N.ar    1  UNL1       -0.1276
      7 N           7.0717    2.6408   17.0138 N.ar    1  UNL1       -0.0598
      8 N           6.2099    1.7693   17.8787 N.ar    1  UNL1       -0.2141
      9 C           4.8927    2.4617   18.0677 C.ar    1  UNL1        0.1043
     10 C           3.6560    2.0769   18.8242 C.ar    1  UNL1        0.0223
     11 C           6.5973    0.4391   18.4536 C.2     1  UNL1        0.0681
     12 C           6.3816   -0.8135   17.6572 C.2     1  UNL1        0.0153
     13 C           6.7690   -2.1438   18.2320 C.2     1  UNL1        0.0041
     14 C           7.3720   -2.2213   19.6032 C.2     1  UNL1        0.0367
     15 C           7.8492   -3.3814   20.4258 C.2     1  UNL1        0.1233
     16 N           8.3598   -2.8457   21.7305 N.2     1  UNL1       -0.1467
     17 N           8.1982   -1.3544   21.7143 N.2     1  UNL1       -0.1519
     18 C           7.5877   -0.9686   20.3996 C.2     1  UNL1        0.0880
     19 C           7.2003    0.3616   19.8248 C.3     1  UNL1        0.0934
     20 N           0.7450    1.2082   19.8329 N.ar    1  UNL1       -0.2464
     21 N          -0.5235    1.2899   20.6294 N.ar    1  UNL1       -0.1674
     22 C          -0.8221    2.7387   20.8781 C.ar    1  UNL1        0.1217
     23 C           0.2617    3.5524   20.2354 C.ar    1  UNL1        0.0412
     24 C           1.2303    2.6065   19.5894 C.ar    1  UNL1        0.0799
     25 C           1.4112   -0.0508   19.3626 C.3     1  UNL1        0.1538
     26 C           4.1271   -2.3297   22.1338 C.ar    1  UNL1        0.0684
     27 C           3.3499   -1.1531   22.6453 C.ar    1  UNL1        0.0100
     28 C           2.4445   -0.3934   21.7215 C.ar    1  UNL1       -0.0016
     29 C           2.3165   -0.8104   20.2864 C.ar    1  UNL1        0.0021
     30 C           3.0937   -1.9870   19.7750 C.ar    1  UNL1       -0.0016
     31 C           3.9991   -2.7467   20.6987 C.ar    1  UNL1        0.0100
     32 N           5.9377   -3.8488   23.9816 N.1     1  UNL1       -0.1908
     33 C           5.0324   -3.0893   23.0577 C.1     1  UNL1        0.1004
@<TRIPOS>BOND
     1    32    33    3
     2    33    26    1
     3    26    27   ar
     4    27    28   ar
     5    28    29   ar
     6    29    25    1
     7    25    20    1
     8    20    21   ar
     9    21    22   ar
    10    22    23   ar
    11    23    24   ar
    12    24     1    1
    13     1     2   ar
    14     2     3   ar
    15     3     4    1
    16     3     5   ar
    17     5     6   ar
    18     6     7   ar
    19     7     8   ar
    20     8    11    1
    21    11    12    2
    22    12    13    1
    23    13    14    2
    24    14    15    1
    25    15    16    2
    26    16    17    1
    27    17    18    2
    28    18    19    1
    29     8     9   ar
    30     9    10   ar
    31    29    30   ar
    32    30    31   ar
    33    31    26   ar
    34    24    20   ar
    35    10     1   ar
    36     9     5   ar
    37    19    11    1
    38    18    14    1
@<TRIPOS>MOLECULE
*****
 33 38 0 0 0
SMALL
GASTEIGER

@<TRIPOS>ATOM
      1 C          -1.7634    3.5192   20.4175 C.ar    1  UNL1        0.0198
      2 C          -3.0608    3.4393   19.6690 C.ar    1  UNL1        0.0146
      3 C          -4.3597    3.4221   20.4191 C.ar    1  UNL1        0.0786
      4 CL         -5.6571    3.3422   19.6705 Cl      1  UNL1       -0.0806
      5 C          -4.3611    3.4848   21.9178 C.ar    1  UNL1        0.1326
      6 N          -5.4759    3.4851   22.9213 N.ar    1  UNL1       -0.1276
      7 N          -4.8675    3.5652   24.2900 N.ar    1  UNL1       -0.0598
      8 N          -3.3766    3.6144   24.1324 N.ar    1  UNL1       -0.2141
      9 C          -3.0636    3.5647   22.6663 C.ar    1  UNL1        0.1043
     10 C          -1.7648    3.5819   21.9161 C.ar    1  UNL1        0.0223
     11 C          -2.3747    3.6985   25.2456 C.2     1  UNL1        0.0681
     12 C          -2.3428    4.9050   26.1363 C.2     1  UNL1        0.0153
     13 C          -1.3408    4.9891   27.2495 C.2     1  UNL1        0.0041
     14 C          -0.3709    3.8669   27.4719 C.2     1  UNL1        0.0367
     15 C           0.7218    3.6696   28.4805 C.2     1  UNL1        0.1233
     16 N           1.3652    2.3412   28.2131 N.2     1  UNL1       -0.1467
     17 N           0.6701    1.7175   27.0391 N.2     1  UNL1       -0.1519
     18 C          -0.4028    2.6603   26.5811 C.2     1  UNL1        0.0880
     19 C          -1.4047    2.5762   25.4680 C.3     1  UNL1        0.0934
     20 N           0.4738    2.3779   19.5023 N.ar    1  UNL1       -0.2464
     21 N           1.6423    2.8408   18.6834 N.ar    1  UNL1       -0.1674
     22 C           1.4261    4.2854   18.3425 C.ar    1  UNL1        0.1217
     23 C           0.1241    4.7154   18.9505 C.ar    1  UNL1        0.0412
     24 C          -0.4645    3.5365   19.6673 C.ar    1  UNL1        0.0799
     25 C           0.2779    0.9986   20.0583 C.3     1  UNL1        0.1538
     26 C           2.8340   -0.4343   23.4734 C.ar    1  UNL1        0.0684
     27 C           1.8140    0.6420   23.7002 C.ar    1  UNL1        0.0100
     28 C           0.9620    1.1196   22.5618 C.ar    1  UNL1       -0.0016
     29 C           1.1300    0.5210   21.1967 C.ar    1  UNL1        0.0021
     30 C           2.1499   -0.5553   20.9700 C.ar    1  UNL1       -0.0016
     31 C           3.0020   -1.0329   22.1084 C.ar    1  UNL1        0.0100
     32 N           4.5379   -1.3895   25.7504 N.1     1  UNL1       -0.1908
     33 C           3.6860   -0.9119   24.6119 C.1     1  UNL1        0.1004
@<TRIPOS>BOND
     1    32    33    3
     2    33    26    1
     3    26    27   ar
     4    27    28   ar
     5    28    29   ar
     6    29    25    1
     7    25    20    1
     8    20    21   ar
     9    21    22   ar
    10    22    23   ar
    11    23    24   ar
    12    24     1    1
    13     1     2   ar
    14     2     3   ar
    15     3     4    1
    16     3     5   ar
    17     5     6   ar
    18     6     7   ar
    19     7     8   ar
    20     8    11    1
    21    11    12    2
    22    12    13    1
    23    13    14    2
    24    14    15    1
    25    15    16    2
    26    16    17    1
    27    17    18    2
    28    18    19    1
    29     8     9   ar
    30     9    10   ar
    31    29    30   ar
    32    30    31   ar
    33    31    26   ar
    34    24    20   ar
    35    10     1   ar
    36     9     5   ar
    37    19    11    1
    38    18    14    1
