@<TRIPOS>MOLECULE
*****
 30 33 0 0 0
SMALL
GASTEIGER

@<TRIPOS>ATOM
      1 C           6.6723   -4.0771   29.4792 C.ar    1  UNL1        0.0515
      2 C           6.9434   -4.6659   30.8319 C.ar    1  UNL1        0.0160
      3 C           6.7762   -3.8253   32.0629 C.ar    1  UNL1        0.0175
      4 C           6.3381   -2.3960   31.9413 C.ar    1  UNL1        0.0718
      5 C           6.0670   -1.8072   30.5886 C.ar    1  UNL1        0.0730
      6 CL          5.6288   -0.3777   30.4670 Cl      1  UNL1       -0.0809
      7 C           6.2342   -2.6477   29.3576 C.ar    1  UNL1        0.0273
      8 N           6.1709   -1.5554   33.1724 N.am    1  UNL1       -0.2002
      9 C           4.9819   -1.5576   34.0868 C.2     1  UNL1        0.2589
     10 O           3.7511   -2.4008   33.9306 O.2     1  UNL1       -0.2691
     11 C           5.2396   -0.5686   35.1847 C.ar    1  UNL1        0.0595
     12 C           4.4206   -0.1474   36.3687 C.ar    1  UNL1        0.0047
     13 C           4.9501    0.8873   37.3169 C.ar    1  UNL1        0.0010
     14 C           6.2984    1.5007   37.0811 C.ar    1  UNL1        0.0115
     15 C           7.1174    1.0795   35.8971 C.ar    1  UNL1        0.0622
     16 CL          8.4657    1.6930   35.6613 Cl      1  UNL1       -0.0821
     17 C           6.5879    0.0449   34.9489 C.ar    1  UNL1        0.0692
     18 C           7.1635   -0.5650   33.7052 C.2     1  UNL1        0.2597
     19 O           8.4975   -0.2413   33.1006 O.2     1  UNL1       -0.2691
     20 O           9.2429   -3.9819   27.9355 O.2     1  UNL1       -0.2681
     21 C           8.1247   -4.8701   27.4763 C.2     1  UNL1        0.2681
     22 N           6.8395   -4.9177   28.2481 N.am    1  UNL1       -0.2791
     23 H           6.1056   -5.5006   27.9467 H       1  UNL1        0.1552
     24 C           8.2918   -5.7106   26.2452 C.ar    1  UNL1        0.1452
     25 N           7.9332   -5.1509   24.9005 N.ar    1  UNL1       -0.2384
     26 C           8.1004   -5.9915   23.6694 C.ar    1  UNL1        0.0991
     27 C           8.6261   -7.3918   23.7831 C.ar    1  UNL1        0.0215
     28 C           8.9847   -7.9514   25.1278 C.ar    1  UNL1        0.0147
     29 C           8.8175   -7.1109   26.3588 C.ar    1  UNL1        0.0798
     30 CL          9.1761   -7.6705   27.7035 Cl      1  UNL1       -0.0805
@<TRIPOS>BOND
     1    20    21    2
     2    21    22   am
     3    22     1    1
     4     1     2   ar
     5     2     3   ar
     6     3     4   ar
     7     4     8    1
     8     8     9   am
     9     9    10    2
    10     9    11    1
    11    11    12   ar
    12    12    13   ar
    13    13    14   ar
    14    14    15   ar
    15    15    16    1
    16    15    17   ar
    17    17    18    1
    18    18    19    2
    19     4     5   ar
    20     5     6    1
    21     5     7   ar
    22    21    24    1
    23    24    25   ar
    24    25    26   ar
    25    26    27   ar
    26    27    28   ar
    27    28    29   ar
    28    29    30    1
    29     7     1   ar
    30    29    24   ar
    31    18     8   am
    32    17    11   ar
    33    22    23    1
@<TRIPOS>MOLECULE
*****
 30 33 0 0 0
SMALL
GASTEIGER

@<TRIPOS>ATOM
      1 C           4.5272   -2.7385   22.0103 C.ar    1  UNL1        0.0515
      2 C           3.9325   -1.6426   22.8440 C.ar    1  UNL1        0.0160
      3 C           3.2595   -0.4772   22.1814 C.ar    1  UNL1        0.0175
      4 C           3.1813   -0.4078   20.6851 C.ar    1  UNL1        0.0718
      5 C           3.7761   -1.5038   19.8514 C.ar    1  UNL1        0.0730
      6 CL          3.6979   -1.4344   18.3550 Cl      1  UNL1       -0.0809
      7 C           4.4490   -2.6691   20.5140 C.ar    1  UNL1        0.0273
      8 N           2.5084    0.7576   20.0225 N.am    1  UNL1       -0.2002
      9 C           1.0301    1.0041   19.9613 C.2     1  UNL1        0.2589
     10 O          -0.0349    0.1284   20.5520 O.2     1  UNL1       -0.2691
     11 C           0.8037    2.2799   19.2057 C.ar    1  UNL1        0.0595
     12 C          -0.4483    3.0181   18.8348 C.ar    1  UNL1        0.0047
     13 C          -0.3618    4.2984   18.0580 C.ar    1  UNL1        0.0010
     14 C           0.9766    4.8404   17.6522 C.ar    1  UNL1        0.0115
     15 C           2.2286    4.1023   18.0231 C.ar    1  UNL1        0.0622
     16 CL          3.5670    4.6444   17.6172 Cl      1  UNL1       -0.0821
     17 C           2.1421    2.8220   18.7998 C.ar    1  UNL1        0.0692
     18 C           3.1957    1.8812   19.3046 C.2     1  UNL1        0.2597
     19 O           4.6766    2.0366   19.1234 O.2     1  UNL1       -0.2691
     20 O           7.4778   -2.6604   22.5469 O.2     1  UNL1       -0.2681
     21 C           6.6754   -3.8649   22.9412 C.2     1  UNL1        0.2681
     22 N           5.2001   -3.9039   22.6729 N.am    1  UNL1       -0.2791
     23 H           4.6735   -4.6944   22.9317 H       1  UNL1        0.1552
     24 C           7.3483   -5.0303   23.6039 C.ar    1  UNL1        0.1452
     25 N           8.0553   -6.0598   22.7730 N.ar    1  UNL1       -0.2384
     26 C           8.7282   -7.2252   23.4356 C.ar    1  UNL1        0.0991
     27 C           8.6941   -7.3610   24.9291 C.ar    1  UNL1        0.0215
     28 C           7.9871   -6.3315   25.7599 C.ar    1  UNL1        0.0147
     29 C           7.3142   -5.1662   25.0973 C.ar    1  UNL1        0.0798
     30 CL          6.6072   -4.1367   25.9281 Cl      1  UNL1       -0.0805
@<TRIPOS>BOND
     1    20    21    2
     2    21    22   am
     3    22     1    1
     4     1     2   ar
     5     2     3   ar
     6     3     4   ar
     7     4     8    1
     8     8     9   am
     9     9    10    2
    10     9    11    1
    11    11    12   ar
    12    12    13   ar
    13    13    14   ar
    14    14    15   ar
    15    15    16    1
    16    15    17   ar
    17    17    18    1
    18    18    19    2
    19     4     5   ar
    20     5     6    1
    21     5     7   ar
    22    21    24    1
    23    24    25   ar
    24    25    26   ar
    25    26    27   ar
    26    27    28   ar
    27    28    29   ar
    28    29    30    1
    29     7     1   ar
    30    29    24   ar
    31    18     8   am
    32    17    11   ar
    33    22    23    1
@<TRIPOS>MOLECULE
*****
 30 33 0 0 0
SMALL
GASTEIGER

@<TRIPOS>ATOM
      1 C           0.2101    2.7852   27.8912 C.ar    1  UNL1        0.0515
      2 C           0.0151    1.6967   26.8777 C.ar    1  UNL1        0.0160
      3 C          -0.8869    1.9209   25.7004 C.ar    1  UNL1        0.0175
      4 C          -1.5939    3.2336   25.5365 C.ar    1  UNL1        0.0718
      5 C          -1.3990    4.3221   26.5500 C.ar    1  UNL1        0.0730
      6 CL         -2.1060    5.6348   26.3861 Cl      1  UNL1       -0.0809
      7 C          -0.4970    4.0979   27.7273 C.ar    1  UNL1        0.0273
      8 N          -2.4959    3.4578   24.3592 N.am    1  UNL1       -0.2002
      9 C          -2.0630    3.5868   22.9288 C.2     1  UNL1        0.2589
     10 O          -0.6522    3.5143   22.4246 O.2     1  UNL1       -0.2691
     11 C          -3.2887    3.8011   22.0910 C.ar    1  UNL1        0.0595
     12 C          -3.4746    3.9936   20.6151 C.ar    1  UNL1        0.0047
     13 C          -4.8510    4.1894   20.0519 C.ar    1  UNL1        0.0010
     14 C          -6.0414    4.1928   20.9645 C.ar    1  UNL1        0.0115
     15 C          -5.8555    4.0003   22.4404 C.ar    1  UNL1        0.0622
     16 CL         -7.0459    4.0037   23.3531 Cl      1  UNL1       -0.0821
     17 C          -4.4791    3.8045   23.0037 C.ar    1  UNL1        0.0692
     18 C          -3.9891    3.5923   24.4054 C.2     1  UNL1        0.2597
     19 O          -4.8426    3.5262   25.6372 O.2     1  UNL1       -0.2691
     20 O          -0.6352    0.9369   30.0979 O.2     1  UNL1       -0.2681
     21 C           0.6894    1.6369   30.1719 C.2     1  UNL1        0.2681
     22 N           1.1121    2.5610   29.0686 N.am    1  UNL1       -0.2791
     23 H           1.9814    3.0204   29.1171 H       1  UNL1        0.1552
     24 C           1.5914    1.4127   31.3492 C.ar    1  UNL1        0.1452
     25 N           2.5240    0.2378   31.3666 N.ar    1  UNL1       -0.2384
     26 C           3.4259    0.0136   32.5440 C.ar    1  UNL1        0.0991
     27 C           3.3954    0.9643   33.7039 C.ar    1  UNL1        0.0215
     28 C           2.4629    2.1390   33.6865 C.ar    1  UNL1        0.0147
     29 C           1.5609    2.3632   32.5092 C.ar    1  UNL1        0.0798
     30 CL          0.6284    3.5380   32.4917 Cl      1  UNL1       -0.0805
@<TRIPOS>BOND
     1    20    21    2
     2    21    22   am
     3    22     1    1
     4     1     2   ar
     5     2     3   ar
     6     3     4   ar
     7     4     8    1
     8     8     9   am
     9     9    10    2
    10     9    11    1
    11    11    12   ar
    12    12    13   ar
    13    13    14   ar
    14    14    15   ar
    15    15    16    1
    16    15    17   ar
    17    17    18    1
    18    18    19    2
    19     4     5   ar
    20     5     6    1
    21     5     7   ar
    22    21    24    1
    23    24    25   ar
    24    25    26   ar
    25    26    27   ar
    26    27    28   ar
    27    28    29   ar
    28    29    30    1
    29     7     1   ar
    30    29    24   ar
    31    18     8   am
    32    17    11   ar
    33    22    23    1
@<TRIPOS>MOLECULE
*****
 30 33 0 0 0
SMALL
GASTEIGER

@<TRIPOS>ATOM
      1 C          -1.7643    3.7711   21.3637 C.ar    1  UNL1        0.0515
      2 C          -0.7964    3.0569   22.2598 C.ar    1  UNL1        0.0160
      3 C           0.3695    2.3208   21.6691 C.ar    1  UNL1        0.0175
      4 C           0.5674    2.2989   20.1825 C.ar    1  UNL1        0.0718
      5 C          -0.4004    3.0131   19.2864 C.ar    1  UNL1        0.0730
      6 CL         -0.2025    2.9913   17.7996 Cl      1  UNL1       -0.0809
      7 C          -1.5663    3.7493   19.8770 C.ar    1  UNL1        0.0273
      8 N           1.7333    1.5628   19.5918 N.am    1  UNL1       -0.2002
      9 C           2.8868    2.1811   18.8590 C.2     1  UNL1        0.2589
     10 O           3.0770    3.6441   18.5880 O.2     1  UNL1       -0.2691
     11 C           3.8168    1.0795   18.4446 C.ar    1  UNL1        0.0595
     12 C           5.1159    1.0916   17.6947 C.ar    1  UNL1        0.0047
     13 C           5.8362   -0.1954   17.4216 C.ar    1  UNL1        0.0010
     14 C           5.2574   -1.4946   17.8984 C.ar    1  UNL1        0.0115
     15 C           3.9584   -1.5066   18.6483 C.ar    1  UNL1        0.0622
     16 CL          3.3797   -2.8058   19.1250 Cl      1  UNL1       -0.0821
     17 C           3.2381   -0.2196   18.9213 C.ar    1  UNL1        0.0692
     18 C           1.9505    0.0791   19.6304 C.2     1  UNL1        0.2597
     19 O           1.0398   -0.9290   20.2663 O.2     1  UNL1       -0.2691
     20 O          -4.4879    2.5133   21.3647 O.2     1  UNL1       -0.2681
     21 C          -4.2920    3.8784   21.9548 C.2     1  UNL1        0.2681
     22 N          -2.9302    4.5073   21.9543 N.am    1  UNL1       -0.2791
     23 H          -2.8016    5.4032   22.3416 H       1  UNL1        0.1552
     24 C          -5.4579    4.6145   22.5454 C.ar    1  UNL1        0.1452
     25 N          -6.2588    5.5560   21.6956 N.ar    1  UNL1       -0.2384
     26 C          -7.4247    6.2922   22.2863 C.ar    1  UNL1        0.0991
     27 C          -7.7896    6.0867   23.7267 C.ar    1  UNL1        0.0215
     28 C          -6.9887    5.1452   24.5764 C.ar    1  UNL1        0.0147
     29 C          -5.8228    4.4091   23.9857 C.ar    1  UNL1        0.0798
     30 CL         -5.0219    3.4676   24.8354 Cl      1  UNL1       -0.0805
@<TRIPOS>BOND
     1    20    21    2
     2    21    22   am
     3    22     1    1
     4     1     2   ar
     5     2     3   ar
     6     3     4   ar
     7     4     8    1
     8     8     9   am
     9     9    10    2
    10     9    11    1
    11    11    12   ar
    12    12    13   ar
    13    13    14   ar
    14    14    15   ar
    15    15    16    1
    16    15    17   ar
    17    17    18    1
    18    18    19    2
    19     4     5   ar
    20     5     6    1
    21     5     7   ar
    22    21    24    1
    23    24    25   ar
    24    25    26   ar
    25    26    27   ar
    26    27    28   ar
    27    28    29   ar
    28    29    30    1
    29     7     1   ar
    30    29    24   ar
    31    18     8   am
    32    17    11   ar
    33    22    23    1
@<TRIPOS>MOLECULE
*****
 30 33 0 0 0
SMALL
GASTEIGER

@<TRIPOS>ATOM
      1 C           0.2467    2.7562   27.9483 C.ar    1  UNL1        0.0515
      2 C           0.0466    1.6585   26.9459 C.ar    1  UNL1        0.0160
      3 C          -0.8602    1.8724   25.7704 C.ar    1  UNL1        0.0175
      4 C          -1.5669    3.1841   25.5972 C.ar    1  UNL1        0.0718
      5 C          -1.3668    4.2818   26.5996 C.ar    1  UNL1        0.0730
      6 CL         -2.0735    5.5936   26.4265 Cl      1  UNL1       -0.0809
      7 C          -0.4600    4.0679   27.7752 C.ar    1  UNL1        0.0273
      8 N          -2.4737    3.3980   24.4216 N.am    1  UNL1       -0.2002
      9 C          -3.9675    3.5238   24.4718 C.2     1  UNL1        0.2589
     10 O          -4.8169    3.4577   25.7064 O.2     1  UNL1       -0.2691
     11 C          -4.4629    3.7273   23.0707 C.ar    1  UNL1        0.0595
     12 C          -5.8421    3.9126   22.5107 C.ar    1  UNL1        0.0047
     13 C          -6.0335    4.0978   21.0346 C.ar    1  UNL1        0.0010
     14 C          -4.8458    4.0978   20.1185 C.ar    1  UNL1        0.0115
     15 C          -3.4667    3.9125   20.6784 C.ar    1  UNL1        0.0622
     16 CL         -2.2790    3.9125   19.7622 Cl      1  UNL1       -0.0821
     17 C          -3.2752    3.7272   22.1545 C.ar    1  UNL1        0.0692
     18 C          -2.0458    3.5238   22.9895 C.2     1  UNL1        0.2597
     19 O          -0.6360    3.4576   22.4814 O.2     1  UNL1       -0.2691
     20 O          -0.6057    0.9567   30.1923 O.2     1  UNL1       -0.2681
     21 C           0.7274    1.6425   30.2459 C.2     1  UNL1        0.2681
     22 N           1.1535    2.5422   29.1239 N.am    1  UNL1       -0.2791
     23 H           2.0284    2.9923   29.1591 H       1  UNL1        0.1552
     24 C           1.6341    1.4286   31.4214 C.ar    1  UNL1        0.1452
     25 N           2.5677    0.2547   31.4447 N.ar    1  UNL1       -0.2384
     26 C           3.4745    0.0407   32.6202 C.ar    1  UNL1        0.0991
     27 C           3.4477    1.0007   33.7726 C.ar    1  UNL1        0.0215
     28 C           2.5142    2.1745   33.7493 C.ar    1  UNL1        0.0147
     29 C           1.6074    2.3885   32.5737 C.ar    1  UNL1        0.0798
     30 CL          0.6739    3.5623   32.5505 Cl      1  UNL1       -0.0805
@<TRIPOS>BOND
     1    20    21    2
     2    21    22   am
     3    22     1    1
     4     1     2   ar
     5     2     3   ar
     6     3     4   ar
     7     4     8    1
     8     8     9   am
     9     9    10    2
    10     9    11    1
    11    11    12   ar
    12    12    13   ar
    13    13    14   ar
    14    14    15   ar
    15    15    16    1
    16    15    17   ar
    17    17    18    1
    18    18    19    2
    19     4     5   ar
    20     5     6    1
    21     5     7   ar
    22    21    24    1
    23    24    25   ar
    24    25    26   ar
    25    26    27   ar
    26    27    28   ar
    27    28    29   ar
    28    29    30    1
    29     7     1   ar
    30    29    24   ar
    31    18     8   am
    32    17    11   ar
    33    22    23    1
@<TRIPOS>MOLECULE
*****
 30 33 0 0 0
SMALL
GASTEIGER

@<TRIPOS>ATOM
      1 C           5.2440   -1.0296   34.5652 C.ar    1  UNL1        0.0515
      2 C           4.2869   -2.0003   33.9395 C.ar    1  UNL1        0.0160
      3 C           4.7004   -2.7887   32.7322 C.ar    1  UNL1        0.0175
      4 C           6.0709   -2.6064   32.1506 C.ar    1  UNL1        0.0718
      5 C           7.0280   -1.6357   32.7764 C.ar    1  UNL1        0.0730
      6 CL          8.3987   -1.4533   32.1948 Cl      1  UNL1       -0.0809
      7 C           6.6146   -0.8473   33.9837 C.ar    1  UNL1        0.0273
      8 N           6.4844   -3.3947   30.9433 N.am    1  UNL1       -0.2002
      9 C           6.8749   -4.8429   30.9272 C.2     1  UNL1        0.2589
     10 O           6.9205   -5.7570   32.1157 O.2     1  UNL1       -0.2691
     11 C           7.2117   -5.2166   29.5141 C.ar    1  UNL1        0.0595
     12 C           7.6609   -6.5079   28.8973 C.ar    1  UNL1        0.0047
     13 C           7.9278   -6.5820   27.4231 C.ar    1  UNL1        0.0010
     14 C           7.7455   -5.3647   26.5658 C.ar    1  UNL1        0.0115
     15 C           7.2964   -4.0733   27.1826 C.ar    1  UNL1        0.0622
     16 CL          7.1141   -2.8561   26.3253 Cl      1  UNL1       -0.0821
     17 C           7.0295   -3.9993   28.6568 C.ar    1  UNL1        0.0692
     18 C           6.5799   -2.8733   29.5401 C.2     1  UNL1        0.2597
     19 O           6.2788   -1.4720   29.0978 O.2     1  UNL1       -0.2691
     20 O           4.1391    1.7407   34.2415 O.2     1  UNL1       -0.2681
     21 C           4.2781    1.1438   35.6107 C.2     1  UNL1        0.2681
     22 N           4.8306   -0.2413   35.7725 N.am    1  UNL1       -0.2791
     23 H           4.9218   -0.6330   36.6711 H       1  UNL1        0.1552
     24 C           3.8647    1.9322   36.8180 C.ar    1  UNL1        0.1452
     25 N           2.4108    2.0755   37.1583 N.ar    1  UNL1       -0.2384
     26 C           1.9974    2.8639   38.3656 C.ar    1  UNL1        0.0991
     27 C           3.0378    3.5089   39.2325 C.ar    1  UNL1        0.0215
     28 C           4.4916    3.3656   38.8921 C.ar    1  UNL1        0.0147
     29 C           4.9050    2.5772   37.6849 C.ar    1  UNL1        0.0798
     30 CL          6.3588    2.4339   37.3445 Cl      1  UNL1       -0.0805
@<TRIPOS>BOND
     1    20    21    2
     2    21    22   am
     3    22     1    1
     4     1     2   ar
     5     2     3   ar
     6     3     4   ar
     7     4     8    1
     8     8     9   am
     9     9    10    2
    10     9    11    1
    11    11    12   ar
    12    12    13   ar
    13    13    14   ar
    14    14    15   ar
    15    15    16    1
    16    15    17   ar
    17    17    18    1
    18    18    19    2
    19     4     5   ar
    20     5     6    1
    21     5     7   ar
    22    21    24    1
    23    24    25   ar
    24    25    26   ar
    25    26    27   ar
    26    27    28   ar
    27    28    29   ar
    28    29    30    1
    29     7     1   ar
    30    29    24   ar
    31    18     8   am
    32    17    11   ar
    33    22    23    1
@<TRIPOS>MOLECULE
*****
 30 33 0 0 0
SMALL
GASTEIGER

@<TRIPOS>ATOM
      1 C          -1.8093    3.8006   21.4033 C.ar    1  UNL1        0.0515
      2 C          -0.8535    3.0533   22.2852 C.ar    1  UNL1        0.0160
      3 C           0.3094    2.3231   21.6817 C.ar    1  UNL1        0.0175
      4 C           0.5166    2.3401   20.1962 C.ar    1  UNL1        0.0718
      5 C          -0.4392    3.0874   19.3142 C.ar    1  UNL1        0.0730
      6 CL         -0.2321    3.1045   17.8287 Cl      1  UNL1       -0.0809
      7 C          -1.6022    3.8177   19.9178 C.ar    1  UNL1        0.0273
      8 N           1.6796    1.6099   19.5927 N.am    1  UNL1       -0.2002
      9 C           1.8565    0.1212   19.5435 C.2     1  UNL1        0.2589
     10 O           0.9014   -0.8987   20.0892 O.2     1  UNL1       -0.2691
     11 C           3.1560   -0.1687   18.8528 C.ar    1  UNL1        0.0595
     12 C           3.8500   -1.4559   18.5190 C.ar    1  UNL1        0.0047
     13 C           5.1703   -1.4335   17.8075 C.ar    1  UNL1        0.0010
     14 C           5.7966   -0.1239   17.4298 C.ar    1  UNL1        0.0115
     15 C           5.1027    1.1633   17.7636 C.ar    1  UNL1        0.0622
     16 CL          5.7290    2.4729   17.3859 Cl      1  UNL1       -0.0821
     17 C           3.7824    1.1409   18.4751 C.ar    1  UNL1        0.0692
     18 C           2.8698    2.2401   18.9324 C.2     1  UNL1        0.2597
     19 O           3.1062    3.7113   18.7596 O.2     1  UNL1       -0.2691
     20 O          -4.5350    2.5473   21.3956 O.2     1  UNL1       -0.2681
     21 C          -4.3351    3.9043   22.0030 C.2     1  UNL1        0.2681
     22 N          -2.9723    4.5309   22.0068 N.am    1  UNL1       -0.2791
     23 H          -2.8411    5.4215   22.4054 H       1  UNL1        0.1552
     24 C          -5.4981    4.6345   22.6065 C.ar    1  UNL1        0.1452
     25 N          -6.3124    5.5729   21.7660 N.ar    1  UNL1       -0.2384
     26 C          -7.4754    6.3032   22.3695 C.ar    1  UNL1        0.0991
     27 C          -7.8240    6.0951   23.8135 C.ar    1  UNL1        0.0215
     28 C          -7.0097    5.1567   24.6540 C.ar    1  UNL1        0.0147
     29 C          -5.8467    4.4265   24.0505 C.ar    1  UNL1        0.0798
     30 CL         -5.0324    3.4881   24.8909 Cl      1  UNL1       -0.0805
@<TRIPOS>BOND
     1    20    21    2
     2    21    22   am
     3    22     1    1
     4     1     2   ar
     5     2     3   ar
     6     3     4   ar
     7     4     8    1
     8     8     9   am
     9     9    10    2
    10     9    11    1
    11    11    12   ar
    12    12    13   ar
    13    13    14   ar
    14    14    15   ar
    15    15    16    1
    16    15    17   ar
    17    17    18    1
    18    18    19    2
    19     4     5   ar
    20     5     6    1
    21     5     7   ar
    22    21    24    1
    23    24    25   ar
    24    25    26   ar
    25    26    27   ar
    26    27    28   ar
    27    28    29   ar
    28    29    30    1
    29     7     1   ar
    30    29    24   ar
    31    18     8   am
    32    17    11   ar
    33    22    23    1
@<TRIPOS>MOLECULE
*****
 30 33 0 0 0
SMALL
GASTEIGER

@<TRIPOS>ATOM
      1 C           3.7695   -1.2924   27.5810 C.ar    1  UNL1        0.0515
      2 C           5.0642   -1.6426   28.2525 C.ar    1  UNL1        0.0160
      3 C           5.2889   -1.2713   29.6883 C.ar    1  UNL1        0.0175
      4 C           4.2188   -0.5499   30.4528 C.ar    1  UNL1        0.0718
      5 C           2.9240   -0.1998   29.7813 C.ar    1  UNL1        0.0730
      6 CL          1.8539    0.5217   30.5458 Cl      1  UNL1       -0.0809
      7 C           2.6994   -0.5710   28.3455 C.ar    1  UNL1        0.0273
      8 N           4.4435   -0.1786   31.8886 N.am    1  UNL1       -0.2002
      9 C           4.2906   -1.0909   33.0695 C.2     1  UNL1        0.2589
     10 O           3.8862   -2.5345   33.0219 O.2     1  UNL1       -0.2691
     11 C           4.6132   -0.3060   34.3064 C.ar    1  UNL1        0.0595
     12 C           4.6317   -0.6831   35.7581 C.ar    1  UNL1        0.0047
     13 C           5.0024    0.3370   36.7933 C.ar    1  UNL1        0.0010
     14 C           5.3546    1.7343   36.3769 C.ar    1  UNL1        0.0115
     15 C           5.3362    2.1115   34.9252 C.ar    1  UNL1        0.0622
     16 CL          5.6884    3.5088   34.5088 Cl      1  UNL1       -0.0821
     17 C           4.9655    1.0913   33.8900 C.ar    1  UNL1        0.0692
     18 C           4.8606    1.1700   32.3957 C.2     1  UNL1        0.2597
     19 O           5.1262    2.3842   31.5560 O.2     1  UNL1       -0.2691
     20 O           4.8346    0.4627   25.3935 O.2     1  UNL1       -0.2681
     21 C           4.0773   -0.7862   25.0515 C.2     1  UNL1        0.2681
     22 N           3.5448   -1.6637   26.1452 N.am    1  UNL1       -0.2791
     23 H           3.0477   -2.4833   25.9207 H       1  UNL1        0.1552
     24 C           3.8526   -1.1574   23.6156 C.ar    1  UNL1        0.1452
     25 N           4.6619   -2.2540   22.9890 N.ar    1  UNL1       -0.2384
     26 C           4.4372   -2.6253   21.5531 C.ar    1  UNL1        0.0991
     27 C           3.4032   -1.8999   20.7439 C.ar    1  UNL1        0.0215
     28 C           2.5940   -0.8034   21.3705 C.ar    1  UNL1        0.0147
     29 C           2.8187   -0.4322   22.8064 C.ar    1  UNL1        0.0798
     30 CL          2.0094    0.6644   23.4330 Cl      1  UNL1       -0.0805
@<TRIPOS>BOND
     1    20    21    2
     2    21    22   am
     3    22     1    1
     4     1     2   ar
     5     2     3   ar
     6     3     4   ar
     7     4     8    1
     8     8     9   am
     9     9    10    2
    10     9    11    1
    11    11    12   ar
    12    12    13   ar
    13    13    14   ar
    14    14    15   ar
    15    15    16    1
    16    15    17   ar
    17    17    18    1
    18    18    19    2
    19     4     5   ar
    20     5     6    1
    21     5     7   ar
    22    21    24    1
    23    24    25   ar
    24    25    26   ar
    25    26    27   ar
    26    27    28   ar
    27    28    29   ar
    28    29    30    1
    29     7     1   ar
    30    29    24   ar
    31    18     8   am
    32    17    11   ar
    33    22    23    1
@<TRIPOS>MOLECULE
*****
 30 33 0 0 0
SMALL
GASTEIGER

@<TRIPOS>ATOM
      1 C           4.5510   -0.2704   29.0599 C.ar    1  UNL1        0.0515
      2 C           3.8277   -0.8065   27.8602 C.ar    1  UNL1        0.0160
      3 C           4.4532   -1.8862   27.0278 C.ar    1  UNL1        0.0175
      4 C           5.8021   -2.4298   27.3951 C.ar    1  UNL1        0.0718
      5 C           6.5254   -1.8938   28.5948 C.ar    1  UNL1        0.0730
      6 CL          7.8744   -2.4374   28.9622 Cl      1  UNL1       -0.0809
      7 C           5.8999   -0.8141   29.4272 C.ar    1  UNL1        0.0273
      8 N           6.4277   -3.5095   26.5626 N.am    1  UNL1       -0.2002
      9 C           6.9914   -3.3438   25.1825 C.2     1  UNL1        0.2589
     10 O           7.0286   -2.0692   24.3925 O.2     1  UNL1       -0.2691
     11 C           7.5115   -4.6764   24.7311 C.ar    1  UNL1        0.0595
     12 C           8.1744   -5.1167   23.4596 C.ar    1  UNL1        0.0047
     13 C           8.5949   -6.5464   23.2893 C.ar    1  UNL1        0.0010
     14 C           8.3526   -7.5358   24.3904 C.ar    1  UNL1        0.0115
     15 C           7.6897   -7.0954   25.6619 C.ar    1  UNL1        0.0622
     16 CL          7.4473   -8.0848   26.7630 Cl      1  UNL1       -0.0821
     17 C           7.2691   -5.6657   25.8322 C.ar    1  UNL1        0.0692
     18 C           6.5993   -4.9446   26.9641 C.2     1  UNL1        0.2597
     19 O           6.1755   -5.5519   28.2686 O.2     1  UNL1       -0.2691
     20 O           2.3494   -0.9448   30.9830 O.2     1  UNL1       -0.2681
     21 C           2.8247    0.4721   30.8539 C.2     1  UNL1        0.2681
     22 N           3.9255    0.8093   29.8924 N.am    1  UNL1       -0.2791
     23 H           4.2374    1.7392   29.8076 H       1  UNL1        0.1552
     24 C           2.1991    1.5518   31.6863 C.ar    1  UNL1        0.1452
     25 N           2.6370    1.7522   33.1070 N.ar    1  UNL1       -0.2384
     26 C           2.0115    2.8319   33.9394 C.ar    1  UNL1        0.0991
     27 C           0.9480    3.7112   33.3512 C.ar    1  UNL1        0.0215
     28 C           0.5102    3.5109   31.9306 C.ar    1  UNL1        0.0147
     29 C           1.1357    2.4312   31.0981 C.ar    1  UNL1        0.0798
     30 CL          0.6979    2.2308   29.6776 Cl      1  UNL1       -0.0805
@<TRIPOS>BOND
     1    20    21    2
     2    21    22   am
     3    22     1    1
     4     1     2   ar
     5     2     3   ar
     6     3     4   ar
     7     4     8    1
     8     8     9   am
     9     9    10    2
    10     9    11    1
    11    11    12   ar
    12    12    13   ar
    13    13    14   ar
    14    14    15   ar
    15    15    16    1
    16    15    17   ar
    17    17    18    1
    18    18    19    2
    19     4     5   ar
    20     5     6    1
    21     5     7   ar
    22    21    24    1
    23    24    25   ar
    24    25    26   ar
    25    26    27   ar
    26    27    28   ar
    27    28    29   ar
    28    29    30    1
    29     7     1   ar
    30    29    24   ar
    31    18     8   am
    32    17    11   ar
    33    22    23    1
