@<TRIPOS>MOLECULE
*****
 37 40 0 0 0
SMALL
GASTEIGER

@<TRIPOS>ATOM
      1 C         -11.0242  -17.6872   20.1372 C.3     1  UNL1        0.0771
      2 C         -10.8127  -16.5608   19.1696 C.3     1  UNL1        0.0368
      3 C         -11.8320  -15.4660   19.0587 C.3     1  UNL1        0.0703
      4 N         -13.0628  -15.4976   19.9155 N.3     1  UNL1       -0.2973
      5 C         -13.2743  -16.6240   20.8831 C.3     1  UNL1        0.0716
      6 C         -12.2550  -17.7188   20.9940 C.3     1  UNL1        0.0498
      7 H         -13.8624  -15.4994   19.2822 H       1  UNL1        0.1232
      8 N          -7.5995  -19.5653   20.8405 N.am    1  UNL1       -0.2485
      9 C          -8.6188  -18.4705   20.7296 C.2     1  UNL1        0.3058
     10 O          -8.2521  -17.0640   21.1001 O.2     1  UNL1       -0.2524
     11 N         -10.0049  -18.7822   20.2481 N.am    1  UNL1       -0.2901
     12 H          -7.8402  -20.4884   20.5973 H       1  UNL1        0.1583
     13 H         -10.2456  -19.7053   20.0049 H       1  UNL1        0.1509
     14 C          -3.7955  -19.0804   21.4404 C.ar    1  UNL1        0.0803
     15 S          -4.9375  -19.5661   20.5979 S.2     1  UNL1       -0.0488
     16 C          -6.2135  -19.2537   21.3219 C.ar    1  UNL1        0.1664
     17 N          -5.8600  -18.5749   22.6120 N.ar    1  UNL1       -0.2282
     18 C          -4.3657  -18.4678   22.6852 C.ar    1  UNL1        0.0701
     19 C          -3.5795  -17.8556   23.8065 C.3     1  UNL1        0.0528
     20 C          -1.6490  -18.0594   20.3917 C.3     1  UNL1        0.0779
     21 C          -2.3391  -19.1884   21.0982 C.2     1  UNL1        0.1807
     22 O          -1.5728  -20.4253   21.4624 O.2     1  UNL1       -0.2908
     23 C         -12.4665  -18.8453   21.9617 C.3     1  UNL1        0.0751
     24 N         -11.4313  -19.1412   23.0061 N.3     1  UNL1       -0.2726
     25 C         -10.7234  -20.4637   23.0070 C.3     1  UNL1        0.0721
     26 C          -9.6882  -20.7596   24.0514 C.3     1  UNL1        0.0174
     27 C          -9.3608  -19.7329   25.0949 C.3     1  UNL1        0.0031
     28 C         -10.0686  -18.4104   25.0940 C.3     1  UNL1        0.0204
     29 C         -11.1039  -18.1146   24.0495 C.3     1  UNL1        0.0724
     30 C          -9.7413  -17.3837   26.1374 C.3     1  UNL1        0.0277
     31 C          -8.4468  -16.6292   26.0670 C.ar    1  UNL1       -0.0220
     32 C          -7.7460  -16.2226   27.3295 C.ar    1  UNL1       -0.0020
     33 C          -6.4515  -15.4681   27.2591 C.ar    1  UNL1        0.0293
     34 C          -5.8578  -15.1201   25.9262 C.ar    1  UNL1        0.1401
     35 F          -4.5633  -14.3656   25.8558 F       1  UNL1       -0.2042
     36 C          -6.5585  -15.5267   24.6639 C.ar    1  UNL1        0.0293
     37 C          -7.8530  -16.2812   24.7343 C.ar    1  UNL1       -0.0020
@<TRIPOS>BOND
     1    20    21    1
     2    21    22    2
     3    21    14    1
     4    14    15   ar
     5    15    16   ar
     6    16     8    1
     7     8     9   am
     8     9    10    2
     9     9    11   am
    10     1    11    1
    11     1     2    1
    12     2     3    1
    13     3     4    1
    14     4     5    1
    15     5     6    1
    16     6    23    1
    17    23    24    1
    18    24    25    1
    19    25    26    1
    20    26    27    1
    21    27    28    1
    22    28    30    1
    23    30    31    1
    24    31    32   ar
    25    32    33   ar
    26    33    34   ar
    27    34    35    1
    28    34    36   ar
    29    36    37   ar
    30    28    29    1
    31    16    17   ar
    32    17    18   ar
    33    18    19    1
    34    18    14   ar
    35     6     1    1
    36    29    24    1
    37    37    31   ar
    38     8    12    1
    39    11    13    1
    40     4     7    1
@<TRIPOS>MOLECULE
*****
 37 40 0 0 0
SMALL
GASTEIGER

@<TRIPOS>ATOM
      1 C         -16.5017   -6.8055   18.4618 C.3     1  UNL1        0.0771
      2 C         -17.4244   -7.3829   19.4938 C.3     1  UNL1        0.0368
      3 C         -17.0613   -8.6583   20.1949 C.3     1  UNL1        0.0703
      4 N         -15.7755   -9.3562   19.8639 N.3     1  UNL1       -0.2973
      5 C         -14.8528   -8.7788   18.8318 C.3     1  UNL1        0.0716
      6 C         -15.2159   -7.5035   18.1308 C.3     1  UNL1        0.0498
      7 H         -16.0225  -10.2936   19.5465 H       1  UNL1        0.1232
      8 N         -17.0638   -2.9396   17.7622 N.am    1  UNL1       -0.2485
      9 C         -16.7007   -4.2150   18.4633 C.2     1  UNL1        0.3058
     10 O         -16.1734   -4.1754   19.8671 O.2     1  UNL1       -0.2524
     11 N         -16.8648   -5.5301   17.7606 N.am    1  UNL1       -0.2901
     12 H         -17.4098   -2.9656   16.8409 H       1  UNL1        0.1583
     13 H         -17.2109   -5.5561   16.8393 H       1  UNL1        0.1509
     14 C         -17.2907    0.2833   19.9132 C.ar    1  UNL1        0.0803
     15 S         -17.8447   -1.0389   19.4717 S.2     1  UNL1       -0.0488
     16 C         -16.8996   -1.6246   18.4649 C.ar    1  UNL1        0.1664
     17 N         -15.7615   -0.6644   18.2841 N.ar    1  UNL1       -0.2282
     18 C         -16.0032    0.5148   19.1792 C.ar    1  UNL1        0.0701
     19 C         -15.1136    1.7147   19.3162 C.3     1  UNL1        0.0528
     20 C         -19.1874    1.9303   20.5766 C.3     1  UNL1        0.0779
     21 C         -17.9147    1.2112   20.9131 C.2     1  UNL1        0.1807
     22 O         -17.2661    1.4199   22.2493 O.2     1  UNL1       -0.2908
     23 C         -14.2932   -6.9260   17.0986 C.3     1  UNL1        0.0751
     24 N         -12.8400   -6.7328   17.4159 N.3     1  UNL1       -0.2726
     25 C         -11.8623   -7.8408   17.1582 C.3     1  UNL1        0.0721
     26 C         -10.4090   -7.6476   17.4755 C.3     1  UNL1        0.0174
     27 C          -9.9335   -6.3463   18.0506 C.3     1  UNL1        0.0031
     28 C         -10.9112   -5.2383   18.3083 C.3     1  UNL1        0.0204
     29 C         -12.3644   -5.4316   17.9909 C.3     1  UNL1        0.0724
     30 C         -10.4356   -3.9370   18.8833 C.3     1  UNL1        0.0277
     31 C         -10.8295   -2.6425   18.2360 C.ar    1  UNL1       -0.0220
     32 C         -10.2934   -2.2881   16.8805 C.ar    1  UNL1       -0.0020
     33 C         -10.6873   -0.9936   16.2332 C.ar    1  UNL1        0.0293
     34 C         -11.6173   -0.0535   16.9413 C.ar    1  UNL1        0.1401
     35 F         -12.0112    1.2411   16.2939 F       1  UNL1       -0.2042
     36 C         -12.1534   -0.4079   18.2966 C.ar    1  UNL1        0.0293
     37 C         -11.7595   -1.7024   18.9440 C.ar    1  UNL1       -0.0020
@<TRIPOS>BOND
     1    20    21    1
     2    21    22    2
     3    21    14    1
     4    14    15   ar
     5    15    16   ar
     6    16     8    1
     7     8     9   am
     8     9    10    2
     9     9    11   am
    10     1    11    1
    11     1     2    1
    12     2     3    1
    13     3     4    1
    14     4     5    1
    15     5     6    1
    16     6    23    1
    17    23    24    1
    18    24    25    1
    19    25    26    1
    20    26    27    1
    21    27    28    1
    22    28    30    1
    23    30    31    1
    24    31    32   ar
    25    32    33   ar
    26    33    34   ar
    27    34    35    1
    28    34    36   ar
    29    36    37   ar
    30    28    29    1
    31    16    17   ar
    32    17    18   ar
    33    18    19    1
    34    18    14   ar
    35     6     1    1
    36    29    24    1
    37    37    31   ar
    38     8    12    1
    39    11    13    1
    40     4     7    1
@<TRIPOS>MOLECULE
*****
 37 40 0 0 0
SMALL
GASTEIGER

@<TRIPOS>ATOM
      1 C           3.4225    0.2801   19.0168 C.3     1  UNL1        0.0771
      2 C           4.2059    0.6107   17.7811 C.3     1  UNL1        0.0368
      3 C           4.8675   -0.4839   16.9974 C.3     1  UNL1        0.0703
      4 N           4.7457   -1.9090   17.4494 N.3     1  UNL1       -0.2973
      5 C           3.9623   -2.2395   18.6851 C.3     1  UNL1        0.0716
      6 C           3.3007   -1.1450   19.4688 C.3     1  UNL1        0.0498
      7 H           5.6943   -2.2516   17.6017 H       1  UNL1        0.1232
      8 N           0.6577    2.8027   20.3370 N.am    1  UNL1       -0.2485
      9 C           1.3194    1.7082   19.5533 C.2     1  UNL1        0.3058
     10 O           0.5397    0.9471   18.5223 O.2     1  UNL1       -0.2524
     11 N           2.7608    1.3747   19.8005 N.am    1  UNL1       -0.2901
     12 H           1.1695    3.3021   21.0137 H       1  UNL1        0.1583
     13 H           3.2726    1.8741   20.4772 H       1  UNL1        0.1509
     14 C          -2.8107    4.0085   19.0793 C.ar    1  UNL1        0.0803
     15 S          -1.3216    3.9132   18.9250 S.2     1  UNL1       -0.0488
     16 C          -0.7837    3.1361   20.0898 C.ar    1  UNL1        0.1664
     17 N          -1.9402    2.7511   20.9639 N.ar    1  UNL1       -0.2282
     18 C          -3.1930    3.2902   20.3394 C.ar    1  UNL1        0.0701
     19 C          -4.5838    3.1378   20.8801 C.3     1  UNL1        0.0528
     20 C          -4.4251    3.9245   17.0454 C.3     1  UNL1        0.0779
     21 C          -3.7520    4.7004   18.1385 C.2     1  UNL1        0.1807
     22 O          -4.0203    6.1683   18.2909 O.2     1  UNL1       -0.2908
     23 C           2.5172   -1.4755   20.7045 C.3     1  UNL1        0.0751
     24 N           3.1814   -1.4282   22.0486 N.3     1  UNL1       -0.2726
     25 C           4.1272   -2.5187   22.4567 C.3     1  UNL1        0.0721
     26 C           4.7913   -2.4714   23.8008 C.3     1  UNL1        0.0174
     27 C           4.5098   -1.3336   24.7369 C.3     1  UNL1        0.0031
     28 C           3.5641   -0.2431   24.3288 C.3     1  UNL1        0.0204
     29 C           2.8999   -0.2904   22.9847 C.3     1  UNL1        0.0724
     30 C           3.2826    0.8947   25.2649 C.3     1  UNL1        0.0277
     31 C           2.0208    0.9040   26.0759 C.ar    1  UNL1       -0.0220
     32 C           2.0408    0.4315   27.4995 C.ar    1  UNL1       -0.0020
     33 C           0.7791    0.4407   28.3106 C.ar    1  UNL1        0.0293
     34 C          -0.5027    0.9225   27.6981 C.ar    1  UNL1        0.1401
     35 F          -1.7645    0.9317   28.5092 F       1  UNL1       -0.2042
     36 C          -0.5227    1.3949   26.2747 C.ar    1  UNL1        0.0293
     37 C           0.7391    1.3857   25.4636 C.ar    1  UNL1       -0.0020
@<TRIPOS>BOND
     1    20    21    1
     2    21    22    2
     3    21    14    1
     4    14    15   ar
     5    15    16   ar
     6    16     8    1
     7     8     9   am
     8     9    10    2
     9     9    11   am
    10     1    11    1
    11     1     2    1
    12     2     3    1
    13     3     4    1
    14     4     5    1
    15     5     6    1
    16     6    23    1
    17    23    24    1
    18    24    25    1
    19    25    26    1
    20    26    27    1
    21    27    28    1
    22    28    30    1
    23    30    31    1
    24    31    32   ar
    25    32    33   ar
    26    33    34   ar
    27    34    35    1
    28    34    36   ar
    29    36    37   ar
    30    28    29    1
    31    16    17   ar
    32    17    18   ar
    33    18    19    1
    34    18    14   ar
    35     6     1    1
    36    29    24    1
    37    37    31   ar
    38     8    12    1
    39    11    13    1
    40     4     7    1
@<TRIPOS>MOLECULE
*****
 37 40 0 0 0
SMALL
GASTEIGER

@<TRIPOS>ATOM
      1 C          -5.1167    5.2347   23.8101 C.3     1  UNL1        0.0771
      2 C          -5.8722    6.3390   24.4880 C.3     1  UNL1        0.0368
      3 C          -7.3613    6.4330   24.3348 C.3     1  UNL1        0.0703
      4 N          -8.0950    5.4226   23.5037 N.3     1  UNL1       -0.2973
      5 C          -7.3395    4.3183   22.8257 C.3     1  UNL1        0.0716
      6 C          -5.8504    4.2244   22.9789 C.3     1  UNL1        0.0498
      7 H          -8.5801    5.9405   22.7710 H       1  UNL1        0.1232
      8 N          -1.5493    4.2856   25.2670 N.am    1  UNL1       -0.2485
      9 C          -3.0384    4.3797   25.1138 C.2     1  UNL1        0.3058
     10 O          -3.9386    3.7126   26.1112 O.2     1  UNL1       -0.2524
     11 N          -3.6274    5.1407   23.9632 N.am    1  UNL1       -0.2901
     12 H          -0.9584    4.7234   24.6124 H       1  UNL1        0.1583
     13 H          -3.0366    5.5785   23.3086 H       1  UNL1        0.1509
     14 C          -0.2832    1.7095   27.8797 C.ar    1  UNL1        0.0803
     15 S          -0.9852    2.0353   26.5948 S.2     1  UNL1       -0.0488
     16 C          -0.9602    3.5246   26.4176 C.ar    1  UNL1        0.1664
     17 N          -0.2428    4.1192   27.5931 N.ar    1  UNL1       -0.2282
     18 C           0.1756    2.9974   28.4967 C.ar    1  UNL1        0.0701
     19 C           0.9219    3.1387   29.7902 C.3     1  UNL1        0.0528
     20 C          -1.2595   -0.5073   28.8193 C.3     1  UNL1        0.0779
     21 C          -0.0764    0.3367   28.4479 C.2     1  UNL1        0.1807
     22 O           1.3134   -0.1920   28.6446 O.2     1  UNL1       -0.2908
     23 C          -5.0948    3.1200   22.3009 C.3     1  UNL1        0.0751
     24 N          -4.3680    3.3873   21.0162 N.3     1  UNL1       -0.2726
     25 C          -5.1408    3.6721   19.7625 C.3     1  UNL1        0.0721
     26 C          -4.4139    3.9394   18.4779 C.3     1  UNL1        0.0174
     27 C          -2.9143    3.9218   18.4470 C.3     1  UNL1        0.0031
     28 C          -2.1416    3.6369   19.7007 C.3     1  UNL1        0.0204
     29 C          -2.8684    3.3696   20.9853 C.3     1  UNL1        0.0724
     30 C          -0.6420    3.6193   19.6698 C.3     1  UNL1        0.0277
     31 C           0.0931    2.3117   19.6797 C.ar    1  UNL1       -0.0220
     32 C           0.7569    1.8150   18.4296 C.ar    1  UNL1       -0.0020
     33 C           1.4919    0.5074   18.4396 C.ar    1  UNL1        0.0293
     34 C           1.5631   -0.3033   19.6997 C.ar    1  UNL1        0.1401
     35 F           2.2981   -1.6109   19.7096 F       1  UNL1       -0.2042
     36 C           0.8993    0.1934   20.9496 C.ar    1  UNL1        0.0293
     37 C           0.1642    1.5009   20.9397 C.ar    1  UNL1       -0.0020
@<TRIPOS>BOND
     1    20    21    1
     2    21    22    2
     3    21    14    1
     4    14    15   ar
     5    15    16   ar
     6    16     8    1
     7     8     9   am
     8     9    10    2
     9     9    11   am
    10     1    11    1
    11     1     2    1
    12     2     3    1
    13     3     4    1
    14     4     5    1
    15     5     6    1
    16     6    23    1
    17    23    24    1
    18    24    25    1
    19    25    26    1
    20    26    27    1
    21    27    28    1
    22    28    30    1
    23    30    31    1
    24    31    32   ar
    25    32    33   ar
    26    33    34   ar
    27    34    35    1
    28    34    36   ar
    29    36    37   ar
    30    28    29    1
    31    16    17   ar
    32    17    18   ar
    33    18    19    1
    34    18    14   ar
    35     6     1    1
    36    29    24    1
    37    37    31   ar
    38     8    12    1
    39    11    13    1
    40     4     7    1
@<TRIPOS>MOLECULE
*****
 37 40 0 0 0
SMALL
GASTEIGER

@<TRIPOS>ATOM
      1 C           8.5587   -5.6984   26.9508 C.3     1  UNL1        0.0771
      2 C           8.5837   -7.0879   27.5152 C.3     1  UNL1        0.0368
      3 C           8.3865   -8.2683   26.6109 C.3     1  UNL1        0.0703
      4 N           8.1643   -8.0591   25.1422 N.3     1  UNL1       -0.2973
      5 C           8.1393   -6.6696   24.5779 C.3     1  UNL1        0.0716
      6 C           8.3365   -5.4892   25.4822 C.3     1  UNL1        0.0498
      7 H           7.2651   -8.4846   24.9170 H       1  UNL1        0.1232
      8 N           7.8058   -2.8159   29.5728 N.am    1  UNL1       -0.2485
      9 C           7.6086   -3.9964   28.6685 C.2     1  UNL1        0.3058
     10 O           6.2641   -4.6553   28.5777 O.2     1  UNL1       -0.2524
     11 N           8.7559   -4.5179   27.8551 N.am    1  UNL1       -0.2901
     12 H           8.6882   -2.3835   29.6324 H       1  UNL1        0.1583
     13 H           9.6384   -4.0855   27.9147 H       1  UNL1        0.1509
     14 C           5.1406   -1.8752   32.2331 C.ar    1  UNL1        0.0803
     15 S           6.3848   -2.6082   31.8273 S.2     1  UNL1       -0.0488
     16 C           6.6585   -2.2944   30.3862 C.ar    1  UNL1        0.1664
     17 N           5.5835   -1.3674   29.9015 N.ar    1  UNL1       -0.2282
     18 C           4.6453   -1.1083   31.0429 C.ar    1  UNL1        0.0701
     19 C           3.4261   -0.2356   31.0014 C.3     1  UNL1        0.0528
     20 C           4.7717   -0.7988   34.5687 C.3     1  UNL1        0.0779
     21 C           4.5035   -1.9041   33.5908 C.2     1  UNL1        0.1807
     22 O           3.5983   -3.0381   33.9705 O.2     1  UNL1       -0.2908
     23 C           8.3116   -4.0996   24.9178 C.3     1  UNL1        0.0751
     24 N           7.0080   -3.4783   24.5118 N.3     1  UNL1       -0.2726
     25 C           6.4089   -2.3820   25.3421 C.3     1  UNL1        0.0721
     26 C           5.1054   -1.7608   24.9360 C.3     1  UNL1        0.0174
     27 C           4.4010   -2.2358   23.6998 C.3     1  UNL1        0.0031
     28 C           5.0001   -3.3320   22.8696 C.3     1  UNL1        0.0204
     29 C           6.3037   -3.9533   23.2756 C.3     1  UNL1        0.0724
     30 C           4.2958   -3.8071   21.6334 C.3     1  UNL1        0.0277
     31 C           4.3722   -3.0016   20.3703 C.ar    1  UNL1       -0.0220
     32 C           3.2787   -2.0323   20.0315 C.ar    1  UNL1       -0.0020
     33 C           3.3552   -1.2268   18.7684 C.ar    1  UNL1        0.0293
     34 C           4.5252   -1.3907   17.8441 C.ar    1  UNL1        0.1401
     35 F           4.6017   -0.5853   16.5810 F       1  UNL1       -0.2042
     36 C           5.6186   -2.3601   18.1829 C.ar    1  UNL1        0.0293
     37 C           5.5421   -3.1655   19.4459 C.ar    1  UNL1       -0.0020
@<TRIPOS>BOND
     1    20    21    1
     2    21    22    2
     3    21    14    1
     4    14    15   ar
     5    15    16   ar
     6    16     8    1
     7     8     9   am
     8     9    10    2
     9     9    11   am
    10     1    11    1
    11     1     2    1
    12     2     3    1
    13     3     4    1
    14     4     5    1
    15     5     6    1
    16     6    23    1
    17    23    24    1
    18    24    25    1
    19    25    26    1
    20    26    27    1
    21    27    28    1
    22    28    30    1
    23    30    31    1
    24    31    32   ar
    25    32    33   ar
    26    33    34   ar
    27    34    35    1
    28    34    36   ar
    29    36    37   ar
    30    28    29    1
    31    16    17   ar
    32    17    18   ar
    33    18    19    1
    34    18    14   ar
    35     6     1    1
    36    29    24    1
    37    37    31   ar
    38     8    12    1
    39    11    13    1
    40     4     7    1
@<TRIPOS>MOLECULE
*****
 37 40 0 0 0
SMALL
GASTEIGER

@<TRIPOS>ATOM
      1 C           7.5428   -3.4074   29.7624 C.3     1  UNL1        0.0771
      2 C           8.4746   -2.9401   30.8410 C.3     1  UNL1        0.0368
      3 C           9.1731   -3.9401   31.7138 C.3     1  UNL1        0.0703
      4 N           8.9399   -5.4075   31.5081 N.3     1  UNL1       -0.2973
      5 C           8.0082   -5.8749   30.4295 C.3     1  UNL1        0.0716
      6 C           7.3096   -4.8748   29.5567 C.3     1  UNL1        0.0498
      7 H           8.5788   -5.7746   32.3886 H       1  UNL1        0.1232
      8 N           4.8633   -0.7782   28.4749 N.am    1  UNL1       -0.2485
      9 C           5.5619   -1.7783   29.3477 C.2     1  UNL1        0.3058
     10 O           4.9782   -2.1492   30.6788 O.2     1  UNL1       -0.2524
     11 N           6.8442   -2.4073   28.8895 N.am    1  UNL1       -0.2901
     12 H           5.2464   -0.5348   27.6013 H       1  UNL1        0.1583
     13 H           7.2273   -2.1639   28.0159 H       1  UNL1        0.1509
     14 C           1.2304    0.4246   29.1237 C.ar    1  UNL1        0.0803
     15 S           2.2168   -0.4174   28.3700 S.2     1  UNL1       -0.0488
     16 C           3.5810   -0.1491   28.9331 C.ar    1  UNL1        0.1664
     17 N           3.4377    0.8587   30.0347 N.ar    1  UNL1       -0.2282
     18 C           1.9850    1.2133   30.1526 C.ar    1  UNL1        0.0701
     19 C           1.3911    2.1858   31.1280 C.3     1  UNL1        0.0528
     20 C          -0.8207    1.4153   27.8742 C.3     1  UNL1        0.0779
     21 C          -0.2505    0.4699   28.8896 C.2     1  UNL1        0.1807
     22 O          -1.1612   -0.4301   29.6709 O.2     1  UNL1       -0.2908
     23 C           6.3778   -5.3422   28.4780 C.3     1  UNL1        0.0751
     24 N           6.9231   -5.7567   27.1436 N.3     1  UNL1       -0.2726
     25 C           7.2890   -7.1901   26.8953 C.3     1  UNL1        0.0721
     26 C           7.8343   -7.6047   25.5609 C.3     1  UNL1        0.0174
     27 C           8.0138   -6.5858   24.4746 C.3     1  UNL1        0.0031
     28 C           7.6479   -5.1525   24.7229 C.3     1  UNL1        0.0204
     29 C           7.1026   -4.7379   26.0574 C.3     1  UNL1        0.0724
     30 C           7.8274   -4.1336   23.6367 C.3     1  UNL1        0.0277
     31 C           6.7512   -3.9332   22.6112 C.ar    1  UNL1       -0.0220
     32 C           7.0751   -4.0508   21.1513 C.ar    1  UNL1       -0.0020
     33 C           5.9990   -3.8503   20.1258 C.ar    1  UNL1        0.0293
     34 C           4.5989   -3.5323   20.5602 C.ar    1  UNL1        0.1401
     35 F           3.5227   -3.3318   19.5347 F       1  UNL1       -0.2042
     36 C           4.2750   -3.4147   22.0201 C.ar    1  UNL1        0.0293
     37 C           5.3512   -3.6151   23.0456 C.ar    1  UNL1       -0.0020
@<TRIPOS>BOND
     1    20    21    1
     2    21    22    2
     3    21    14    1
     4    14    15   ar
     5    15    16   ar
     6    16     8    1
     7     8     9   am
     8     9    10    2
     9     9    11   am
    10     1    11    1
    11     1     2    1
    12     2     3    1
    13     3     4    1
    14     4     5    1
    15     5     6    1
    16     6    23    1
    17    23    24    1
    18    24    25    1
    19    25    26    1
    20    26    27    1
    21    27    28    1
    22    28    30    1
    23    30    31    1
    24    31    32   ar
    25    32    33   ar
    26    33    34   ar
    27    34    35    1
    28    34    36   ar
    29    36    37   ar
    30    28    29    1
    31    16    17   ar
    32    17    18   ar
    33    18    19    1
    34    18    14   ar
    35     6     1    1
    36    29    24    1
    37    37    31   ar
    38     8    12    1
    39    11    13    1
    40     4     7    1
@<TRIPOS>MOLECULE
*****
 37 40 0 0 0
SMALL
GASTEIGER

@<TRIPOS>ATOM
      1 C           8.5161   -5.8480   25.4780 C.3     1  UNL1        0.0771
      2 C           8.1652   -7.3056   25.4321 C.3     1  UNL1        0.0368
      3 C           7.7434   -8.0152   26.6845 C.3     1  UNL1        0.0703
      4 N           7.6726   -7.2672   27.9828 N.3     1  UNL1       -0.2973
      5 C           8.0236   -5.8096   28.0287 C.3     1  UNL1        0.0716
      6 C           8.4453   -5.1000   26.7763 C.3     1  UNL1        0.0498
      7 H           8.3012   -7.7419   28.6308 H       1  UNL1        0.1232
      8 N           8.3320   -4.0233   21.9585 N.am    1  UNL1       -0.2485
      9 C           7.9102   -4.7330   23.2109 C.2     1  UNL1        0.3058
     10 O           6.4608   -5.0374   23.4486 O.2     1  UNL1       -0.2524
     11 N           8.9379   -5.1383   24.2256 N.am    1  UNL1       -0.2901
     12 H           9.2833   -3.8235   21.8025 H       1  UNL1        0.1583
     13 H           9.8892   -4.9385   24.0696 H       1  UNL1        0.1509
     14 C           6.0195   -2.3060   19.3568 C.ar    1  UNL1        0.0803
     15 S           7.1802   -2.2660   20.3061 S.2     1  UNL1       -0.0488
     16 C           7.3043   -3.6180   20.9438 C.ar    1  UNL1        0.1664
     17 N           6.2201   -4.4935   20.3888 N.ar    1  UNL1       -0.2282
     18 C           5.4261   -3.6827   19.4079 C.ar    1  UNL1        0.0701
     19 C           4.2459   -4.1640   18.6171 C.3     1  UNL1        0.0528
     20 C           5.5350    0.2282   19.0519 C.3     1  UNL1        0.0779
     21 C           5.5369   -1.1689   18.5059 C.2     1  UNL1        0.1807
     22 O           5.0561   -1.4289   17.1091 O.2     1  UNL1       -0.2908
     23 C           8.7963   -3.6423   26.8221 C.3     1  UNL1        0.0751
     24 N           8.0793   -2.6699   25.9331 N.3     1  UNL1       -0.2726
     25 C           8.8618   -1.7177   25.0781 C.3     1  UNL1        0.0721
     26 C           8.1447   -0.7453   24.1890 C.3     1  UNL1        0.0174
     27 C           6.6452   -0.7252   24.1551 C.3     1  UNL1        0.0031
     28 C           5.8628   -1.6774   25.0101 C.3     1  UNL1        0.0204
     29 C           6.5798   -2.6498   25.8991 C.3     1  UNL1        0.0724
     30 C           4.3632   -1.6573   24.9761 C.3     1  UNL1        0.0277
     31 C           3.6473   -1.1759   23.7490 C.ar    1  UNL1       -0.0220
     32 C           2.7855    0.0501   23.8160 C.ar    1  UNL1       -0.0020
     33 C           2.0695    0.5314   22.5889 C.ar    1  UNL1        0.0293
     34 C           2.2153   -0.2132   21.2949 C.ar    1  UNL1        0.1401
     35 F           1.4994    0.2682   20.0679 F       1  UNL1       -0.2042
     36 C           3.0771   -1.4390   21.2280 C.ar    1  UNL1        0.0293
     37 C           3.7931   -1.9204   22.4551 C.ar    1  UNL1       -0.0020
@<TRIPOS>BOND
     1    20    21    1
     2    21    22    2
     3    21    14    1
     4    14    15   ar
     5    15    16   ar
     6    16     8    1
     7     8     9   am
     8     9    10    2
     9     9    11   am
    10     1    11    1
    11     1     2    1
    12     2     3    1
    13     3     4    1
    14     4     5    1
    15     5     6    1
    16     6    23    1
    17    23    24    1
    18    24    25    1
    19    25    26    1
    20    26    27    1
    21    27    28    1
    22    28    30    1
    23    30    31    1
    24    31    32   ar
    25    32    33   ar
    26    33    34   ar
    27    34    35    1
    28    34    36   ar
    29    36    37   ar
    30    28    29    1
    31    16    17   ar
    32    17    18   ar
    33    18    19    1
    34    18    14   ar
    35     6     1    1
    36    29    24    1
    37    37    31   ar
    38     8    12    1
    39    11    13    1
    40     4     7    1
@<TRIPOS>MOLECULE
*****
 37 40 0 0 0
SMALL
GASTEIGER

@<TRIPOS>ATOM
      1 C           8.4613   -5.3733   26.7265 C.3     1  UNL1        0.0771
      2 C           8.9518   -6.6777   27.2814 C.3     1  UNL1        0.0368
      3 C           8.8763   -7.9228   26.4483 C.3     1  UNL1        0.0703
      4 N           8.3104   -7.8634   25.0604 N.3     1  UNL1       -0.2973
      5 C           7.8200   -6.5590   24.5056 C.3     1  UNL1        0.0716
      6 C           7.8954   -5.3139   25.3387 C.3     1  UNL1        0.0498
      7 H           7.5211   -8.5090   25.0364 H       1  UNL1        0.1232
      8 N           7.4939   -2.5402   29.3319 N.am    1  UNL1       -0.2485
      9 C           7.4186   -3.7853   28.4989 C.2     1  UNL1        0.3058
     10 O           6.2250   -4.6877   28.6051 O.2     1  UNL1       -0.2524
     11 N           8.5367   -4.1281   27.5596 N.am    1  UNL1       -0.2901
     12 H           8.2773   -1.9480   29.2622 H       1  UNL1        0.1583
     13 H           9.3201   -3.5359   27.4899 H       1  UNL1        0.1509
     14 C           4.3815   -1.1851   31.2140 C.ar    1  UNL1        0.0803
     15 S           5.2758   -1.2116   30.0101 S.2     1  UNL1       -0.0488
     16 C           6.3758   -2.1974   30.2712 C.ar    1  UNL1        0.1664
     17 N           6.1613   -2.7803   31.6366 N.ar    1  UNL1       -0.2282
     18 C           4.9287   -2.1547   32.2193 C.ar    1  UNL1        0.0701
     19 C           4.3458   -2.4472   33.5700 C.3     1  UNL1        0.0528
     20 C           3.1430    0.7705   32.3935 C.3     1  UNL1        0.0779
     21 C           3.1553   -0.3379   31.3830 C.2     1  UNL1        0.1807
     22 O           1.9414   -0.5991   30.5415 O.2     1  UNL1       -0.2908
     23 C           7.4049   -4.0094   24.7838 C.3     1  UNL1        0.0751
     24 N           7.2618   -3.8314   23.3013 N.3     1  UNL1       -0.2726
     25 C           8.4804   -3.6400   22.4478 C.3     1  UNL1        0.0721
     26 C           8.3372   -3.4619   20.9653 C.3     1  UNL1        0.0174
     27 C           6.9755   -3.4752   20.3363 C.3     1  UNL1        0.0031
     28 C           5.7570   -3.6666   21.1899 C.3     1  UNL1        0.0204
     29 C           5.9001   -3.8447   22.6724 C.3     1  UNL1        0.0724
     30 C           4.3952   -3.6800   20.5609 C.3     1  UNL1        0.0277
     31 C           3.8540   -2.4377   19.9176 C.ar    1  UNL1       -0.0220
     32 C           3.0302   -1.4751   20.7208 C.ar    1  UNL1       -0.0020
     33 C           2.4890   -0.2328   20.0776 C.ar    1  UNL1        0.0293
     34 C           2.7716    0.0470   18.6312 C.ar    1  UNL1        0.1401
     35 F           2.2304    1.2893   17.9880 F       1  UNL1       -0.2042
     36 C           3.5953   -0.9156   17.8281 C.ar    1  UNL1        0.0293
     37 C           4.1365   -2.1579   18.4713 C.ar    1  UNL1       -0.0020
@<TRIPOS>BOND
     1    20    21    1
     2    21    22    2
     3    21    14    1
     4    14    15   ar
     5    15    16   ar
     6    16     8    1
     7     8     9   am
     8     9    10    2
     9     9    11   am
    10     1    11    1
    11     1     2    1
    12     2     3    1
    13     3     4    1
    14     4     5    1
    15     5     6    1
    16     6    23    1
    17    23    24    1
    18    24    25    1
    19    25    26    1
    20    26    27    1
    21    27    28    1
    22    28    30    1
    23    30    31    1
    24    31    32   ar
    25    32    33   ar
    26    33    34   ar
    27    34    35    1
    28    34    36   ar
    29    36    37   ar
    30    28    29    1
    31    16    17   ar
    32    17    18   ar
    33    18    19    1
    34    18    14   ar
    35     6     1    1
    36    29    24    1
    37    37    31   ar
    38     8    12    1
    39    11    13    1
    40     4     7    1
@<TRIPOS>MOLECULE
*****
 37 40 0 0 0
SMALL
GASTEIGER

@<TRIPOS>ATOM
      1 C           3.1237    3.2282   37.4581 C.3     1  UNL1        0.0771
      2 C           2.9787    4.6906   37.7586 C.3     1  UNL1        0.0368
      3 C           3.8748    5.3406   38.7707 C.3     1  UNL1        0.0703
      4 N           4.9158    4.5283   39.4824 N.3     1  UNL1       -0.2973
      5 C           5.0608    3.0659   39.1818 C.3     1  UNL1        0.0716
      6 C           4.1647    2.4159   38.1697 C.3     1  UNL1        0.0498
      7 H           4.7185    4.6057   40.4801 H       1  UNL1        0.1232
      8 N           1.6771    1.9917   33.9755 N.am    1  UNL1       -0.2485
      9 C           2.5731    2.6417   34.9877 C.2     1  UNL1        0.3058
     10 O           3.8147    3.3556   34.5416 O.2     1  UNL1       -0.2524
     11 N           2.2276    2.5780   36.4459 N.am    1  UNL1       -0.2901
     12 H           0.8622    1.5232   34.2683 H       1  UNL1        0.1583
     13 H           1.4127    2.1096   36.7387 H       1  UNL1        0.1509
     14 C           2.7732    1.4363   30.2937 C.ar    1  UNL1        0.0803
     15 S           2.5798    0.9326   31.6933 S.2     1  UNL1       -0.0488
     16 C           2.0226    2.0553   32.5172 C.ar    1  UNL1        0.1664
     17 N           1.8717    3.2530   31.6268 N.ar    1  UNL1       -0.2282
     18 C           2.3355    2.8704   30.2526 C.ar    1  UNL1        0.0701
     19 C           2.3578    3.7649   29.0487 C.3     1  UNL1        0.0528
     20 C           2.5595   -0.5531   28.6364 C.3     1  UNL1        0.0779
     21 C           3.3100    0.6448   29.1381 C.2     1  UNL1        0.1807
     22 O           4.5972    1.0513   28.4841 O.2     1  UNL1       -0.2908
     23 C           4.3097    0.9534   37.8691 C.3     1  UNL1        0.0751
     24 N           5.0647    0.5092   36.6515 N.3     1  UNL1       -0.2726
     25 C           6.4283    1.0671   36.3696 C.3     1  UNL1        0.0721
     26 C           7.1833    0.6229   35.1519 C.3     1  UNL1        0.0174
     27 C           6.5747   -0.3791   34.2162 C.3     1  UNL1        0.0031
     28 C           5.2111   -0.9370   34.4981 C.3     1  UNL1        0.0204
     29 C           4.4561   -0.4928   35.7158 C.3     1  UNL1        0.0724
     30 C           4.6025   -1.9390   33.5624 C.3     1  UNL1        0.0277
     31 C           5.3741   -2.4142   32.3670 C.ar    1  UNL1       -0.0220
     32 C           6.2191   -3.6499   32.4626 C.ar    1  UNL1       -0.0020
     33 C           6.9908   -4.1250   31.2672 C.ar    1  UNL1        0.0293
     34 C           6.9175   -3.3644   29.9764 C.ar    1  UNL1        0.1401
     35 F           7.6891   -3.8396   28.7811 F       1  UNL1       -0.2042
     36 C           6.0725   -2.1288   29.8809 C.ar    1  UNL1        0.0293
     37 C           5.3008   -1.6537   31.0762 C.ar    1  UNL1       -0.0020
@<TRIPOS>BOND
     1    20    21    1
     2    21    22    2
     3    21    14    1
     4    14    15   ar
     5    15    16   ar
     6    16     8    1
     7     8     9   am
     8     9    10    2
     9     9    11   am
    10     1    11    1
    11     1     2    1
    12     2     3    1
    13     3     4    1
    14     4     5    1
    15     5     6    1
    16     6    23    1
    17    23    24    1
    18    24    25    1
    19    25    26    1
    20    26    27    1
    21    27    28    1
    22    28    30    1
    23    30    31    1
    24    31    32   ar
    25    32    33   ar
    26    33    34   ar
    27    34    35    1
    28    34    36   ar
    29    36    37   ar
    30    28    29    1
    31    16    17   ar
    32    17    18   ar
    33    18    19    1
    34    18    14   ar
    35     6     1    1
    36    29    24    1
    37    37    31   ar
    38     8    12    1
    39    11    13    1
    40     4     7    1
