@<TRIPOS>MOLECULE
*****
 25 27 0 0 0
SMALL
GASTEIGER

@<TRIPOS>ATOM
      1 C         -11.0216  -18.4836   20.5351 C.3     1  UNL1        0.2226
      2 C         -11.3300  -17.4913   21.6168 C.3     1  UNL1        0.1201
      3 C          -6.9508  -15.5095   25.2078 C.2     1  UNL1        0.4049
      4 O          -6.9657  -15.8519   26.6680 O.2     1  UNL1       -0.2262
      5 N          -8.0456  -16.0050   24.3100 N.am    1  UNL1       -0.2432
      6 C          -8.0307  -15.6626   22.8497 C.3     1  UNL1        0.1141
      7 C          -9.1255  -16.1580   21.9520 C.3     1  UNL1        0.0941
      8 N         -10.2352  -16.9958   22.5146 N.3     1  UNL1       -0.2666
      9 C         -10.2501  -17.3383   23.9749 C.3     1  UNL1        0.0941
     10 C          -9.1553  -16.8428   24.8726 C.3     1  UNL1        0.1141
     11 O          -5.8411  -14.6717   24.6452 O.3     1  UNL1       -0.4345
     12 C          -4.4993  -16.7584   23.8737 C.3     1  UNL1        0.0513
     13 C          -4.8081  -15.2954   23.7542 C.3     1  UNL1        0.2102
     14 O         -10.1874  -19.6920   20.8415 O.3     1  UNL1       -0.4740
     15 C          -8.6908  -19.5898   20.8416 C.ar    1  UNL1        0.1387
     16 C          -7.9515  -19.4065   19.5494 C.ar    1  UNL1        0.0384
     17 C          -6.4549  -19.3043   19.5495 C.ar    1  UNL1        0.0207
     18 C          -5.6977  -19.3855   20.8418 C.ar    1  UNL1        0.0657
     19 C          -6.4371  -19.5689   22.1340 C.ar    1  UNL1        0.0207
     20 C          -7.9336  -19.6710   22.1339 C.ar    1  UNL1        0.0384
     21 N          -4.2013  -19.2834   20.8419 N.ar    1  UNL1       -0.2864
     22 C          -3.3515  -18.7842   19.7111 C.ar    1  UNL1        0.1022
     23 C          -1.9168  -18.8548   20.1431 C.ar    1  UNL1        0.1196
     24 N          -1.8799  -19.3975   21.5411 N.ar    1  UNL1       -0.2220
     25 C          -3.2918  -19.6624   21.9729 C.ar    1  UNL1        0.1828
@<TRIPOS>BOND
     1    12    13    1
     2    13    11    1
     3    11     3    1
     4     3     4    2
     5     3     5   am
     6     5     6    1
     7     6     7    1
     8     7     8    1
     9     8     2    1
    10     2     1    1
    11     1    14    1
    12    14    15    1
    13    15    16   ar
    14    16    17   ar
    15    17    18   ar
    16    18    21    1
    17    21    22   ar
    18    22    23   ar
    19    23    24   ar
    20    24    25   ar
    21    18    19   ar
    22    19    20   ar
    23     8     9    1
    24     9    10    1
    25    10     5    1
    26    20    15   ar
    27    25    21   ar
@<TRIPOS>MOLECULE
*****
 25 27 0 0 0
SMALL
GASTEIGER

@<TRIPOS>ATOM
      1 C         -11.1641  -18.1180   19.7795 C.3     1  UNL1        0.2226
      2 C         -10.5375  -19.3552   20.3510 C.3     1  UNL1        0.1201
      3 C          -4.6391  -19.5017   21.4406 C.2     1  UNL1        0.4049
      4 O          -4.1395  -19.6213   22.8499 O.2     1  UNL1       -0.2262
      5 N          -6.1137  -19.4650   21.1682 N.am    1  UNL1       -0.2432
      6 C          -6.6133  -19.3454   19.7590 C.3     1  UNL1        0.1141
      7 C          -8.0879  -19.3088   19.4865 C.3     1  UNL1        0.0941
      8 N          -9.0629  -19.3918   20.6234 N.3     1  UNL1       -0.2666
      9 C          -8.5633  -19.5114   22.0326 C.3     1  UNL1        0.0941
     10 C          -7.0887  -19.5481   22.3050 C.3     1  UNL1        0.1141
     11 O          -3.6641  -19.4186   20.3038 O.3     1  UNL1       -0.4345
     12 C          -1.8221  -18.1179   19.0133 C.3     1  UNL1        0.0513
     13 C          -2.7347  -18.2461   20.1969 C.3     1  UNL1        0.2102
     14 O         -11.3856  -16.9179   20.6517 O.3     1  UNL1       -0.4740
     15 C         -10.4266  -16.6117   21.7638 C.ar    1  UNL1        0.1387
     16 C         -10.7824  -16.9611   23.1785 C.ar    1  UNL1        0.0384
     17 C          -9.8233  -16.6549   24.2905 C.ar    1  UNL1        0.0207
     18 C          -8.5085  -15.9994   23.9878 C.ar    1  UNL1        0.0657
     19 C          -8.1528  -15.6501   22.5731 C.ar    1  UNL1        0.0207
     20 C          -9.1118  -15.9562   21.4611 C.ar    1  UNL1        0.0384
     21 N          -7.5495  -15.6933   25.0998 N.ar    1  UNL1       -0.2864
     22 C          -7.8705  -15.6901   26.5651 C.ar    1  UNL1        0.1022
     23 C          -6.6205  -15.3314   27.3127 C.ar    1  UNL1        0.1196
     24 N          -5.5270  -15.1128   26.3093 N.ar    1  UNL1       -0.2220
     25 C          -6.1012  -15.3365   24.9418 C.ar    1  UNL1        0.1828
@<TRIPOS>BOND
     1    12    13    1
     2    13    11    1
     3    11     3    1
     4     3     4    2
     5     3     5   am
     6     5     6    1
     7     6     7    1
     8     7     8    1
     9     8     2    1
    10     2     1    1
    11     1    14    1
    12    14    15    1
    13    15    16   ar
    14    16    17   ar
    15    17    18   ar
    16    18    21    1
    17    21    22   ar
    18    22    23   ar
    19    23    24   ar
    20    24    25   ar
    21    18    19   ar
    22    19    20   ar
    23     8     9    1
    24     9    10    1
    25    10     5    1
    26    20    15   ar
    27    25    21   ar
@<TRIPOS>MOLECULE
*****
 25 27 0 0 0
SMALL
GASTEIGER

@<TRIPOS>ATOM
      1 C         -11.4309  -18.4512   20.1221 C.3     1  UNL1        0.2226
      2 C         -10.6682  -19.6334   20.6423 C.3     1  UNL1        0.1201
      3 C          -4.6897  -19.3879   21.0862 C.2     1  UNL1        0.4049
      4 O          -3.8502  -19.2658   19.8492 O.2     1  UNL1       -0.2262
      5 N          -6.1844  -19.4493   20.9752 N.am    1  UNL1       -0.2432
      6 C          -7.0239  -19.5714   22.2122 C.3     1  UNL1        0.1141
      7 C          -8.5185  -19.6327   22.1012 C.3     1  UNL1        0.0941
      8 N          -9.1736  -19.5720   20.7533 N.3     1  UNL1       -0.2666
      9 C          -8.3341  -19.4500   19.5163 C.3     1  UNL1        0.0941
     10 C          -6.8395  -19.3886   19.6272 C.3     1  UNL1        0.1141
     11 O          -4.0346  -19.4486   22.4342 O.3     1  UNL1       -0.4345
     12 C          -2.7581  -17.1877   22.5287 C.3     1  UNL1        0.0513
     13 C          -3.6895  -18.1810   23.1581 C.3     1  UNL1        0.2102
     14 O         -11.6323  -17.2464   20.9927 O.3     1  UNL1       -0.4740
     15 C         -10.5981  -16.8786   22.0152 C.ar    1  UNL1        0.1387
     16 C          -9.3818  -16.1021   21.6059 C.ar    1  UNL1        0.0384
     17 C          -8.3477  -15.7342   22.6283 C.ar    1  UNL1        0.0207
     18 C          -8.5299  -16.1429   24.0600 C.ar    1  UNL1        0.0657
     19 C          -9.7463  -16.9195   24.4693 C.ar    1  UNL1        0.0207
     20 C         -10.7804  -17.2873   23.4468 C.ar    1  UNL1        0.0384
     21 N          -7.4958  -15.7751   25.0824 N.ar    1  UNL1       -0.2864
     22 C          -6.0433  -15.5150   24.8132 C.ar    1  UNL1        0.1022
     23 C          -5.3824  -15.1820   26.1180 C.ar    1  UNL1        0.1196
     24 N          -6.4266  -15.2363   27.1935 N.ar    1  UNL1       -0.2220
     25 C          -7.7327  -15.6029   26.5535 C.ar    1  UNL1        0.1828
@<TRIPOS>BOND
     1    12    13    1
     2    13    11    1
     3    11     3    1
     4     3     4    2
     5     3     5   am
     6     5     6    1
     7     6     7    1
     8     7     8    1
     9     8     2    1
    10     2     1    1
    11     1    14    1
    12    14    15    1
    13    15    16   ar
    14    16    17   ar
    15    17    18   ar
    16    18    21    1
    17    21    22   ar
    18    22    23   ar
    19    23    24   ar
    20    24    25   ar
    21    18    19   ar
    22    19    20   ar
    23     8     9    1
    24     9    10    1
    25    10     5    1
    26    20    15   ar
    27    25    21   ar
@<TRIPOS>MOLECULE
*****
 25 27 0 0 0
SMALL
GASTEIGER

@<TRIPOS>ATOM
      1 C          -7.0268  -15.8772   27.2262 C.3     1  UNL1        0.2226
      2 C          -8.4299  -15.7334   26.7158 C.3     1  UNL1        0.1201
      3 C         -10.1545  -18.7115   21.8009 C.2     1  UNL1        0.4049
      4 O         -10.7347  -20.0892   21.9237 O.2     1  UNL1       -0.2262
      5 N          -9.7234  -17.9669   23.0296 N.am    1  UNL1       -0.2432
      6 C          -9.1431  -16.5892   22.9068 C.3     1  UNL1        0.1141
      7 C          -8.7120  -15.8447   24.1355 C.3     1  UNL1        0.0941
      8 N          -8.8611  -16.4779   25.4871 N.3     1  UNL1       -0.2666
      9 C          -9.4413  -17.8556   25.6099 C.3     1  UNL1        0.0941
     10 C          -9.8725  -18.6002   24.3812 C.3     1  UNL1        0.1141
     11 O         -10.0054  -18.0783   20.4493 O.3     1  UNL1       -0.4345
     12 C         -11.6660  -16.1183   20.0605 C.3     1  UNL1        0.0513
     13 C         -11.2054  -17.5117   19.7500 C.3     1  UNL1        0.2102
     14 O          -5.9047  -15.1450   26.5518 O.3     1  UNL1       -0.4740
     15 C          -5.1297  -15.8088   25.4524 C.ar    1  UNL1        0.1387
     16 C          -4.3394  -17.0516   25.7367 C.ar    1  UNL1        0.0384
     17 C          -3.5643  -17.7155   24.6373 C.ar    1  UNL1        0.0207
     18 C          -3.5796  -17.1366   23.2536 C.ar    1  UNL1        0.0657
     19 C          -4.3700  -15.8937   22.9694 C.ar    1  UNL1        0.0207
     20 C          -5.1449  -15.2299   24.0687 C.ar    1  UNL1        0.0384
     21 N          -2.8046  -17.8004   22.1543 N.ar    1  UNL1       -0.2864
     22 C          -2.0476  -17.1024   21.0635 C.ar    1  UNL1        0.1022
     23 C          -1.4257  -18.1494   20.1877 C.ar    1  UNL1        0.1196
     24 N          -1.7984  -19.4945   20.7372 N.ar    1  UNL1       -0.2220
     25 C          -2.6506  -19.2787   21.9526 C.ar    1  UNL1        0.1828
@<TRIPOS>BOND
     1    12    13    1
     2    13    11    1
     3    11     3    1
     4     3     4    2
     5     3     5   am
     6     5     6    1
     7     6     7    1
     8     7     8    1
     9     8     2    1
    10     2     1    1
    11     1    14    1
    12    14    15    1
    13    15    16   ar
    14    16    17   ar
    15    17    18   ar
    16    18    21    1
    17    21    22   ar
    18    22    23   ar
    19    23    24   ar
    20    24    25   ar
    21    18    19   ar
    22    19    20   ar
    23     8     9    1
    24     9    10    1
    25    10     5    1
    26    20    15   ar
    27    25    21   ar
@<TRIPOS>MOLECULE
*****
 25 27 0 0 0
SMALL
GASTEIGER

@<TRIPOS>ATOM
      1 C          -4.7207  -19.9297   20.1721 C.3     1  UNL1        0.2226
      2 C          -3.9043  -19.4595   21.3394 C.3     1  UNL1        0.1201
      3 C          -6.0436  -15.1894   24.9710 C.2     1  UNL1        0.4049
      4 O          -5.1321  -14.5125   25.9512 O.2     1  UNL1       -0.2262
      5 N          -5.5088  -16.2569   24.0631 N.am    1  UNL1       -0.2432
      6 C          -6.4204  -16.9338   23.0829 C.3     1  UNL1        0.1141
      7 C          -5.8855  -18.0013   22.1750 C.3     1  UNL1        0.0941
      8 N          -4.4391  -18.3920   22.2473 N.3     1  UNL1       -0.2666
      9 C          -3.5276  -17.7151   23.2275 C.3     1  UNL1        0.0941
     10 C          -4.0624  -16.6476   24.1354 C.3     1  UNL1        0.1141
     11 O          -7.4900  -14.7987   24.8987 O.3     1  UNL1       -0.4345
     12 C          -8.2503  -15.6126   27.2460 C.3     1  UNL1        0.0513
     13 C          -8.4972  -15.4866   25.7718 C.3     1  UNL1        0.2102
     14 O          -5.8851  -20.8490   20.3930 O.3     1  UNL1       -0.4740
     15 C          -7.2129  -20.2904   20.8113 C.ar    1  UNL1        0.1387
     16 C          -8.1188  -19.6661   19.7917 C.ar    1  UNL1        0.0384
     17 C          -9.4466  -19.1075   20.2100 C.ar    1  UNL1        0.0207
     18 C          -9.8685  -19.1732   21.6480 C.ar    1  UNL1        0.0657
     19 C          -8.9626  -19.7975   22.6676 C.ar    1  UNL1        0.0207
     20 C          -7.6348  -20.3561   22.2493 C.ar    1  UNL1        0.0384
     21 N         -11.1962  -18.6146   22.0663 N.ar    1  UNL1       -0.2864
     22 C         -11.7501  -18.6076   23.4603 C.ar    1  UNL1        0.1022
     23 C         -13.0995  -17.9536   23.4196 C.ar    1  UNL1        0.1196
     24 N         -13.3795  -17.5565   22.0005 N.ar    1  UNL1       -0.2220
     25 C         -12.2032  -17.9650   21.1641 C.ar    1  UNL1        0.1828
@<TRIPOS>BOND
     1    12    13    1
     2    13    11    1
     3    11     3    1
     4     3     4    2
     5     3     5   am
     6     5     6    1
     7     6     7    1
     8     7     8    1
     9     8     2    1
    10     2     1    1
    11     1    14    1
    12    14    15    1
    13    15    16   ar
    14    16    17   ar
    15    17    18   ar
    16    18    21    1
    17    21    22   ar
    18    22    23   ar
    19    23    24   ar
    20    24    25   ar
    21    18    19   ar
    22    19    20   ar
    23     8     9    1
    24     9    10    1
    25    10     5    1
    26    20    15   ar
    27    25    21   ar
@<TRIPOS>MOLECULE
*****
 25 27 0 0 0
SMALL
GASTEIGER

@<TRIPOS>ATOM
      1 C          -5.0747  -15.3514   25.5529 C.3     1  UNL1        0.2226
      2 C          -4.7927  -15.0843   24.1041 C.3     1  UNL1        0.1201
      3 C          -2.2802  -19.3405   20.7024 C.2     1  UNL1        0.4049
      4 O          -1.0269  -19.0435   19.9336 O.2     1  UNL1       -0.2262
      5 N          -2.9083  -18.2765   21.5528 N.am    1  UNL1       -0.2432
      6 C          -4.1615  -18.5735   22.3217 C.3     1  UNL1        0.1141
      7 C          -4.7897  -17.5094   23.1721 C.3     1  UNL1        0.0941
      8 N          -4.1646  -16.1484   23.2537 N.3     1  UNL1       -0.2666
      9 C          -2.9113  -15.8514   22.4849 C.3     1  UNL1        0.0941
     10 C          -2.2832  -16.9154   21.6345 C.3     1  UNL1        0.1141
     11 O          -2.9053  -20.7016   20.6208 O.3     1  UNL1       -0.4345
     12 C          -5.4678  -21.0017   20.3151 C.3     1  UNL1        0.0513
     13 C          -4.0890  -20.9310   19.7285 C.3     1  UNL1        0.2102
     14 O          -6.4910  -15.4012   26.0446 O.3     1  UNL1       -0.4740
     15 C          -7.5930  -15.8175   25.1161 C.ar    1  UNL1        0.1387
     16 C          -7.6604  -15.2492   23.7296 C.ar    1  UNL1        0.0384
     17 C          -8.7625  -15.6655   22.8010 C.ar    1  UNL1        0.0207
     18 C          -9.7972  -16.6503   23.2590 C.ar    1  UNL1        0.0657
     19 C          -9.7298  -17.2186   24.6456 C.ar    1  UNL1        0.0207
     20 C          -8.6277  -16.8022   25.5741 C.ar    1  UNL1        0.0384
     21 N         -10.8992  -17.0666   22.3306 N.ar    1  UNL1       -0.2864
     22 C         -12.3127  -17.3787   22.7238 C.ar    1  UNL1        0.1022
     23 C         -13.0684  -17.7490   21.4821 C.ar    1  UNL1        0.1196
     24 N         -12.1218  -17.6657   20.3214 N.ar    1  UNL1       -0.2220
     25 C         -10.7813  -17.2440   20.8458 C.ar    1  UNL1        0.1828
@<TRIPOS>BOND
     1    12    13    1
     2    13    11    1
     3    11     3    1
     4     3     4    2
     5     3     5   am
     6     5     6    1
     7     6     7    1
     8     7     8    1
     9     8     2    1
    10     2     1    1
    11     1    14    1
    12    14    15    1
    13    15    16   ar
    14    16    17   ar
    15    17    18   ar
    16    18    21    1
    17    21    22   ar
    18    22    23   ar
    19    23    24   ar
    20    24    25   ar
    21    18    19   ar
    22    19    20   ar
    23     8     9    1
    24     9    10    1
    25    10     5    1
    26    20    15   ar
    27    25    21   ar
@<TRIPOS>MOLECULE
*****
 25 27 0 0 0
SMALL
GASTEIGER

@<TRIPOS>ATOM
      1 C          -4.8562  -15.3564   25.3450 C.3     1  UNL1        0.2226
      2 C          -4.8748  -16.8463   25.1725 C.3     1  UNL1        0.1201
      3 C          -2.6287  -19.3174   20.1876 C.2     1  UNL1        0.4049
      4 O          -3.5409  -20.0010   19.2128 O.2     1  UNL1       -0.2262
      5 N          -3.1902  -18.6996   21.4339 N.am    1  UNL1       -0.2432
      6 C          -2.2780  -18.0159   22.4087 C.3     1  UNL1        0.1141
      7 C          -2.8395  -17.3981   23.6549 C.3     1  UNL1        0.0941
      8 N          -4.3133  -17.4641   23.9263 N.3     1  UNL1       -0.2666
      9 C          -5.2255  -18.1477   22.9515 C.3     1  UNL1        0.0941
     10 C          -4.6640  -18.7655   21.7052 C.3     1  UNL1        0.1141
     11 O          -1.1550  -19.2514   19.9163 O.3     1  UNL1       -0.4345
     12 C           0.6541  -17.3969   20.1120 C.3     1  UNL1        0.0513
     13 C          -0.5408  -17.9779   19.4155 C.3     1  UNL1        0.2102
     14 O          -6.1187  -14.5654   25.1706 O.3     1  UNL1       -0.4740
     15 C          -7.2726  -15.1520   24.4124 C.ar    1  UNL1        0.1387
     16 C          -7.2823  -15.1127   22.9130 C.ar    1  UNL1        0.0384
     17 C          -8.4361  -15.6993   22.1548 C.ar    1  UNL1        0.0207
     18 C          -9.5801  -16.3251   22.8962 C.ar    1  UNL1        0.0657
     19 C          -9.5704  -16.3643   24.3957 C.ar    1  UNL1        0.0207
     20 C          -8.4166  -15.7777   25.1538 C.ar    1  UNL1        0.0384
     21 N         -10.7339  -16.9116   22.1381 N.ar    1  UNL1       -0.2864
     22 C         -12.0600  -17.3066   22.7174 C.ar    1  UNL1        0.1022
     23 C         -12.9099  -17.8453   21.6049 C.ar    1  UNL1        0.1196
     24 N         -12.1090  -17.7832   20.3381 N.ar    1  UNL1       -0.2220
     25 C         -10.7642  -17.2062   20.6677 C.ar    1  UNL1        0.1828
@<TRIPOS>BOND
     1    12    13    1
     2    13    11    1
     3    11     3    1
     4     3     4    2
     5     3     5   am
     6     5     6    1
     7     6     7    1
     8     7     8    1
     9     8     2    1
    10     2     1    1
    11     1    14    1
    12    14    15    1
    13    15    16   ar
    14    16    17   ar
    15    17    18   ar
    16    18    21    1
    17    21    22   ar
    18    22    23   ar
    19    23    24   ar
    20    24    25   ar
    21    18    19   ar
    22    19    20   ar
    23     8     9    1
    24     9    10    1
    25    10     5    1
    26    20    15   ar
    27    25    21   ar
@<TRIPOS>MOLECULE
*****
 25 27 0 0 0
SMALL
GASTEIGER

@<TRIPOS>ATOM
      1 C          -0.7796    3.2128   21.0405 C.3     1  UNL1        0.2226
      2 C          -1.4366    3.5106   22.3556 C.3     1  UNL1        0.1201
      3 C           0.8939    1.3284   27.4356 C.2     1  UNL1        0.4049
      4 O           2.1800    0.5573   27.4002 O.2     1  UNL1       -0.2262
      5 N           0.3112    1.8739   26.1656 N.am    1  UNL1       -0.2432
      6 C          -0.9749    2.6450   26.2010 C.3     1  UNL1        0.1141
      7 C          -1.5575    3.1905   24.9310 C.3     1  UNL1        0.0941
      8 N          -0.8540    2.9650   23.6256 N.3     1  UNL1       -0.2666
      9 C           0.4321    2.1940   23.5902 C.3     1  UNL1        0.0941
     10 C           1.0148    1.6484   24.8602 C.3     1  UNL1        0.1141
     11 O           0.1904    1.5539   28.7411 O.3     1  UNL1       -0.4345
     12 C          -1.3861   -0.5113   28.7341 C.3     1  UNL1        0.0513
     13 C          -0.4423    0.4001   29.4612 C.3     1  UNL1        0.2102
     14 O          -0.9645    1.8707   20.3966 O.3     1  UNL1       -0.4740
     15 C           0.2302    1.0868   19.9402 C.ar    1  UNL1        0.1387
     16 C           1.0354    1.5618   18.7671 C.ar    1  UNL1        0.0384
     17 C           2.2301    0.7779   18.3107 C.ar    1  UNL1        0.0207
     18 C           2.6196   -0.4809   19.0275 C.ar    1  UNL1        0.0657
     19 C           1.8144   -0.9558   20.2006 C.ar    1  UNL1        0.0207
     20 C           0.6198   -0.1720   20.6569 C.ar    1  UNL1        0.0384
     21 N           3.8143   -1.2648   18.5711 N.ar    1  UNL1       -0.2864
     22 C           4.1483   -2.6728   18.9659 C.ar    1  UNL1        0.1022
     23 C           5.4252   -3.0565   18.2787 C.ar    1  UNL1        0.1196
     24 N           5.8804   -1.8855   17.4591 N.ar    1  UNL1       -0.2220
     25 C           4.8848   -0.7782   17.6399 C.ar    1  UNL1        0.1828
@<TRIPOS>BOND
     1    12    13    1
     2    13    11    1
     3    11     3    1
     4     3     4    2
     5     3     5   am
     6     5     6    1
     7     6     7    1
     8     7     8    1
     9     8     2    1
    10     2     1    1
    11     1    14    1
    12    14    15    1
    13    15    16   ar
    14    16    17   ar
    15    17    18   ar
    16    18    21    1
    17    21    22   ar
    18    22    23   ar
    19    23    24   ar
    20    24    25   ar
    21    18    19   ar
    22    19    20   ar
    23     8     9    1
    24     9    10    1
    25    10     5    1
    26    20    15   ar
    27    25    21   ar
@<TRIPOS>MOLECULE
*****
 25 27 0 0 0
SMALL
GASTEIGER

@<TRIPOS>ATOM
      1 C           4.9837   -2.7152   32.9135 C.3     1  UNL1        0.2226
      2 C           4.4224   -1.4120   33.3997 C.3     1  UNL1        0.1201
      3 C           0.9399    1.8860   29.7947 C.2     1  UNL1        0.4049
      4 O           0.4826    3.2459   30.2323 O.2     1  UNL1       -0.2262
      5 N           1.8105    1.0615   30.6960 N.am    1  UNL1       -0.2432
      6 C           2.2679   -0.2984   30.2584 C.3     1  UNL1        0.1141
      7 C           3.1385   -1.1229   31.1596 C.3     1  UNL1        0.0941
      8 N           3.5518   -0.5875   32.4985 N.3     1  UNL1       -0.2666
      9 C           3.0944    0.7724   32.9360 C.3     1  UNL1        0.0941
     10 C           2.2238    1.5969   32.0348 C.3     1  UNL1        0.1141
     11 O           0.5266    1.3506   28.4559 O.3     1  UNL1       -0.4345
     12 C          -1.2901   -0.4782   28.7801 C.3     1  UNL1        0.0513
     13 C          -0.8751    0.8601   28.2444 C.3     1  UNL1        0.2102
     14 O           6.3544   -2.7614   32.3059 O.3     1  UNL1       -0.4740
     15 C           6.6433   -3.7073   31.1781 C.ar    1  UNL1        0.1387
     16 C           7.1347   -5.0942   31.4697 C.ar    1  UNL1        0.0384
     17 C           7.4236   -6.0401   30.3419 C.ar    1  UNL1        0.0207
     18 C           7.2212   -5.5991   28.9225 C.ar    1  UNL1        0.0657
     19 C           6.7298   -4.2121   28.6310 C.ar    1  UNL1        0.0207
     20 C           6.4409   -3.2662   29.7588 C.ar    1  UNL1        0.0384
     21 N           7.5101   -6.5449   27.7948 N.ar    1  UNL1       -0.2864
     22 C           7.1514   -6.3343   26.3536 C.ar    1  UNL1        0.1022
     23 C           7.6281   -7.5266   25.5783 C.ar    1  UNL1        0.1196
     24 N           8.2814   -8.4742   26.5404 N.ar    1  UNL1       -0.2220
     25 C           8.2084   -7.8674   27.9102 C.ar    1  UNL1        0.1828
@<TRIPOS>BOND
     1    12    13    1
     2    13    11    1
     3    11     3    1
     4     3     4    2
     5     3     5   am
     6     5     6    1
     7     6     7    1
     8     7     8    1
     9     8     2    1
    10     2     1    1
    11     1    14    1
    12    14    15    1
    13    15    16   ar
    14    16    17   ar
    15    17    18   ar
    16    18    21    1
    17    21    22   ar
    18    22    23   ar
    19    23    24   ar
    20    24    25   ar
    21    18    19   ar
    22    19    20   ar
    23     8     9    1
    24     9    10    1
    25    10     5    1
    26    20    15   ar
    27    25    21   ar
