@<TRIPOS>MOLECULE
*****
 36 40 0 0 0
SMALL
GASTEIGER

@<TRIPOS>ATOM
      1 C           0.3587    2.0184   20.5624 C.ar    1  UNL1        0.0664
      2 C           1.2411    2.8702   19.6989 C.ar    1  UNL1        0.0173
      3 C           2.2331    2.2272   18.7756 C.ar    1  UNL1       -0.0027
      4 C           2.3427    0.7324   18.7157 C.ar    1  UNL1       -0.0201
      5 C           1.4603   -0.1194   19.5793 C.ar    1  UNL1       -0.0027
      6 C           0.4683    0.5235   20.5026 C.ar    1  UNL1        0.0173
      7 C          -0.4797    2.8253   22.9689 C.ar    1  UNL1        0.1248
      8 N          -1.7045    3.5185   23.4878 N.ar    1  UNL1       -0.2290
      9 C          -2.6150    3.7831   22.3254 C.ar    1  UNL1        0.1170
     10 C          -3.9614    4.4379   22.2339 C.ar    1  UNL1        0.0238
     11 C          -4.6457    4.5630   20.9049 C.ar    1  UNL1        0.0223
     12 C          -3.9836    4.0332   19.6676 C.ar    1  UNL1        0.1006
     13 N          -2.6372    3.3784   19.7592 N.ar    1  UNL1       -0.2248
     14 C          -1.9529    3.2533   21.0881 C.ar    1  UNL1        0.1663
     15 N          -0.6333    2.6614   21.4858 N.ar    1  UNL1       -0.2789
     16 C           1.9193    3.2337   23.8787 C.3     1  UNL1        0.0079
     17 C           0.6927    2.3750   23.7890 C.3     1  UNL1        0.0573
     18 C           0.6385    1.0660   24.5195 C.3     1  UNL1        0.0079
     19 C           3.3347    0.0894   17.7924 C.3     1  UNL1        0.0516
     20 CA          4.7731   -0.0280   18.2011 C.3     1  UNL1        0.1102
     21 C           5.8480   -0.0779   17.1561 C.2     1  UNL1        0.0684
     22 O           6.7698   -1.2590   17.0840 O.co2   1  UNL1       -0.5475
     23 OXT         6.0011    1.0535   16.1831 O.co2   1  UNL1       -0.5475
     24 N           5.1366   -0.0956   19.6548 N.pl3   1  UNL1       -0.3320
     25 H           5.5431    0.6842   20.0974 H       1  UNL1        0.1468
     26 C           4.8806   -1.3514   20.4343 C.2     1  UNL1        0.0372
     27 C           4.8344   -2.8139   20.1040 C.2     1  UNL1        0.0788
     28 BR          5.0250   -3.6264   18.8576 Br      1  UNL1       -0.0451
     29 C           4.5187   -3.1274   21.5365 C.2     1  UNL1        0.1842
     30 O           4.2627   -4.3832   22.3159 O.2     1  UNL1       -0.2904
     31 C           4.5649   -1.6649   21.8667 C.3     1  UNL1        0.0874
     32 C           4.2479   -2.3463   23.1649 C.3     1  UNL1        0.0126
     33 C           4.0574   -1.5338   24.4113 C.3     1  UNL1        0.0008
     34 C           4.1837   -0.0400   24.3596 C.3     1  UNL1        0.0000
     35 C           4.5007    0.6413   23.0614 C.3     1  UNL1        0.0008
     36 C           4.6912   -0.1711   21.8150 C.3     1  UNL1        0.0126
@<TRIPOS>UNITY_ATOM_ATTR
22 1
charge -1
@<TRIPOS>BOND
     1    16    17    1
     2    17    18    1
     3    17     7    1
     4     7     8   ar
     5     8     9   ar
     6     9    10   ar
     7    10    11   ar
     8    11    12   ar
     9    12    13   ar
    10    13    14   ar
    11    14    15   ar
    12    15     1    1
    13     1     2   ar
    14     2     3   ar
    15     3     4   ar
    16     4    19    1
    17    20    19    1
    18    20    24    1
    19    24    26    1
    20    26    27    2
    21    27    28    1
    22    27    29    1
    23    29    30    2
    24    29    31    1
    25    31    32    1
    26    32    33    1
    27    33    34    1
    28    34    35    1
    29    35    36    1
    30    20    21    1
    31    21    22   ar
    32    21    23   ar
    33     4     5   ar
    34     5     6   ar
    35    15     7   ar
    36     6     1   ar
    37    14     9   ar
    38    31    26    1
    39    36    31    1
    40    24    25    1
@<TRIPOS>MOLECULE
*****
 36 40 0 0 0
SMALL
GASTEIGER

@<TRIPOS>ATOM
      1 C           0.3556    2.6337   21.7529 C.ar    1  UNL1        0.0664
      2 C          -0.1543    1.6658   20.7267 C.ar    1  UNL1        0.0173
      3 C           0.7683    1.1413   19.6666 C.ar    1  UNL1       -0.0027
      4 C           2.2008    1.5848   19.6327 C.ar    1  UNL1       -0.0201
      5 C           2.7108    2.5527   20.6589 C.ar    1  UNL1       -0.0027
      6 C           1.7882    3.0771   21.7190 C.ar    1  UNL1        0.0173
      7 C          -1.5965    4.2340   22.6324 C.ar    1  UNL1        0.1248
      8 N          -2.2877    4.4395   23.9476 N.ar    1  UNL1       -0.2290
      9 C          -1.6855    3.4907   24.9411 C.ar    1  UNL1        0.1170
     10 C          -1.9681    3.2456   26.3937 C.ar    1  UNL1        0.0238
     11 C          -1.1872    2.2085   27.1450 C.ar    1  UNL1        0.0223
     12 C          -0.1237    1.4165   26.4438 C.ar    1  UNL1        0.1006
     13 N           0.1589    1.6617   24.9913 N.ar    1  UNL1       -0.2248
     14 C          -0.6220    2.6988   24.2399 C.ar    1  UNL1        0.1663
     15 N          -0.5670    3.1581   22.8130 N.ar    1  UNL1       -0.2789
     16 C          -2.8317    4.3939   20.3523 C.3     1  UNL1        0.0079
     17 C          -1.8842    4.9743   21.3599 C.3     1  UNL1        0.0573
     18 C          -1.2244    6.2951   21.0950 C.3     1  UNL1        0.0079
     19 C           3.1234    1.0603   18.5726 C.3     1  UNL1        0.0516
     20 CA          3.3702   -0.4146   18.4559 C.3     1  UNL1        0.1102
     21 C           4.2231   -0.9465   17.3424 C.2     1  UNL1        0.0684
     22 O           5.7020   -1.1019   17.5391 O.co2   1  UNL1       -0.5475
     23 OXT         3.5970   -1.3228   16.0324 O.co2   1  UNL1       -0.5475
     24 N           2.7643   -1.3576   19.4527 N.pl3   1  UNL1       -0.3320
     25 H           1.7868   -1.3952   19.5636 H       1  UNL1        0.1468
     26 C           3.6477   -2.2433   20.2804 C.2     1  UNL1        0.0372
     27 C           4.5124   -3.4371   20.0023 C.2     1  UNL1        0.0788
     28 BR          4.8518   -4.2396   18.7813 Br      1  UNL1       -0.0451
     29 C           4.8970   -3.4960   21.4509 C.2     1  UNL1        0.1842
     30 O           5.7804   -4.3817   22.2786 O.2     1  UNL1       -0.2904
     31 C           4.0323   -2.3022   21.7290 C.3     1  UNL1        0.0874
     32 C           4.6276   -2.6681   23.0563 C.3     1  UNL1        0.0126
     33 C           4.2882   -1.8656   24.2773 C.3     1  UNL1        0.0008
     34 C           3.3534   -0.6973   24.1711 C.3     1  UNL1        0.0000
     35 C           2.7581   -0.3315   22.8437 C.3     1  UNL1        0.0008
     36 C           3.0975   -1.1339   21.6227 C.3     1  UNL1        0.0126
@<TRIPOS>UNITY_ATOM_ATTR
22 1
charge -1
@<TRIPOS>BOND
     1    16    17    1
     2    17    18    1
     3    17     7    1
     4     7     8   ar
     5     8     9   ar
     6     9    10   ar
     7    10    11   ar
     8    11    12   ar
     9    12    13   ar
    10    13    14   ar
    11    14    15   ar
    12    15     1    1
    13     1     2   ar
    14     2     3   ar
    15     3     4   ar
    16     4    19    1
    17    20    19    1
    18    20    24    1
    19    24    26    1
    20    26    27    2
    21    27    28    1
    22    27    29    1
    23    29    30    2
    24    29    31    1
    25    31    32    1
    26    32    33    1
    27    33    34    1
    28    34    35    1
    29    35    36    1
    30    20    21    1
    31    21    22   ar
    32    21    23   ar
    33     4     5   ar
    34     5     6   ar
    35    15     7   ar
    36     6     1   ar
    37    14     9   ar
    38    31    26    1
    39    36    31    1
    40    24    25    1
@<TRIPOS>MOLECULE
*****
 36 40 0 0 0
SMALL
GASTEIGER

@<TRIPOS>ATOM
      1 C           4.6887   -0.6417   25.1059 C.ar    1  UNL1        0.0664
      2 C           3.2072   -0.6977   24.8782 C.ar    1  UNL1        0.0173
      3 C           2.6289   -0.2142   23.5814 C.ar    1  UNL1       -0.0027
      4 C           3.5321    0.3253   22.5122 C.ar    1  UNL1       -0.0201
      5 C           5.0136    0.3813   22.7399 C.ar    1  UNL1       -0.0027
      6 C           5.5920   -0.1021   24.0367 C.ar    1  UNL1        0.0173
      7 C           5.1893   -0.4154   27.7219 C.ar    1  UNL1        0.1248
      8 N           5.8989   -1.2549   28.7425 N.ar    1  UNL1       -0.2290
      9 C           6.4154   -2.4835   28.0541 C.ar    1  UNL1        0.1170
     10 C           7.1907   -3.6649   28.5572 C.ar    1  UNL1        0.0238
     11 C           7.5756   -4.7661   27.6142 C.ar    1  UNL1        0.0223
     12 C           7.1851   -4.6859   26.1682 C.ar    1  UNL1        0.1006
     13 N           6.4097   -3.5045   25.6651 N.ar    1  UNL1       -0.2248
     14 C           6.0249   -2.4033   26.6080 C.ar    1  UNL1        0.1663
     15 N           5.2671   -1.1252   26.4027 N.ar    1  UNL1       -0.2789
     16 C           3.1745    0.9448   28.6386 C.3     1  UNL1        0.0079
     17 C           4.5194    0.9025   27.9759 C.3     1  UNL1        0.0573
     18 C           5.1945    2.1780   27.5670 C.3     1  UNL1        0.0079
     19 C           2.9537    0.8088   21.2154 C.3     1  UNL1        0.0516
     20 CA          2.1217   -0.1139   20.3749 C.3     1  UNL1        0.1102
     21 C           0.8393    0.3749   19.7693 C.2     1  UNL1        0.0684
     22 O          -0.3617    0.6027   20.6385 O.co2   1  UNL1       -0.5475
     23 OXT         0.7582    0.6358   18.2944 O.co2   1  UNL1       -0.5475
     24 N           2.5720   -1.5253   20.1402 N.pl3   1  UNL1       -0.3320
     25 H           2.0315   -2.2767   20.4756 H       1  UNL1        0.1468
     26 C           3.8458   -1.7919   19.3943 C.2     1  UNL1        0.0372
     27 C           4.3674   -1.4503   18.0299 C.2     1  UNL1        0.0788
     28 BR          3.8312   -0.7008   16.8464 Br      1  UNL1       -0.0451
     29 C           5.6472   -2.1688   18.3393 C.2     1  UNL1        0.1842
     30 O           6.9210   -2.4353   17.5934 O.2     1  UNL1       -0.2904
     31 C           5.1256   -2.5103   19.7037 C.3     1  UNL1        0.0874
     32 C           6.4969   -3.1159   19.6494 C.3     1  UNL1        0.0126
     33 C           7.0331   -3.8655   20.8329 C.3     1  UNL1        0.0008
     34 C           6.1980   -4.0095   22.0707 C.3     1  UNL1        0.0000
     35 C           4.8268   -3.4039   22.1249 C.3     1  UNL1        0.0008
     36 C           4.2906   -2.6543   20.9414 C.3     1  UNL1        0.0126
@<TRIPOS>UNITY_ATOM_ATTR
22 1
charge -1
@<TRIPOS>BOND
     1    16    17    1
     2    17    18    1
     3    17     7    1
     4     7     8   ar
     5     8     9   ar
     6     9    10   ar
     7    10    11   ar
     8    11    12   ar
     9    12    13   ar
    10    13    14   ar
    11    14    15   ar
    12    15     1    1
    13     1     2   ar
    14     2     3   ar
    15     3     4   ar
    16     4    19    1
    17    20    19    1
    18    20    24    1
    19    24    26    1
    20    26    27    2
    21    27    28    1
    22    27    29    1
    23    29    30    2
    24    29    31    1
    25    31    32    1
    26    32    33    1
    27    33    34    1
    28    34    35    1
    29    35    36    1
    30    20    21    1
    31    21    22   ar
    32    21    23   ar
    33     4     5   ar
    34     5     6   ar
    35    15     7   ar
    36     6     1   ar
    37    14     9   ar
    38    31    26    1
    39    36    31    1
    40    24    25    1
@<TRIPOS>MOLECULE
*****
 36 40 0 0 0
SMALL
GASTEIGER

@<TRIPOS>ATOM
      1 C           6.4611   -3.7526   23.1283 C.ar    1  UNL1        0.0664
      2 C           7.2660   -3.4593   21.8971 C.ar    1  UNL1        0.0173
      3 C           6.5780   -3.0246   20.6371 C.ar    1  UNL1       -0.0027
      4 C           5.0850   -2.8833   20.6082 C.ar    1  UNL1       -0.0201
      5 C           4.2799   -3.1766   21.8394 C.ar    1  UNL1       -0.0027
      6 C           4.9679   -3.6113   23.0995 C.ar    1  UNL1        0.0173
      7 C           7.2256   -3.4051   25.6660 C.ar    1  UNL1        0.1248
      8 N           8.0051   -4.2149   26.6592 N.ar    1  UNL1       -0.2290
      9 C           8.4104   -5.4976   25.9955 C.ar    1  UNL1        0.1170
     10 C           9.1928   -6.6788   26.4877 C.ar    1  UNL1        0.0238
     11 C           9.4461   -7.8430   25.5765 C.ar    1  UNL1        0.0223
     12 C           8.9171   -7.8260   24.1730 C.ar    1  UNL1        0.1006
     13 N           8.1346   -6.6447   23.6807 N.ar    1  UNL1       -0.2248
     14 C           7.8813   -5.4805   24.5920 C.ar    1  UNL1        0.1663
     15 N           7.1490   -4.1873   24.3884 N.ar    1  UNL1       -0.2789
     16 C           5.3419   -1.9241   26.6700 C.3     1  UNL1        0.0079
     17 C           6.6276   -2.0509   25.9079 C.3     1  UNL1        0.0573
     18 C           7.3152   -0.8235   25.3877 C.3     1  UNL1        0.0079
     19 C           4.3970   -2.4486   19.3482 C.3     1  UNL1        0.0516
     20 CA          4.6284   -1.0698   18.8046 C.3     1  UNL1        0.1102
     21 C           5.0088   -0.8852   17.3654 C.2     1  UNL1        0.0684
     22 O           6.4416   -0.6428   16.9935 O.co2   1  UNL1       -0.5475
     23 OXT         3.9563   -0.9429   16.2982 O.co2   1  UNL1       -0.5475
     24 N           4.4794    0.1242   19.7002 N.pl3   1  UNL1       -0.3320
     25 H           5.2619    0.6844   19.9080 H       1  UNL1        0.1468
     26 C           3.1382    0.4647   20.2792 C.2     1  UNL1        0.0372
     27 C           1.7780    0.7442   19.7119 C.2     1  UNL1        0.0788
     28 BR          1.1956    0.7989   18.3307 Br      1  UNL1       -0.0451
     29 C           1.2414    0.9462   21.0980 C.2     1  UNL1        0.1842
     30 O          -0.0998    1.2867   21.6770 O.2     1  UNL1       -0.2904
     31 C           2.6017    0.6667   21.6653 C.3     1  UNL1        0.0874
     32 C           1.7313    0.9342   22.8573 C.3     1  UNL1        0.0126
     33 C           2.3137    0.8795   24.2386 C.3     1  UNL1        0.0008
     34 C           3.7664    0.5572   24.4278 C.3     1  UNL1        0.0000
     35 C           4.6367    0.2897   23.2358 C.3     1  UNL1        0.0008
     36 C           4.0543    0.3445   21.8545 C.3     1  UNL1        0.0126
@<TRIPOS>UNITY_ATOM_ATTR
22 1
charge -1
@<TRIPOS>BOND
     1    16    17    1
     2    17    18    1
     3    17     7    1
     4     7     8   ar
     5     8     9   ar
     6     9    10   ar
     7    10    11   ar
     8    11    12   ar
     9    12    13   ar
    10    13    14   ar
    11    14    15   ar
    12    15     1    1
    13     1     2   ar
    14     2     3   ar
    15     3     4   ar
    16     4    19    1
    17    20    19    1
    18    20    24    1
    19    24    26    1
    20    26    27    2
    21    27    28    1
    22    27    29    1
    23    29    30    2
    24    29    31    1
    25    31    32    1
    26    32    33    1
    27    33    34    1
    28    34    35    1
    29    35    36    1
    30    20    21    1
    31    21    22   ar
    32    21    23   ar
    33     4     5   ar
    34     5     6   ar
    35    15     7   ar
    36     6     1   ar
    37    14     9   ar
    38    31    26    1
    39    36    31    1
    40    24    25    1
@<TRIPOS>MOLECULE
*****
 36 40 0 0 0
SMALL
GASTEIGER

@<TRIPOS>ATOM
      1 C           3.0687   -0.9530   20.5001 C.ar    1  UNL1        0.0664
      2 C           1.6250   -0.7528   20.8545 C.ar    1  UNL1        0.0173
      3 C           0.7909    0.2238   20.0797 C.ar    1  UNL1       -0.0027
      4 C           1.4005    1.0003   18.9503 C.ar    1  UNL1       -0.0201
      5 C           2.8442    0.8002   18.5959 C.ar    1  UNL1       -0.0027
      6 C           3.6783   -0.1765   19.3707 C.ar    1  UNL1        0.0173
      7 C           4.4580   -3.2224   20.7547 C.ar    1  UNL1        0.1248
      8 N           5.2265   -3.8767   21.8644 N.ar    1  UNL1       -0.2290
      9 C           5.1462   -2.9884   23.0704 C.ar    1  UNL1        0.1170
     10 C           5.7123   -3.1198   24.4532 C.ar    1  UNL1        0.0238
     11 C           5.4603   -2.0479   25.4718 C.ar    1  UNL1        0.0223
     12 C           4.6422   -0.8445   25.1075 C.ar    1  UNL1        0.1006
     13 N           4.0761   -0.7131   23.7247 N.ar    1  UNL1       -0.2248
     14 C           4.3281   -1.7851   22.7062 C.ar    1  UNL1        0.1663
     15 N           3.9028   -1.9297   21.2750 N.ar    1  UNL1       -0.2789
     16 C           3.1414   -4.6997   19.0713 C.3     1  UNL1        0.0079
     17 C           4.2766   -3.7654   19.3683 C.3     1  UNL1        0.0573
     18 C           5.2305   -3.3741   18.2788 C.3     1  UNL1        0.0079
     19 C           0.5664    1.9770   18.1755 C.3     1  UNL1        0.0516
     20 CA          0.5608    3.4274   18.5578 C.3     1  UNL1        0.1102
     21 C           1.8486    4.1196   18.8932 C.2     1  UNL1        0.0684
     22 O           2.7946    4.5153   17.7984 O.co2   1  UNL1       -0.5475
     23 OXT         2.1904    4.4159   20.3233 O.co2   1  UNL1       -0.5475
     24 N          -0.7326    4.1857   18.6047 N.pl3   1  UNL1       -0.3320
     25 H          -0.8796    4.9462   17.9971 H       1  UNL1        0.1468
     26 C          -1.8019    3.7851   19.5773 C.2     1  UNL1        0.0372
     27 C          -1.8195    3.3322   21.0073 C.2     1  UNL1        0.0788
     28 BR         -0.7751    3.0924   22.0568 Br      1  UNL1       -0.0451
     29 C          -3.3142    3.2186   20.9529 C.2     1  UNL1        0.1842
     30 O          -4.3835    2.8180   21.9255 O.2     1  UNL1       -0.2904
     31 C          -3.2966    3.6715   19.5229 C.3     1  UNL1        0.0874
     32 C          -4.7449    3.4445   19.8406 C.3     1  UNL1        0.0126
     33 C          -5.7894    3.6844   18.7911 C.3     1  UNL1        0.0008
     34 C          -5.3856    4.1512   17.4239 C.3     1  UNL1        0.0000
     35 C          -3.9373    4.3782   17.1063 C.3     1  UNL1        0.0008
     36 C          -2.8928    4.1383   18.1559 C.3     1  UNL1        0.0126
@<TRIPOS>UNITY_ATOM_ATTR
22 1
charge -1
@<TRIPOS>BOND
     1    16    17    1
     2    17    18    1
     3    17     7    1
     4     7     8   ar
     5     8     9   ar
     6     9    10   ar
     7    10    11   ar
     8    11    12   ar
     9    12    13   ar
    10    13    14   ar
    11    14    15   ar
    12    15     1    1
    13     1     2   ar
    14     2     3   ar
    15     3     4   ar
    16     4    19    1
    17    20    19    1
    18    20    24    1
    19    24    26    1
    20    26    27    2
    21    27    28    1
    22    27    29    1
    23    29    30    2
    24    29    31    1
    25    31    32    1
    26    32    33    1
    27    33    34    1
    28    34    35    1
    29    35    36    1
    30    20    21    1
    31    21    22   ar
    32    21    23   ar
    33     4     5   ar
    34     5     6   ar
    35    15     7   ar
    36     6     1   ar
    37    14     9   ar
    38    31    26    1
    39    36    31    1
    40    24    25    1
@<TRIPOS>MOLECULE
*****
 36 40 0 0 0
SMALL
GASTEIGER

@<TRIPOS>ATOM
      1 C           6.4040   -4.0353   23.8017 C.ar    1  UNL1        0.0664
      2 C           5.0182   -3.6639   23.3641 C.ar    1  UNL1        0.0173
      3 C           4.7217   -3.4563   21.9084 C.ar    1  UNL1       -0.0027
      4 C           5.8111   -3.6200   20.8903 C.ar    1  UNL1       -0.0201
      5 C           7.1969   -3.9914   21.3279 C.ar    1  UNL1       -0.0027
      6 C           7.4934   -4.1990   22.7836 C.ar    1  UNL1        0.0173
      7 C           6.5201   -3.2283   26.3474 C.ar    1  UNL1        0.1248
      8 N           6.9376   -3.8600   27.6423 N.ar    1  UNL1       -0.2290
      9 C           7.3760   -5.2650   27.3526 C.ar    1  UNL1        0.1170
     10 C           7.8897   -6.3593   28.2405 C.ar    1  UNL1        0.0238
     11 C           8.2569   -7.6904   27.6544 C.ar    1  UNL1        0.0223
     12 C           8.1104   -7.9270   26.1805 C.ar    1  UNL1        0.1006
     13 N           7.5967   -6.8326   25.2926 N.ar    1  UNL1       -0.2248
     14 C           7.2295   -5.5016   25.8786 C.ar    1  UNL1        0.1663
     15 N           6.7005   -4.2429   25.2574 N.ar    1  UNL1       -0.2789
     16 C           4.6191   -1.4764   26.6062 C.3     1  UNL1        0.0079
     17 C           6.0115   -1.8280   26.1731 C.3     1  UNL1        0.0573
     18 C           6.8953   -0.7792   25.5659 C.3     1  UNL1        0.0079
     19 C           5.5146   -3.4124   19.4347 C.3     1  UNL1        0.0516
     20 CA          5.5896   -2.0361   18.8429 C.3     1  UNL1        0.1102
     21 C           6.7847   -1.6330   18.0309 C.2     1  UNL1        0.0684
     22 O           6.6350   -0.6368   16.9195 O.co2   1  UNL1       -0.5475
     23 OXT         8.1295   -2.2262   18.3304 O.co2   1  UNL1       -0.5475
     24 N           4.4695   -1.0630   19.0630 N.pl3   1  UNL1       -0.3320
     25 H           3.8173   -0.8926   18.3454 H       1  UNL1        0.1468
     26 C           4.3431   -0.3496   20.3764 C.2     1  UNL1        0.0372
     27 C           5.3023    0.0811   21.4462 C.2     1  UNL1        0.0788
     28 BR          6.7853   -0.0233   21.6456 Br      1  UNL1       -0.0451
     29 C           4.1643    0.6593   22.2339 C.2     1  UNL1        0.1842
     30 O           4.0379    1.3727   23.5473 O.2     1  UNL1       -0.2904
     31 C           3.2050    0.2286   21.1641 C.3     1  UNL1        0.0874
     32 C           2.3541    0.8987   22.2019 C.3     1  UNL1        0.0126
     33 C           0.8711    1.0030   22.0024 C.3     1  UNL1        0.0008
     34 C           0.2390    0.4374   20.7652 C.3     1  UNL1        0.0000
     35 C           1.0900   -0.2326   19.7275 C.3     1  UNL1        0.0008
     36 C           2.5730   -0.3370   19.9270 C.3     1  UNL1        0.0126
@<TRIPOS>UNITY_ATOM_ATTR
22 1
charge -1
@<TRIPOS>BOND
     1    16    17    1
     2    17    18    1
     3    17     7    1
     4     7     8   ar
     5     8     9   ar
     6     9    10   ar
     7    10    11   ar
     8    11    12   ar
     9    12    13   ar
    10    13    14   ar
    11    14    15   ar
    12    15     1    1
    13     1     2   ar
    14     2     3   ar
    15     3     4   ar
    16     4    19    1
    17    20    19    1
    18    20    24    1
    19    24    26    1
    20    26    27    2
    21    27    28    1
    22    27    29    1
    23    29    30    2
    24    29    31    1
    25    31    32    1
    26    32    33    1
    27    33    34    1
    28    34    35    1
    29    35    36    1
    30    20    21    1
    31    21    22   ar
    32    21    23   ar
    33     4     5   ar
    34     5     6   ar
    35    15     7   ar
    36     6     1   ar
    37    14     9   ar
    38    31    26    1
    39    36    31    1
    40    24    25    1
@<TRIPOS>MOLECULE
*****
 36 40 0 0 0
SMALL
GASTEIGER

@<TRIPOS>ATOM
      1 C           5.3538   -1.7125   22.0600 C.ar    1  UNL1        0.0664
      2 C           5.9141   -0.3604   22.3882 C.ar    1  UNL1        0.0173
      3 C           5.0131    0.8385   22.4151 C.ar    1  UNL1       -0.0027
      4 C           3.5517    0.6854   22.1136 C.ar    1  UNL1       -0.0201
      5 C           2.9913   -0.6667   21.7853 C.ar    1  UNL1       -0.0027
      6 C           3.8923   -1.8656   21.7585 C.ar    1  UNL1        0.0173
      7 C           6.9402   -3.4723   20.8225 C.ar    1  UNL1        0.1248
      8 N           7.7375   -4.6675   21.2535 N.ar    1  UNL1       -0.2290
      9 C           7.5449   -4.8454   22.7304 C.ar    1  UNL1        0.1170
     10 C           8.0855   -5.8553   23.6987 C.ar    1  UNL1        0.0238
     11 C           7.7097   -5.7800   25.1488 C.ar    1  UNL1        0.0223
     12 C           6.7932   -4.6947   25.6307 C.ar    1  UNL1        0.1006
     13 N           6.2526   -3.6847   24.6624 N.ar    1  UNL1       -0.2248
     14 C           6.6284   -3.7600   23.2122 C.ar    1  UNL1        0.1663
     15 N           6.2548   -2.9114   22.0331 N.ar    1  UNL1       -0.2789
     16 C           5.5825   -3.1132   18.6368 C.3     1  UNL1        0.0079
     17 C           6.8451   -2.9327   19.4262 C.3     1  UNL1        0.0573
     18 C           8.0125   -2.2125   18.8193 C.3     1  UNL1        0.0079
     19 C           2.6507    1.8844   22.1405 C.3     1  UNL1        0.0516
     20 CA          2.5694    2.7883   20.9462 C.3     1  UNL1        0.1102
     21 C           1.3976    3.7103   20.7819 C.2     1  UNL1        0.0684
     22 O           0.8353    4.4281   21.9729 O.co2   1  UNL1       -0.5475
     23 OXT         0.7882    3.9144   19.4266 O.co2   1  UNL1       -0.5475
     24 N           3.6598    2.7703   19.9164 N.pl3   1  UNL1       -0.3320
     25 H           4.3484    3.4740   19.9161 H       1  UNL1        0.1468
     26 C           3.7012    1.6801   18.8869 C.2     1  UNL1        0.0372
     27 C           2.6973    0.7248   18.3127 C.2     1  UNL1        0.0788
     28 BR          1.2362    0.4640   18.5303 Br      1  UNL1       -0.0451
     29 C           3.7596    0.1384   17.4310 C.2     1  UNL1        0.1842
     30 O           3.8010   -0.9518   16.4016 O.2     1  UNL1       -0.2904
     31 C           4.7635    1.0937   18.0052 C.3     1  UNL1        0.0874
     32 C           5.5298    0.2799   17.0048 C.3     1  UNL1        0.0126
     33 C           6.9908    0.5408   16.7873 C.3     1  UNL1        0.0008
     34 C           7.6857    1.6153   17.5701 C.3     1  UNL1        0.0000
     35 C           6.9193    2.4290   18.5704 C.3     1  UNL1        0.0008
     36 C           5.4583    2.1682   18.7879 C.3     1  UNL1        0.0126
@<TRIPOS>UNITY_ATOM_ATTR
22 1
charge -1
@<TRIPOS>BOND
     1    16    17    1
     2    17    18    1
     3    17     7    1
     4     7     8   ar
     5     8     9   ar
     6     9    10   ar
     7    10    11   ar
     8    11    12   ar
     9    12    13   ar
    10    13    14   ar
    11    14    15   ar
    12    15     1    1
    13     1     2   ar
    14     2     3   ar
    15     3     4   ar
    16     4    19    1
    17    20    19    1
    18    20    24    1
    19    24    26    1
    20    26    27    2
    21    27    28    1
    22    27    29    1
    23    29    30    2
    24    29    31    1
    25    31    32    1
    26    32    33    1
    27    33    34    1
    28    34    35    1
    29    35    36    1
    30    20    21    1
    31    21    22   ar
    32    21    23   ar
    33     4     5   ar
    34     5     6   ar
    35    15     7   ar
    36     6     1   ar
    37    14     9   ar
    38    31    26    1
    39    36    31    1
    40    24    25    1
@<TRIPOS>MOLECULE
*****
 36 40 0 0 0
SMALL
GASTEIGER

@<TRIPOS>ATOM
      1 C           2.5104    1.0313   21.8789 C.ar    1  UNL1        0.0664
      2 C           2.4217   -0.3752   22.3923 C.ar    1  UNL1        0.0173
      3 C           3.6713   -1.1793   22.5969 C.ar    1  UNL1       -0.0027
      4 C           5.0098   -0.5769   22.2880 C.ar    1  UNL1       -0.0201
      5 C           5.0987    0.8297   21.7746 C.ar    1  UNL1       -0.0027
      6 C           3.8490    1.6338   21.5700 C.ar    1  UNL1        0.0173
      7 C           0.7415    2.3386   20.3601 C.ar    1  UNL1        0.1248
      8 N          -0.5292    3.0917   20.6217 N.ar    1  UNL1       -0.2290
      9 C          -0.7951    3.0538   22.0974 C.ar    1  UNL1        0.1170
     10 C          -1.9017    3.6261   22.9328 C.ar    1  UNL1        0.0238
     11 C          -1.9020    3.4218   24.4188 C.ar    1  UNL1        0.0223
     12 C          -0.7957    2.6454   25.0694 C.ar    1  UNL1        0.1006
     13 N           0.3109    2.0732   24.2340 N.ar    1  UNL1       -0.2248
     14 C           0.3112    2.2774   22.7480 C.ar    1  UNL1        0.1663
     15 N           1.2608    1.8354   21.6743 N.ar    1  UNL1       -0.2789
     16 C           2.1434    3.2408   18.3675 C.3     1  UNL1        0.0079
     17 C           1.3805    2.1261   19.0198 C.3     1  UNL1        0.0573
     18 C           1.2567    0.7990   18.3318 C.3     1  UNL1        0.0079
     19 C           6.2594   -1.3810   22.4926 C.3     1  UNL1        0.0516
     20 CA          6.6855   -2.3809   21.4589 C.3     1  UNL1        0.1102
     21 C           6.6180   -3.8484   21.7623 C.2     1  UNL1        0.0684
     22 O           7.6308   -4.7838   21.1716 O.co2   1  UNL1       -0.5475
     23 OXT         5.5375   -4.3803   22.6566 O.co2   1  UNL1       -0.5475
     24 N           7.1791   -1.9134   20.1218 N.pl3   1  UNL1       -0.3320
     25 H           8.1440   -1.7929   19.9679 H       1  UNL1        0.1468
     26 C           6.2025   -1.6295   19.0192 C.2     1  UNL1        0.0372
     27 C           4.8947   -2.2204   18.5824 C.2     1  UNL1        0.0788
     28 BR          4.0219   -3.3398   19.0673 Br      1  UNL1       -0.0451
     29 C           4.8214   -1.2281   17.4599 C.2     1  UNL1        0.1842
     30 O           3.8448   -0.9443   16.3573 O.2     1  UNL1       -0.2904
     31 C           6.1292   -0.6373   17.8967 C.3     1  UNL1        0.0874
     32 C           5.7198    0.1682   16.6994 C.3     1  UNL1        0.0126
     33 C           6.5926    1.2876   16.2145 C.3     1  UNL1        0.0008
     34 C           7.8748    1.6016   16.9270 C.3     1  UNL1        0.0000
     35 C           8.2841    0.7960   18.1243 C.3     1  UNL1        0.0008
     36 C           7.4113   -0.3234   18.6091 C.3     1  UNL1        0.0126
@<TRIPOS>UNITY_ATOM_ATTR
22 1
charge -1
@<TRIPOS>BOND
     1    16    17    1
     2    17    18    1
     3    17     7    1
     4     7     8   ar
     5     8     9   ar
     6     9    10   ar
     7    10    11   ar
     8    11    12   ar
     9    12    13   ar
    10    13    14   ar
    11    14    15   ar
    12    15     1    1
    13     1     2   ar
    14     2     3   ar
    15     3     4   ar
    16     4    19    1
    17    20    19    1
    18    20    24    1
    19    24    26    1
    20    26    27    2
    21    27    28    1
    22    27    29    1
    23    29    30    2
    24    29    31    1
    25    31    32    1
    26    32    33    1
    27    33    34    1
    28    34    35    1
    29    35    36    1
    30    20    21    1
    31    21    22   ar
    32    21    23   ar
    33     4     5   ar
    34     5     6   ar
    35    15     7   ar
    36     6     1   ar
    37    14     9   ar
    38    31    26    1
    39    36    31    1
    40    24    25    1
@<TRIPOS>MOLECULE
*****
 36 40 0 0 0
SMALL
GASTEIGER

@<TRIPOS>ATOM
      1 C           6.5912   -3.8402   23.0511 C.ar    1  UNL1        0.0664
      2 C           7.2756   -4.0011   21.7261 C.ar    1  UNL1        0.0173
      3 C           6.4933   -3.8527   20.4549 C.ar    1  UNL1       -0.0027
      4 C           5.0265   -3.5433   20.5087 C.ar    1  UNL1       -0.0201
      5 C           4.3421   -3.3824   21.8337 C.ar    1  UNL1       -0.0027
      6 C           5.1244   -3.5309   23.1049 C.ar    1  UNL1        0.0173
      7 C           7.7241   -2.8851   25.2758 C.ar    1  UNL1        0.1248
      8 N           8.5099   -3.4812   26.4060 N.ar    1  UNL1       -0.2290
      9 C           8.6450   -4.9532   26.1509 C.ar    1  UNL1        0.1170
     10 C           9.3167   -6.0484   26.9250 C.ar    1  UNL1        0.0238
     11 C           9.2861   -7.4573   26.4112 C.ar    1  UNL1        0.0223
     12 C           8.5838   -7.7710   25.1234 C.ar    1  UNL1        0.1006
     13 N           7.9121   -6.6757   24.3494 N.ar    1  UNL1       -0.2248
     14 C           7.9427   -5.2668   24.8631 C.ar    1  UNL1        0.1663
     15 N           7.3736   -3.9887   24.3223 N.ar    1  UNL1       -0.2789
     16 C           6.1995   -0.8763   25.9003 C.3     1  UNL1        0.0079
     17 C           7.3539   -1.4393   25.1256 C.3     1  UNL1        0.0573
     18 C           8.1382   -0.5565   24.2006 C.3     1  UNL1        0.0079
     19 C           4.2442   -3.3949   19.2375 C.3     1  UNL1        0.0516
     20 CA          4.0219   -2.0335   18.6483 C.3     1  UNL1        0.1102
     21 C           4.7648   -1.6208   17.4123 C.2     1  UNL1        0.0684
     22 O           4.0345   -0.9493   16.2873 O.co2   1  UNL1       -0.5475
     23 OXT         6.2381   -1.8798   17.3013 O.co2   1  UNL1       -0.5475
     24 N           3.0567   -1.0848   19.2952 N.pl3   1  UNL1       -0.3320
     25 H           2.1130   -1.3425   19.4065 H       1  UNL1        0.1468
     26 C           3.5293    0.2564   19.7724 C.2     1  UNL1        0.0372
     27 C           4.7086    0.7473   20.5587 C.2     1  UNL1        0.0788
     28 BR          5.9038    0.1004   21.1934 Br      1  UNL1       -0.0451
     29 C           4.1976    2.1532   20.4474 C.2     1  UNL1        0.1842
     30 O           4.6702    3.4944   20.9247 O.2     1  UNL1       -0.2904
     31 C           3.0183    1.6622   19.6611 C.3     1  UNL1        0.0874
     32 C           2.8300    3.1473   19.7571 C.3     1  UNL1        0.0126
     33 C           1.6347    3.7943   19.1225 C.3     1  UNL1        0.0008
     34 C           0.6278    2.9563   18.3917 C.3     1  UNL1        0.0000
     35 C           0.8161    1.4712   18.2958 C.3     1  UNL1        0.0008
     36 C           2.0114    0.8243   18.9305 C.3     1  UNL1        0.0126
@<TRIPOS>UNITY_ATOM_ATTR
22 1
charge -1
@<TRIPOS>BOND
     1    16    17    1
     2    17    18    1
     3    17     7    1
     4     7     8   ar
     5     8     9   ar
     6     9    10   ar
     7    10    11   ar
     8    11    12   ar
     9    12    13   ar
    10    13    14   ar
    11    14    15   ar
    12    15     1    1
    13     1     2   ar
    14     2     3   ar
    15     3     4   ar
    16     4    19    1
    17    20    19    1
    18    20    24    1
    19    24    26    1
    20    26    27    2
    21    27    28    1
    22    27    29    1
    23    29    30    2
    24    29    31    1
    25    31    32    1
    26    32    33    1
    27    33    34    1
    28    34    35    1
    29    35    36    1
    30    20    21    1
    31    21    22   ar
    32    21    23   ar
    33     4     5   ar
    34     5     6   ar
    35    15     7   ar
    36     6     1   ar
    37    14     9   ar
    38    31    26    1
    39    36    31    1
    40    24    25    1
