@<TRIPOS>MOLECULE
*****
 26 28 0 0 0
SMALL
GASTEIGER

@<TRIPOS>ATOM
      1 C         -11.1587  -19.8424   21.9531 C.3     1  UNL1        0.0061
      2 C         -10.3952  -18.6863   22.5283 C.3     1  UNL1        0.0373
      3 C         -10.0859  -17.4715   23.3518 C.3     1  UNL1        0.0075
      4 C          -8.7341  -16.8277   23.2604 C.3     1  UNL1        0.0219
      5 C          -7.6917  -17.3989   22.3455 C.3     1  UNL1        0.0950
      6 N          -8.0010  -18.6138   21.5219 N.am    1  UNL1       -0.2639
      7 C          -6.9586  -19.1850   20.6069 C.2     1  UNL1        0.3042
      8 O          -7.2680  -20.3999   19.7834 O.2     1  UNL1       -0.2526
      9 N          -5.6069  -18.5412   20.5156 N.am    1  UNL1       -0.2846
     10 C          -9.3528  -19.2576   21.6133 C.3     1  UNL1        0.0989
     11 H          -5.4038  -17.7438   21.0561 H       1  UNL1        0.1513
     12 C         -11.7028  -18.5167   23.2435 C.ar    1  UNL1       -0.0212
     13 C         -11.8309  -18.9286   24.6801 C.ar    1  UNL1       -0.0042
     14 C         -13.1385  -18.7589   25.3952 C.ar    1  UNL1       -0.0003
     15 C         -14.3179  -18.1772   24.6737 C.ar    1  UNL1       -0.0000
     16 C         -14.1898  -17.7652   23.2372 C.ar    1  UNL1       -0.0003
     17 C         -12.8823  -17.9350   22.5220 C.ar    1  UNL1       -0.0042
     18 C          -4.5645  -19.1125   19.6006 C.3     1  UNL1        0.1185
     19 C          -3.1336  -18.6822   19.7327 C.ar    1  UNL1        0.0081
     20 C          -2.4633  -17.9510   18.6074 C.ar    1  UNL1       -0.0009
     21 C          -1.0325  -17.5208   18.7395 C.ar    1  UNL1        0.0112
     22 C          -0.2718  -17.8217   19.9968 C.ar    1  UNL1        0.0585
     23 CL          1.1591  -17.3915   20.1289 Cl      1  UNL1       -0.0822
     24 C          -0.9421  -18.5529   21.1220 C.ar    1  UNL1        0.0225
     25 C          -2.3730  -18.9831   20.9899 C.ar    1  UNL1        0.0561
     26 CL         -3.0432  -19.7143   22.1152 Cl      1  UNL1       -0.0825
@<TRIPOS>BOND
     1     1     2    1
     2     2    12    1
     3    12    13   ar
     4    13    14   ar
     5    14    15   ar
     6    15    16   ar
     7    16    17   ar
     8     2     3    1
     9     3     4    1
    10     4     5    1
    11     5     6    1
    12     6     7   am
    13     7     8    2
    14     7     9   am
    15     9    18    1
    16    18    19    1
    17    19    20   ar
    18    20    21   ar
    19    21    22   ar
    20    22    23    1
    21    22    24   ar
    22    24    25   ar
    23    25    26    1
    24     6    10    1
    25    10     2    1
    26    17    12   ar
    27    25    19   ar
    28     9    11    1
@<TRIPOS>MOLECULE
*****
 26 28 0 0 0
SMALL
GASTEIGER

@<TRIPOS>ATOM
      1 C          -9.5980  -18.9155   23.9720 C.3     1  UNL1        0.0061
      2 C          -9.8937  -18.9825   22.5029 C.3     1  UNL1        0.0373
      3 C         -10.6604  -18.9200   21.2152 C.3     1  UNL1        0.0075
      4 C          -9.9684  -19.2071   19.9157 C.3     1  UNL1        0.0219
      5 C          -8.5097  -19.5566   19.9040 C.3     1  UNL1        0.0950
      6 N          -7.7431  -19.6191   21.1917 N.am    1  UNL1       -0.2639
      7 C          -6.2844  -19.9686   21.1799 C.2     1  UNL1        0.3042
      8 O          -5.5178  -20.0310   22.4677 O.2     1  UNL1       -0.2526
      9 N          -5.5924  -20.2557   19.8804 N.am    1  UNL1       -0.2846
     10 C          -8.4350  -19.3320   22.4912 C.3     1  UNL1        0.0989
     11 H          -6.0956  -20.2147   19.0352 H       1  UNL1        0.1513
     12 C         -11.2497  -18.6097   23.0249 C.ar    1  UNL1       -0.0212
     13 C         -12.1829  -17.7979   22.1763 C.ar    1  UNL1       -0.0042
     14 C         -13.5388  -17.4252   22.6983 C.ar    1  UNL1       -0.0003
     15 C         -13.9615  -17.8642   24.0689 C.ar    1  UNL1       -0.0000
     16 C         -13.0284  -18.6759   24.9175 C.ar    1  UNL1       -0.0003
     17 C         -11.6725  -19.0487   24.3955 C.ar    1  UNL1       -0.0042
     18 C          -4.1337  -20.6051   19.8687 C.3     1  UNL1        0.1185
     19 C          -3.1016  -19.5174   19.9090 C.ar    1  UNL1        0.0081
     20 C          -2.7713  -18.7503   18.6630 C.ar    1  UNL1       -0.0009
     21 C          -1.7392  -17.6626   18.7033 C.ar    1  UNL1        0.0112
     22 C          -1.0374  -17.3419   19.9896 C.ar    1  UNL1        0.0585
     23 CL         -0.0053  -16.2543   20.0300 Cl      1  UNL1       -0.0822
     24 C          -1.3677  -18.1091   21.2357 C.ar    1  UNL1        0.0225
     25 C          -2.3998  -19.1967   21.1953 C.ar    1  UNL1        0.0561
     26 CL         -2.7301  -19.9638   22.4414 Cl      1  UNL1       -0.0825
@<TRIPOS>BOND
     1     1     2    1
     2     2    12    1
     3    12    13   ar
     4    13    14   ar
     5    14    15   ar
     6    15    16   ar
     7    16    17   ar
     8     2     3    1
     9     3     4    1
    10     4     5    1
    11     5     6    1
    12     6     7   am
    13     7     8    2
    14     7     9   am
    15     9    18    1
    16    18    19    1
    17    19    20   ar
    18    20    21   ar
    19    21    22   ar
    20    22    23    1
    21    22    24   ar
    22    24    25   ar
    23    25    26    1
    24     6    10    1
    25    10     2    1
    26    17    12   ar
    27    25    19   ar
    28     9    11    1
@<TRIPOS>MOLECULE
*****
 26 28 0 0 0
SMALL
GASTEIGER

@<TRIPOS>ATOM
      1 C         -10.2850  -19.7152   22.7650 C.3     1  UNL1        0.0061
      2 C          -9.8885  -18.3505   23.2449 C.3     1  UNL1        0.0373
      3 C         -10.0078  -16.9592   23.7926 C.3     1  UNL1        0.0075
      4 C          -8.7796  -16.1185   23.9787 C.3     1  UNL1        0.0219
      5 C          -7.4320  -16.6691   23.6170 C.3     1  UNL1        0.0950
      6 N          -7.3126  -18.0604   23.0694 N.am    1  UNL1       -0.2639
      7 C          -5.9650  -18.6111   22.7078 C.2     1  UNL1        0.3042
      8 O          -5.8457  -20.0024   22.1602 O.2     1  UNL1       -0.2526
      9 N          -4.7367  -17.7704   22.8939 N.am    1  UNL1       -0.2846
     10 C          -8.5408  -18.9011   22.8833 C.3     1  UNL1        0.0989
     11 H          -4.8150  -16.8572   23.2533 H       1  UNL1        0.1513
     12 C         -11.3738  -18.2738   23.4398 C.ar    1  UNL1       -0.0212
     13 C         -11.9810  -18.6877   24.7475 C.ar    1  UNL1       -0.0042
     14 C         -13.4663  -18.6110   24.9423 C.ar    1  UNL1       -0.0003
     15 C         -14.3444  -18.1205   23.8295 C.ar    1  UNL1       -0.0000
     16 C         -13.7372  -17.7066   22.5219 C.ar    1  UNL1       -0.0003
     17 C         -12.2519  -17.7833   22.3270 C.ar    1  UNL1       -0.0042
     18 C          -3.3892  -18.3211   22.5323 C.3     1  UNL1        0.1185
     19 C          -2.8747  -18.1839   21.1299 C.ar    1  UNL1        0.0081
     20 C          -3.2141  -19.2220   20.1016 C.ar    1  UNL1       -0.0009
     21 C          -2.6996  -19.0847   18.6993 C.ar    1  UNL1        0.0112
     22 C          -1.8457  -17.9096   18.3252 C.ar    1  UNL1        0.0585
     23 CL         -1.3312  -17.7724   16.9229 Cl      1  UNL1       -0.0822
     24 C          -1.5063  -16.8716   19.3536 C.ar    1  UNL1        0.0225
     25 C          -2.0208  -17.0088   20.7559 C.ar    1  UNL1        0.0561
     26 CL         -1.6814  -15.9708   21.7842 Cl      1  UNL1       -0.0825
@<TRIPOS>BOND
     1     1     2    1
     2     2    12    1
     3    12    13   ar
     4    13    14   ar
     5    14    15   ar
     6    15    16   ar
     7    16    17   ar
     8     2     3    1
     9     3     4    1
    10     4     5    1
    11     5     6    1
    12     6     7   am
    13     7     8    2
    14     7     9   am
    15     9    18    1
    16    18    19    1
    17    19    20   ar
    18    20    21   ar
    19    21    22   ar
    20    22    23    1
    21    22    24   ar
    22    24    25   ar
    23    25    26    1
    24     6    10    1
    25    10     2    1
    26    17    12   ar
    27    25    19   ar
    28     9    11    1
@<TRIPOS>MOLECULE
*****
 26 28 0 0 0
SMALL
GASTEIGER

@<TRIPOS>ATOM
      1 C           3.9730   -2.1955   19.9582 C.3     1  UNL1        0.0061
      2 C           3.6104   -1.5520   21.2638 C.3     1  UNL1        0.0373
      3 C           2.9599   -0.6213   22.2438 C.3     1  UNL1        0.0075
      4 C           3.2644   -0.7412   23.7077 C.3     1  UNL1        0.0219
      5 C           4.2195   -1.7919   24.1914 C.3     1  UNL1        0.0950
      6 N           4.8700   -2.7226   23.2114 N.am    1  UNL1       -0.2639
      7 C           5.8250   -3.7733   23.6952 C.2     1  UNL1        0.3042
      8 O           6.4755   -4.7040   22.7151 O.2     1  UNL1       -0.2526
      9 N           6.1295   -3.8932   25.1590 N.am    1  UNL1       -0.2846
     10 C           4.5655   -2.6027   21.7475 C.3     1  UNL1        0.0989
     11 H           5.7026   -3.2823   25.8023 H       1  UNL1        0.1513
     12 C           2.7813   -0.7248   20.3265 C.ar    1  UNL1       -0.0212
     13 C           1.3431   -0.4435   20.6467 C.ar    1  UNL1       -0.0042
     14 C           0.5141    0.3837   19.7095 C.ar    1  UNL1       -0.0003
     15 C           1.1232    0.9295   18.4520 C.ar    1  UNL1       -0.0000
     16 C           2.5613    0.6481   18.1318 C.ar    1  UNL1       -0.0003
     17 C           3.3904   -0.1790   19.0691 C.ar    1  UNL1       -0.0042
     18 C           7.0845   -4.9438   25.6427 C.3     1  UNL1        0.1185
     19 C           7.2005   -5.2336   27.1100 C.ar    1  UNL1        0.0081
     20 C           6.5704   -4.3091   28.1092 C.ar    1  UNL1       -0.0009
     21 C           6.6864   -4.5989   29.5763 C.ar    1  UNL1        0.0112
     22 C           7.4325   -5.8130   30.0443 C.ar    1  UNL1        0.0585
     23 CL          7.5485   -6.1028   31.5115 Cl      1  UNL1       -0.0822
     24 C           8.0626   -6.7375   29.0451 C.ar    1  UNL1        0.0225
     25 C           7.9466   -6.4477   27.5779 C.ar    1  UNL1        0.0561
     26 CL          8.5767   -7.3722   26.5788 Cl      1  UNL1       -0.0825
@<TRIPOS>BOND
     1     1     2    1
     2     2    12    1
     3    12    13   ar
     4    13    14   ar
     5    14    15   ar
     6    15    16   ar
     7    16    17   ar
     8     2     3    1
     9     3     4    1
    10     4     5    1
    11     5     6    1
    12     6     7   am
    13     7     8    2
    14     7     9   am
    15     9    18    1
    16    18    19    1
    17    19    20   ar
    18    20    21   ar
    19    21    22   ar
    20    22    23    1
    21    22    24   ar
    22    24    25   ar
    23    25    26    1
    24     6    10    1
    25    10     2    1
    26    17    12   ar
    27    25    19   ar
    28     9    11    1
@<TRIPOS>MOLECULE
*****
 26 28 0 0 0
SMALL
GASTEIGER

@<TRIPOS>ATOM
      1 C           3.2861   -1.2628   21.5486 C.3     1  UNL1        0.0061
      2 C           2.6342   -0.5964   20.3734 C.3     1  UNL1        0.0373
      3 C           2.3058   -0.2546   18.9503 C.3     1  UNL1        0.0075
      4 C           1.2725    0.7902   18.6492 C.3     1  UNL1        0.0219
      5 C           0.5675    1.4931   19.7713 C.3     1  UNL1        0.0950
      6 N           0.8959    1.1513   21.1943 N.am    1  UNL1       -0.2639
      7 C           0.1910    1.8542   22.3164 C.2     1  UNL1        0.3042
      8 O           0.5195    1.5123   23.7395 O.2     1  UNL1       -0.2526
      9 N          -0.8423    2.8990   22.0153 N.am    1  UNL1       -0.2846
     10 C           1.9293    0.1065   21.4954 C.3     1  UNL1        0.0989
     11 H          -1.0579    3.1234   21.0813 H       1  UNL1        0.1513
     12 C           3.5655   -1.5308   19.6594 C.ar    1  UNL1       -0.0212
     13 C           3.3057   -3.0080   19.6779 C.ar    1  UNL1       -0.0042
     14 C           4.2370   -3.9423   18.9640 C.ar    1  UNL1       -0.0003
     15 C           5.4282   -3.3994   18.2316 C.ar    1  UNL1       -0.0000
     16 C           5.6881   -1.9222   18.2132 C.ar    1  UNL1       -0.0003
     17 C           4.7568   -0.9879   18.9271 C.ar    1  UNL1       -0.0042
     18 C          -1.5472    3.6018   23.1374 C.3     1  UNL1        0.1185
     19 C          -3.0409    3.7381   23.1163 C.ar    1  UNL1        0.0081
     20 C          -3.7656    3.8473   21.8074 C.ar    1  UNL1       -0.0009
     21 C          -5.2592    3.9836   21.7863 C.ar    1  UNL1        0.0112
     22 C          -6.0282    4.0107   23.0739 C.ar    1  UNL1        0.0585
     23 CL         -7.5218    4.1470   23.0528 Cl      1  UNL1       -0.0822
     24 C          -5.3034    3.9015   24.3827 C.ar    1  UNL1        0.0225
     25 C          -3.8098    3.7653   24.4038 C.ar    1  UNL1        0.0561
     26 CL         -3.0851    3.6561   25.7127 Cl      1  UNL1       -0.0825
@<TRIPOS>BOND
     1     1     2    1
     2     2    12    1
     3    12    13   ar
     4    13    14   ar
     5    14    15   ar
     6    15    16   ar
     7    16    17   ar
     8     2     3    1
     9     3     4    1
    10     4     5    1
    11     5     6    1
    12     6     7   am
    13     7     8    2
    14     7     9   am
    15     9    18    1
    16    18    19    1
    17    19    20   ar
    18    20    21   ar
    19    21    22   ar
    20    22    23    1
    21    22    24   ar
    22    24    25   ar
    23    25    26    1
    24     6    10    1
    25    10     2    1
    26    17    12   ar
    27    25    19   ar
    28     9    11    1
@<TRIPOS>MOLECULE
*****
 26 28 0 0 0
SMALL
GASTEIGER

@<TRIPOS>ATOM
      1 C           8.5712   -6.9335   24.2289 C.3     1  UNL1        0.0061
      2 C           7.8459   -5.8126   24.9128 C.3     1  UNL1        0.0373
      3 C           7.2846   -4.9602   26.0120 C.3     1  UNL1        0.0075
      4 C           6.5032   -3.7242   25.6779 C.3     1  UNL1        0.0219
      5 C           6.2832   -3.3406   24.2445 C.3     1  UNL1        0.0950
      6 N           6.8446   -4.1929   23.1453 N.am    1  UNL1       -0.2639
      7 C           6.6246   -3.8093   21.7119 C.2     1  UNL1        0.3042
      8 O           7.1860   -4.6618   20.6128 O.2     1  UNL1       -0.2526
      9 N           5.8432   -2.5733   21.3778 N.am    1  UNL1       -0.2846
     10 C           7.6260   -5.4290   23.4794 C.3     1  UNL1        0.0989
     11 H           5.4748   -2.0138   22.0993 H       1  UNL1        0.1513
     12 C           8.3178   -6.5856   26.1086 C.ar    1  UNL1       -0.0212
     13 C           9.0629   -5.8868   27.2071 C.ar    1  UNL1       -0.0042
     14 C           9.5347   -6.6597   28.4028 C.ar    1  UNL1       -0.0003
     15 C           9.2615   -8.1314   28.5002 C.ar    1  UNL1       -0.0000
     16 C           8.5165   -8.8302   27.4017 C.ar    1  UNL1       -0.0003
     17 C           8.0446   -8.0572   26.2060 C.ar    1  UNL1       -0.0042
     18 C           5.6233   -2.1897   19.9445 C.3     1  UNL1        0.1185
     19 C           4.4284   -1.3668   19.5632 C.ar    1  UNL1        0.0081
     20 C           3.1110   -1.5979   20.2423 C.ar    1  UNL1       -0.0009
     21 C           1.9163   -0.7750   19.8610 C.ar    1  UNL1        0.0112
     22 C           2.0388    0.2789   18.8007 C.ar    1  UNL1        0.0585
     23 CL          0.8441    1.1018   18.4194 Cl      1  UNL1       -0.0822
     24 C           3.3563    0.5099   18.1217 C.ar    1  UNL1        0.0225
     25 C           4.5510   -0.3129   18.5030 C.ar    1  UNL1        0.0561
     26 CL          5.8685   -0.0818   17.8240 Cl      1  UNL1       -0.0825
@<TRIPOS>BOND
     1     1     2    1
     2     2    12    1
     3    12    13   ar
     4    13    14   ar
     5    14    15   ar
     6    15    16   ar
     7    16    17   ar
     8     2     3    1
     9     3     4    1
    10     4     5    1
    11     5     6    1
    12     6     7   am
    13     7     8    2
    14     7     9   am
    15     9    18    1
    16    18    19    1
    17    19    20   ar
    18    20    21   ar
    19    21    22   ar
    20    22    23    1
    21    22    24   ar
    22    24    25   ar
    23    25    26    1
    24     6    10    1
    25    10     2    1
    26    17    12   ar
    27    25    19   ar
    28     9    11    1
@<TRIPOS>MOLECULE
*****
 26 28 0 0 0
SMALL
GASTEIGER

@<TRIPOS>ATOM
      1 C           3.3408   -0.9761   18.0978 C.3     1  UNL1        0.0061
      2 C           3.0354   -0.8423   19.5604 C.3     1  UNL1        0.0373
      3 C           3.0611   -1.1106   21.0359 C.3     1  UNL1        0.0075
      4 C           2.2396   -0.2678   21.9659 C.3     1  UNL1        0.0219
      5 C           1.3924    0.8433   21.4202 C.3     1  UNL1        0.0950
      6 N           1.3668    1.1116   19.9447 N.am    1  UNL1       -0.2639
      7 C           0.5196    2.2228   19.3990 C.2     1  UNL1        0.3042
      8 O           0.4940    2.4910   17.9234 O.2     1  UNL1       -0.2526
      9 N          -0.3019    3.0656   20.3289 N.am    1  UNL1       -0.2846
     10 C           2.1882    0.2688   19.0147 C.3     1  UNL1        0.0989
     11 H          -0.2851    2.8895   21.2974 H       1  UNL1        0.1513
     12 C           3.9887   -1.9999   19.5981 C.ar    1  UNL1       -0.0212
     13 C           3.5806   -3.3264   19.0288 C.ar    1  UNL1       -0.0042
     14 C           4.5339   -4.4839   19.0665 C.ar    1  UNL1       -0.0003
     15 C           5.8951   -4.3150   19.6735 C.ar    1  UNL1       -0.0000
     16 C           6.3032   -2.9886   20.2428 C.ar    1  UNL1       -0.0003
     17 C           5.3499   -1.8310   20.2050 C.ar    1  UNL1       -0.0042
     18 C          -1.1490    4.1767   19.7832 C.3     1  UNL1        0.1185
     19 C          -2.6035    3.9417   19.5012 C.ar    1  UNL1        0.0081
     20 C          -3.5308    3.5560   20.6155 C.ar    1  UNL1       -0.0009
     21 C          -4.9851    3.3211   20.3334 C.ar    1  UNL1        0.0112
     22 C          -5.5123    3.4717   18.9372 C.ar    1  UNL1        0.0585
     23 CL         -6.9666    3.2367   18.6551 Cl      1  UNL1       -0.0822
     24 C          -4.5849    3.8573   17.8230 C.ar    1  UNL1        0.0225
     25 C          -3.1305    4.0923   18.1050 C.ar    1  UNL1        0.0561
     26 CL         -2.2033    4.4779   16.9908 Cl      1  UNL1       -0.0825
@<TRIPOS>BOND
     1     1     2    1
     2     2    12    1
     3    12    13   ar
     4    13    14   ar
     5    14    15   ar
     6    15    16   ar
     7    16    17   ar
     8     2     3    1
     9     3     4    1
    10     4     5    1
    11     5     6    1
    12     6     7   am
    13     7     8    2
    14     7     9   am
    15     9    18    1
    16    18    19    1
    17    19    20   ar
    18    20    21   ar
    19    21    22   ar
    20    22    23    1
    21    22    24   ar
    22    24    25   ar
    23    25    26    1
    24     6    10    1
    25    10     2    1
    26    17    12   ar
    27    25    19   ar
    28     9    11    1
@<TRIPOS>MOLECULE
*****
 26 28 0 0 0
SMALL
GASTEIGER

@<TRIPOS>ATOM
      1 C           3.1768   -0.1348   17.5527 C.3     1  UNL1        0.0061
      2 C           2.7960   -0.3862   18.9816 C.3     1  UNL1        0.0373
      3 C           2.7999   -0.9848   20.3570 C.3     1  UNL1        0.0075
      4 C           1.8283   -0.4965   21.3902 C.3     1  UNL1        0.0219
      5 C           0.8528    0.5904   21.0480 C.3     1  UNL1        0.0950
      6 N           0.8489    1.1890   19.6727 N.am    1  UNL1       -0.2639
      7 C          -0.1267    2.2759   19.3305 C.2     1  UNL1        0.3042
      8 O          -0.1305    2.8744   17.9551 O.2     1  UNL1       -0.2526
      9 N          -1.0982    2.7642   20.3637 N.am    1  UNL1       -0.2846
     10 C           1.8204    0.7007   18.6394 C.3     1  UNL1        0.0989
     11 H          -1.0957    2.3713   21.2665 H       1  UNL1        0.1513
     12 C           3.9037   -1.3858   18.8275 C.ar    1  UNL1       -0.0212
     13 C           5.2624   -0.9363   18.3783 C.ar    1  UNL1       -0.0042
     14 C           6.3701   -1.9359   18.2242 C.ar    1  UNL1       -0.0003
     15 C           6.1192   -3.3850   18.5193 C.ar    1  UNL1       -0.0000
     16 C           4.7605   -3.8345   18.9685 C.ar    1  UNL1       -0.0003
     17 C           3.6528   -2.8349   19.1226 C.ar    1  UNL1       -0.0042
     18 C          -2.0737    3.8510   20.0215 C.3     1  UNL1        0.1185
     19 C          -3.3880    3.9327   20.7400 C.ar    1  UNL1        0.0081
     20 C          -3.4192    4.0640   22.2339 C.ar    1  UNL1       -0.0009
     21 C          -4.7335    4.1456   22.9523 C.ar    1  UNL1        0.0112
     22 C          -6.0165    4.0960   22.1768 C.ar    1  UNL1        0.0585
     23 CL         -7.3307    4.1777   22.8951 Cl      1  UNL1       -0.0822
     24 C          -5.9852    3.9647   20.6828 C.ar    1  UNL1        0.0225
     25 C          -4.6709    3.8831   19.9645 C.ar    1  UNL1        0.0561
     26 CL         -4.6397    3.7518   18.4705 Cl      1  UNL1       -0.0825
@<TRIPOS>BOND
     1     1     2    1
     2     2    12    1
     3    12    13   ar
     4    13    14   ar
     5    14    15   ar
     6    15    16   ar
     7    16    17   ar
     8     2     3    1
     9     3     4    1
    10     4     5    1
    11     5     6    1
    12     6     7   am
    13     7     8    2
    14     7     9   am
    15     9    18    1
    16    18    19    1
    17    19    20   ar
    18    20    21   ar
    19    21    22   ar
    20    22    23    1
    21    22    24   ar
    22    24    25   ar
    23    25    26    1
    24     6    10    1
    25    10     2    1
    26    17    12   ar
    27    25    19   ar
    28     9    11    1
@<TRIPOS>MOLECULE
*****
 26 28 0 0 0
SMALL
GASTEIGER

@<TRIPOS>ATOM
      1 C          -2.0458    4.0555   23.2258 C.3     1  UNL1        0.0061
      2 C          -1.4598    3.1473   24.2660 C.3     1  UNL1        0.0373
      3 C          -1.2759    2.4352   25.5733 C.3     1  UNL1        0.0075
      4 C          -0.1379    1.4742   25.7502 C.3     1  UNL1        0.0219
      5 C           0.8163    1.2254   24.6198 C.3     1  UNL1        0.0950
      6 N           0.6324    1.9376   23.3126 N.am    1  UNL1       -0.2639
      7 C           1.5866    1.6888   22.1822 C.2     1  UNL1        0.3042
      8 O           1.4026    2.4010   20.8750 O.2     1  UNL1       -0.2526
      9 N           2.7247    0.7278   22.3591 N.am    1  UNL1       -0.2846
     10 C          -0.5056    2.8986   23.1356 C.3     1  UNL1        0.0989
     11 H           2.8454    0.2604   23.2171 H       1  UNL1        0.1513
     12 C          -2.6175    3.7116   25.0351 C.ar    1  UNL1       -0.0212
     13 C          -2.3711    4.5419   26.2597 C.ar    1  UNL1       -0.0042
     14 C          -3.5288    5.1061   27.0288 C.ar    1  UNL1       -0.0003
     15 C          -4.9329    4.8399   26.5732 C.ar    1  UNL1       -0.0000
     16 C          -5.1794    4.0095   25.3486 C.ar    1  UNL1       -0.0003
     17 C          -4.0217    3.4453   24.5796 C.ar    1  UNL1       -0.0042
     18 C           3.6788    0.4791   21.2288 C.3     1  UNL1        0.1185
     19 C           3.8468   -0.9070   20.6804 C.ar    1  UNL1        0.0081
     20 C           4.1531   -2.0475   21.6054 C.ar    1  UNL1       -0.0009
     21 C           4.3211   -3.4335   21.0570 C.ar    1  UNL1        0.0112
     22 C           4.1828   -3.6791   19.5838 C.ar    1  UNL1        0.0585
     23 CL          4.3508   -5.0651   19.0354 Cl      1  UNL1       -0.0822
     24 C           3.8765   -2.5385   18.6588 C.ar    1  UNL1        0.0225
     25 C           3.7085   -1.1525   19.2072 C.ar    1  UNL1        0.0561
     26 CL          3.4021   -0.0121   18.2822 Cl      1  UNL1       -0.0825
@<TRIPOS>BOND
     1     1     2    1
     2     2    12    1
     3    12    13   ar
     4    13    14   ar
     5    14    15   ar
     6    15    16   ar
     7    16    17   ar
     8     2     3    1
     9     3     4    1
    10     4     5    1
    11     5     6    1
    12     6     7   am
    13     7     8    2
    14     7     9   am
    15     9    18    1
    16    18    19    1
    17    19    20   ar
    18    20    21   ar
    19    21    22   ar
    20    22    23    1
    21    22    24   ar
    22    24    25   ar
    23    25    26    1
    24     6    10    1
    25    10     2    1
    26    17    12   ar
    27    25    19   ar
    28     9    11    1
