@<TRIPOS>MOLECULE
*****
 26 28 0 0 0
SMALL
GASTEIGER

@<TRIPOS>ATOM
      1 C          -5.6796  -16.3542   23.6077 C.ar    1  UNL1        0.1362
      2 C          -7.1352  -16.2340   23.2658 C.ar    1  UNL1        0.0397
      3 C          -7.8080  -17.3072   22.4622 C.ar    1  UNL1        0.0384
      4 C          -7.0252  -18.5005   22.0005 C.ar    1  UNL1        0.1386
      5 C          -5.5696  -18.6206   22.3423 C.ar    1  UNL1        0.0370
      6 C          -4.8968  -17.5475   23.1459 C.ar    1  UNL1        0.0309
      7 C          -9.2636  -17.1870   22.1204 C.ar    1  UNL1        0.0206
      8 C          -9.6838  -16.4745   20.8691 C.ar    1  UNL1        0.0784
      9 N         -11.1394  -16.3543   20.5273 N.ar    1  UNL1       -0.2921
     10 C         -11.5596  -15.6417   19.2760 C.3     1  UNL1        0.1336
     11 C         -12.1747  -16.9466   21.4368 C.ar    1  UNL1        0.2624
     12 O         -13.6303  -16.8264   21.0949 O.2     1  UNL1       -0.2669
     13 C         -11.7546  -17.6592   22.6881 C.ar    1  UNL1        0.0753
     14 C         -12.7899  -18.2515   23.5975 C.ar    1  UNL1        0.1036
     15 N         -12.3697  -18.9641   24.8488 N.ar    1  UNL1       -0.2422
     16 C         -10.9141  -19.0843   25.1906 C.ar    1  UNL1        0.0989
     17 C          -9.8788  -18.4919   24.2812 C.ar    1  UNL1        0.0209
     18 C         -10.2990  -17.7794   23.0299 C.ar    1  UNL1        0.0092
     19 C          -5.3211  -15.1280   25.8699 C.3     1  UNL1        0.2525
     20 O          -5.0069  -15.2811   24.4112 O.3     1  UNL1       -0.4717
     21 O          -7.6980  -19.5736   21.1969 O.3     1  UNL1       -0.4714
     22 C          -7.6270  -19.5448   19.6989 C.3     1  UNL1        0.2525
     23 C          -3.4413  -17.6677   23.4877 C.3     1  UNL1        0.1023
     24 N          -2.4054  -17.5510   22.4091 N.3     1  UNL1       -0.2664
     25 C          -1.7169  -18.7802   21.8943 C.3     1  UNL1        0.0899
     26 C          -2.0581  -16.2050   21.8453 C.3     1  UNL1        0.0899
@<TRIPOS>BOND
     1    19    20    1
     2    20     1    1
     3     1     2   ar
     4     2     3   ar
     5     3     7    1
     6     7     8   ar
     7     8     9   ar
     8     9    10    1
     9     9    11   ar
    10    11    12    2
    11    11    13   ar
    12    13    14   ar
    13    14    15   ar
    14    15    16   ar
    15    16    17   ar
    16    17    18   ar
    17     3     4   ar
    18     4    21    1
    19    21    22    1
    20     4     5   ar
    21     5     6   ar
    22     6    23    1
    23    23    24    1
    24    24    25    1
    25    24    26    1
    26     6     1   ar
    27    18     7   ar
    28    18    13   ar
@<TRIPOS>MOLECULE
*****
 26 28 0 0 0
SMALL
GASTEIGER

@<TRIPOS>ATOM
      1 C          -5.3166  -18.9675   22.0943 C.ar    1  UNL1        0.1362
      2 C          -6.7169  -18.4757   22.3124 C.ar    1  UNL1        0.0397
      3 C          -7.7412  -18.6230   21.2265 C.ar    1  UNL1        0.0384
      4 C          -7.3653  -19.2620   19.9226 C.ar    1  UNL1        0.1386
      5 C          -5.9651  -19.7537   19.7044 C.ar    1  UNL1        0.0370
      6 C          -4.9408  -19.6065   20.7902 C.ar    1  UNL1        0.0309
      7 C          -9.1414  -18.1313   21.4447 C.ar    1  UNL1        0.0206
      8 C          -9.7751  -17.2060   20.4486 C.ar    1  UNL1        0.0784
      9 N         -11.1753  -16.7143   20.6667 N.ar    1  UNL1       -0.2921
     10 C         -11.8090  -15.7890   19.6706 C.3     1  UNL1        0.1336
     11 C         -11.9419  -17.1479   21.8810 C.ar    1  UNL1        0.2624
     12 O         -13.3421  -16.6562   22.0991 O.2     1  UNL1       -0.2669
     13 C         -11.3082  -18.0732   22.8771 C.ar    1  UNL1        0.0753
     14 C         -12.0747  -18.5067   24.0914 C.ar    1  UNL1        0.1036
     15 N         -11.4410  -19.4320   25.0875 N.ar    1  UNL1       -0.2422
     16 C         -10.0408  -19.9237   24.8693 C.ar    1  UNL1        0.0989
     17 C          -9.2743  -19.4902   23.6551 C.ar    1  UNL1        0.0209
     18 C          -9.9080  -18.5649   22.6590 C.ar    1  UNL1        0.0092
     19 C          -3.9333  -17.4570   23.6925 C.3     1  UNL1        0.2525
     20 O          -4.2923  -18.8202   23.1801 O.3     1  UNL1       -0.4717
     21 O          -8.3896  -19.4093   18.8367 O.3     1  UNL1       -0.4714
     22 C          -8.8328  -20.7754   18.4040 C.3     1  UNL1        0.2525
     23 C          -3.5405  -20.0982   20.5721 C.3     1  UNL1        0.1023
     24 N          -2.4420  -19.1231   20.2681 N.3     1  UNL1       -0.2664
     25 C          -2.3772  -18.4616   18.9234 C.3     1  UNL1        0.0899
     26 C          -1.4083  -18.8095   21.3089 C.3     1  UNL1        0.0899
@<TRIPOS>BOND
     1    19    20    1
     2    20     1    1
     3     1     2   ar
     4     2     3   ar
     5     3     7    1
     6     7     8   ar
     7     8     9   ar
     8     9    10    1
     9     9    11   ar
    10    11    12    2
    11    11    13   ar
    12    13    14   ar
    13    14    15   ar
    14    15    16   ar
    15    16    17   ar
    16    17    18   ar
    17     3     4   ar
    18     4    21    1
    19    21    22    1
    20     4     5   ar
    21     5     6   ar
    22     6    23    1
    23    23    24    1
    24    24    25    1
    25    24    26    1
    26     6     1   ar
    27    18     7   ar
    28    18    13   ar
@<TRIPOS>MOLECULE
*****
 26 28 0 0 0
SMALL
GASTEIGER

@<TRIPOS>ATOM
      1 C          -3.7972  -19.1562   21.5893 C.ar    1  UNL1        0.1362
      2 C          -5.0607  -18.9739   22.3769 C.ar    1  UNL1        0.0397
      3 C          -6.3804  -18.8908   21.6687 C.ar    1  UNL1        0.0384
      4 C          -6.4366  -18.9900   20.1731 C.ar    1  UNL1        0.1386
      5 C          -5.1731  -19.1723   19.3855 C.ar    1  UNL1        0.0370
      6 C          -3.8534  -19.2554   20.0936 C.ar    1  UNL1        0.0309
      7 C          -7.6440  -18.7084   22.4562 C.ar    1  UNL1        0.0206
      8 C          -8.6984  -19.7751   22.4399 C.ar    1  UNL1        0.0784
      9 N          -9.9620  -19.5928   23.2274 N.ar    1  UNL1       -0.2921
     10 C         -11.0165  -20.6595   23.2111 C.3     1  UNL1        0.1336
     11 C         -10.1711  -18.3438   24.0313 C.ar    1  UNL1        0.2624
     12 O         -11.4346  -18.1615   24.8189 O.2     1  UNL1       -0.2669
     13 C          -9.1166  -17.2771   24.0477 C.ar    1  UNL1        0.0753
     14 C          -9.3257  -16.0281   24.8516 C.ar    1  UNL1        0.1036
     15 N          -8.2712  -14.9614   24.8680 N.ar    1  UNL1       -0.2422
     16 C          -7.0077  -15.1437   24.0804 C.ar    1  UNL1        0.0989
     17 C          -6.7986  -16.3927   23.2765 C.ar    1  UNL1        0.0209
     18 C          -7.8530  -17.4594   23.2602 C.ar    1  UNL1        0.0092
     19 C          -1.8920  -18.0161   22.9385 C.3     1  UNL1        0.2525
     20 O          -2.4775  -19.2393   22.2974 O.3     1  UNL1       -0.4717
     21 O          -7.7564  -18.9069   19.4649 O.3     1  UNL1       -0.4714
     22 C          -8.3866  -20.1476   18.9052 C.3     1  UNL1        0.2525
     23 C          -2.5898  -19.4377   19.3061 C.3     1  UNL1        0.1023
     24 N          -1.7394  -18.2495   18.9670 N.3     1  UNL1       -0.2664
     25 C          -2.2417  -17.2192   17.9995 C.3     1  UNL1        0.0899
     26 C          -0.3865  -18.0917   19.5954 C.3     1  UNL1        0.0899
@<TRIPOS>BOND
     1    19    20    1
     2    20     1    1
     3     1     2   ar
     4     2     3   ar
     5     3     7    1
     6     7     8   ar
     7     8     9   ar
     8     9    10    1
     9     9    11   ar
    10    11    12    2
    11    11    13   ar
    12    13    14   ar
    13    14    15   ar
    14    15    16   ar
    15    16    17   ar
    16    17    18   ar
    17     3     4   ar
    18     4    21    1
    19    21    22    1
    20     4     5   ar
    21     5     6   ar
    22     6    23    1
    23    23    24    1
    24    24    25    1
    25    24    26    1
    26     6     1   ar
    27    18     7   ar
    28    18    13   ar
@<TRIPOS>MOLECULE
*****
 26 28 0 0 0
SMALL
GASTEIGER

@<TRIPOS>ATOM
      1 C          -6.0355  -16.2067   23.8837 C.ar    1  UNL1        0.1362
      2 C          -7.5317  -16.3123   23.8659 C.ar    1  UNL1        0.0397
      3 C          -8.1961  -17.4254   23.1111 C.ar    1  UNL1        0.0384
      4 C          -7.3644  -18.4329   22.3742 C.ar    1  UNL1        0.1386
      5 C          -5.8682  -18.3273   22.3920 C.ar    1  UNL1        0.0370
      6 C          -5.2038  -17.2143   23.1467 C.ar    1  UNL1        0.0309
      7 C          -9.6923  -17.5310   23.0933 C.ar    1  UNL1        0.0206
      8 C         -10.4090  -18.2195   24.2168 C.ar    1  UNL1        0.0784
      9 N         -11.9052  -18.3251   24.1990 N.ar    1  UNL1       -0.2921
     10 C         -12.6219  -19.0136   25.3226 C.3     1  UNL1        0.1336
     11 C         -12.6846  -17.7421   23.0577 C.ar    1  UNL1        0.2624
     12 O         -14.1808  -17.8477   23.0400 O.2     1  UNL1       -0.2669
     13 C         -11.9680  -17.0536   21.9342 C.ar    1  UNL1        0.0753
     14 C         -12.7474  -16.4707   20.7929 C.ar    1  UNL1        0.1036
     15 N         -12.0307  -15.7822   19.6694 N.ar    1  UNL1       -0.2422
     16 C         -10.5346  -15.6766   19.6872 C.ar    1  UNL1        0.0989
     17 C          -9.7551  -16.2595   20.8285 C.ar    1  UNL1        0.0209
     18 C         -10.4718  -16.9480   21.9520 C.ar    1  UNL1        0.0092
     19 C          -5.5094  -15.0117   26.1297 C.3     1  UNL1        0.2525
     20 O          -5.3711  -15.0937   24.6384 O.3     1  UNL1       -0.4717
     21 O          -8.0288  -19.5460   21.6194 O.3     1  UNL1       -0.4714
     22 C          -8.0458  -19.5296   20.1197 C.3     1  UNL1        0.2525
     23 C          -3.7076  -17.1087   23.1645 C.3     1  UNL1        0.1023
     24 N          -2.9308  -17.2470   21.8888 N.3     1  UNL1       -0.2664
     25 C          -1.9741  -16.1692   21.4728 C.3     1  UNL1        0.0899
     26 C          -3.1106  -18.4630   21.0292 C.3     1  UNL1        0.0899
@<TRIPOS>BOND
     1    19    20    1
     2    20     1    1
     3     1     2   ar
     4     2     3   ar
     5     3     7    1
     6     7     8   ar
     7     8     9   ar
     8     9    10    1
     9     9    11   ar
    10    11    12    2
    11    11    13   ar
    12    13    14   ar
    13    14    15   ar
    14    15    16   ar
    15    16    17   ar
    16    17    18   ar
    17     3     4   ar
    18     4    21    1
    19    21    22    1
    20     4     5   ar
    21     5     6   ar
    22     6    23    1
    23    23    24    1
    24    24    25    1
    25    24    26    1
    26     6     1   ar
    27    18     7   ar
    28    18    13   ar
@<TRIPOS>MOLECULE
*****
 26 28 0 0 0
SMALL
GASTEIGER

@<TRIPOS>ATOM
      1 C           6.9146   -0.5270   34.7062 C.ar    1  UNL1        0.1362
      2 C           7.1868   -0.9792   33.3022 C.ar    1  UNL1        0.0397
      3 C           6.0481   -1.3575   32.4020 C.ar    1  UNL1        0.0384
      4 C           4.6372   -1.2837   32.9059 C.ar    1  UNL1        0.1386
      5 C           4.3650   -0.8315   34.3099 C.ar    1  UNL1        0.0370
      6 C           5.5036   -0.4532   35.2101 C.ar    1  UNL1        0.0309
      7 C           6.3203   -1.8097   30.9979 C.ar    1  UNL1        0.0206
      8 C           6.2941   -0.8186   29.8724 C.ar    1  UNL1        0.0784
      9 N           6.5664   -1.2707   28.4683 N.ar    1  UNL1       -0.2921
     10 C           6.5402   -0.2795   27.3428 C.3     1  UNL1        0.1336
     11 C           6.8648   -2.7141   28.1898 C.ar    1  UNL1        0.2624
     12 O           7.1370   -3.1663   26.7857 O.2     1  UNL1       -0.2669
     13 C           6.8910   -3.7054   29.3153 C.ar    1  UNL1        0.0753
     14 C           7.1894   -5.1487   29.0368 C.ar    1  UNL1        0.1036
     15 N           7.2155   -6.1399   30.1623 N.ar    1  UNL1       -0.2422
     16 C           6.9433   -5.6877   31.5664 C.ar    1  UNL1        0.0989
     17 C           6.6449   -4.2443   31.8449 C.ar    1  UNL1        0.0209
     18 C           6.6187   -3.2532   30.7194 C.ar    1  UNL1        0.0092
     19 C           9.4562   -0.5361   35.2442 C.3     1  UNL1        0.2525
     20 O           8.0532   -0.1487   35.6064 O.3     1  UNL1       -0.4717
     21 O           3.4985   -1.6620   32.0057 O.3     1  UNL1       -0.4714
     22 C           2.8681   -0.6292   31.1192 C.3     1  UNL1        0.2525
     23 C           5.2313   -0.0010   36.6142 C.3     1  UNL1        0.1023
     24 N           4.5189    1.2960   36.8596 N.3     1  UNL1       -0.2664
     25 C           3.3078    1.3307   37.7440 C.3     1  UNL1        0.0899
     26 C           5.0174    2.5582   36.2206 C.3     1  UNL1        0.0899
@<TRIPOS>BOND
     1    19    20    1
     2    20     1    1
     3     1     2   ar
     4     2     3   ar
     5     3     7    1
     6     7     8   ar
     7     8     9   ar
     8     9    10    1
     9     9    11   ar
    10    11    12    2
    11    11    13   ar
    12    13    14   ar
    13    14    15   ar
    14    15    16   ar
    15    16    17   ar
    16    17    18   ar
    17     3     4   ar
    18     4    21    1
    19    21    22    1
    20     4     5   ar
    21     5     6   ar
    22     6    23    1
    23    23    24    1
    24    24    25    1
    25    24    26    1
    26     6     1   ar
    27    18     7   ar
    28    18    13   ar
@<TRIPOS>MOLECULE
*****
 26 28 0 0 0
SMALL
GASTEIGER

@<TRIPOS>ATOM
      1 C          -4.0617    3.7728   25.4761 C.ar    1  UNL1        0.1362
      2 C          -3.0396    3.8241   26.5728 C.ar    1  UNL1        0.0397
      3 C          -1.5922    3.5839   26.2608 C.ar    1  UNL1        0.0384
      4 C          -1.1669    3.2925   24.8523 C.ar    1  UNL1        0.1386
      5 C          -2.1890    3.2412   23.7556 C.ar    1  UNL1        0.0370
      6 C          -3.6363    3.4814   24.0675 C.ar    1  UNL1        0.0309
      7 C          -0.5701    3.6352   27.3575 C.ar    1  UNL1        0.0206
      8 C           0.1096    4.9305   27.6893 C.ar    1  UNL1        0.0784
      9 N           1.1317    4.9818   28.7860 N.ar    1  UNL1       -0.2921
     10 C           1.8113    6.2772   29.1178 C.3     1  UNL1        0.1336
     11 C           1.4741    3.7377   29.5509 C.ar    1  UNL1        0.2624
     12 O           2.4962    3.7890   30.6476 O.2     1  UNL1       -0.2669
     13 C           0.7944    2.4423   29.2191 C.ar    1  UNL1        0.0753
     14 C           1.1368    1.1983   29.9839 C.ar    1  UNL1        0.1036
     15 N           0.4571   -0.0970   29.6521 N.ar    1  UNL1       -0.2422
     16 C          -0.5649   -0.1483   28.5554 C.ar    1  UNL1        0.0989
     17 C          -0.9074    1.0957   27.7906 C.ar    1  UNL1        0.0209
     18 C          -0.2277    2.3911   28.1224 C.ar    1  UNL1        0.0092
     19 C          -5.9987    5.4063   26.0499 C.3     1  UNL1        0.2525
     20 O          -5.5091    4.0129   25.7880 O.3     1  UNL1       -0.4717
     21 O           0.2806    3.0524   24.5403 O.3     1  UNL1       -0.4714
     22 C           0.8010    1.6500   24.4280 C.3     1  UNL1        0.2525
     23 C          -4.6584    3.4301   22.9708 C.3     1  UNL1        0.1023
     24 N          -5.3815    4.6786   22.5605 N.3     1  UNL1       -0.2664
     25 C          -4.6207    5.9567   22.3670 C.3     1  UNL1        0.0899
     26 C          -6.8655    4.6489   22.3436 C.3     1  UNL1        0.0899
@<TRIPOS>BOND
     1    19    20    1
     2    20     1    1
     3     1     2   ar
     4     2     3   ar
     5     3     7    1
     6     7     8   ar
     7     8     9   ar
     8     9    10    1
     9     9    11   ar
    10    11    12    2
    11    11    13   ar
    12    13    14   ar
    13    14    15   ar
    14    15    16   ar
    15    16    17   ar
    16    17    18   ar
    17     3     4   ar
    18     4    21    1
    19    21    22    1
    20     4     5   ar
    21     5     6   ar
    22     6    23    1
    23    23    24    1
    24    24    25    1
    25    24    26    1
    26     6     1   ar
    27    18     7   ar
    28    18    13   ar
@<TRIPOS>MOLECULE
*****
 26 28 0 0 0
SMALL
GASTEIGER

@<TRIPOS>ATOM
      1 C          -0.2394    2.1519   20.2504 C.ar    1  UNL1        0.1362
      2 C           0.5124    0.9251   20.6740 C.ar    1  UNL1        0.0397
      3 C           1.8476    0.6158   20.0642 C.ar    1  UNL1        0.0384
      4 C           2.4308    1.5333   19.0309 C.ar    1  UNL1        0.1386
      5 C           1.6789    2.7602   18.6072 C.ar    1  UNL1        0.0370
      6 C           0.3438    3.0695   19.2169 C.ar    1  UNL1        0.0309
      7 C           2.5995   -0.6111   20.4879 C.ar    1  UNL1        0.0206
      8 C           2.7916   -1.7434   19.5231 C.ar    1  UNL1        0.0784
      9 N           3.5435   -2.9703   19.9467 N.ar    1  UNL1       -0.2921
     10 C           3.7357   -4.1027   18.9819 C.3     1  UNL1        0.1336
     11 C           4.1032   -3.0648   21.3352 C.ar    1  UNL1        0.2624
     12 O           4.8551   -4.2917   21.7588 O.2     1  UNL1       -0.2669
     13 C           3.9111   -1.9324   22.3000 C.ar    1  UNL1        0.0753
     14 C           4.4708   -2.0270   23.6884 C.ar    1  UNL1        0.1036
     15 N           4.2786   -0.8946   24.6532 N.ar    1  UNL1       -0.2422
     16 C           3.5267    0.3322   24.2296 C.ar    1  UNL1        0.0989
     17 C           2.9670    0.4268   22.8411 C.ar    1  UNL1        0.0209
     18 C           3.1592   -0.7056   21.8764 C.ar    1  UNL1        0.0092
     19 C          -1.6537    3.2657   22.1236 C.3     1  UNL1        0.2525
     20 O          -1.5745    2.4612   20.8601 O.3     1  UNL1       -0.4717
     21 O           3.7660    1.2241   18.4211 O.3     1  UNL1       -0.4714
     22 C           5.0176    1.7758   19.0367 C.3     1  UNL1        0.2525
     23 C          -0.4080    4.2964   18.7933 C.3     1  UNL1        0.1023
     24 N          -1.5594    4.1783   17.8392 N.3     1  UNL1       -0.2664
     25 C          -2.9674    4.2763   18.3471 C.3     1  UNL1        0.0899
     26 C          -1.3029    3.9622   16.3772 C.3     1  UNL1        0.0899
@<TRIPOS>BOND
     1    19    20    1
     2    20     1    1
     3     1     2   ar
     4     2     3   ar
     5     3     7    1
     6     7     8   ar
     7     8     9   ar
     8     9    10    1
     9     9    11   ar
    10    11    12    2
    11    11    13   ar
    12    13    14   ar
    13    14    15   ar
    14    15    16   ar
    15    16    17   ar
    16    17    18   ar
    17     3     4   ar
    18     4    21    1
    19    21    22    1
    20     4     5   ar
    21     5     6   ar
    22     6    23    1
    23    23    24    1
    24    24    25    1
    25    24    26    1
    26     6     1   ar
    27    18     7   ar
    28    18    13   ar
@<TRIPOS>MOLECULE
*****
 26 28 0 0 0
SMALL
GASTEIGER

@<TRIPOS>ATOM
      1 C           5.0596   -3.4413   20.4852 C.ar    1  UNL1        0.1362
      2 C           5.2084   -3.7046   21.9544 C.ar    1  UNL1        0.0397
      3 C           6.5384   -3.5105   22.6202 C.ar    1  UNL1        0.0384
      4 C           7.7197   -3.0530   21.8169 C.ar    1  UNL1        0.1386
      5 C           7.5709   -2.7897   20.3477 C.ar    1  UNL1        0.0370
      6 C           6.2409   -2.9838   19.6818 C.ar    1  UNL1        0.0309
      7 C           6.6872   -3.7739   24.0894 C.ar    1  UNL1        0.0206
      8 C           6.1803   -2.7738   25.0857 C.ar    1  UNL1        0.0784
      9 N           6.3291   -3.0371   26.5549 N.ar    1  UNL1       -0.2921
     10 C           5.8221   -2.0369   27.5513 C.3     1  UNL1        0.1336
     11 C           6.9847   -4.3007   27.0278 C.ar    1  UNL1        0.2624
     12 O           7.1335   -4.5640   28.4970 O.2     1  UNL1       -0.2669
     13 C           7.4917   -5.3009   26.0314 C.ar    1  UNL1        0.0753
     14 C           8.1473   -6.5644   26.5042 C.ar    1  UNL1        0.1036
     15 N           8.6542   -7.5645   25.5079 N.ar    1  UNL1       -0.2422
     16 C           8.5054   -7.3011   24.0387 C.ar    1  UNL1        0.0989
     17 C           7.8498   -6.0376   23.5659 C.ar    1  UNL1        0.0209
     18 C           7.3429   -5.0375   24.5622 C.ar    1  UNL1        0.0092
     19 C           3.3364   -4.9905   19.3104 C.3     1  UNL1        0.2525
     20 O           3.7296   -3.6354   19.8193 O.3     1  UNL1       -0.4717
     21 O           9.0497   -2.8589   22.4828 O.3     1  UNL1       -0.4714
     22 C           9.4540   -1.4985   22.9681 C.3     1  UNL1        0.2525
     23 C           6.0922   -2.7204   18.2127 C.3     1  UNL1        0.1023
     24 N           5.6396   -1.3727   17.7344 N.3     1  UNL1       -0.2664
     25 C           4.1962   -1.1423   17.3973 C.3     1  UNL1        0.0899
     26 C           6.6304   -0.2553   17.5931 C.3     1  UNL1        0.0899
@<TRIPOS>BOND
     1    19    20    1
     2    20     1    1
     3     1     2   ar
     4     2     3   ar
     5     3     7    1
     6     7     8   ar
     7     8     9   ar
     8     9    10    1
     9     9    11   ar
    10    11    12    2
    11    11    13   ar
    12    13    14   ar
    13    14    15   ar
    14    15    16   ar
    15    16    17   ar
    16    17    18   ar
    17     3     4   ar
    18     4    21    1
    19    21    22    1
    20     4     5   ar
    21     5     6   ar
    22     6    23    1
    23    23    24    1
    24    24    25    1
    25    24    26    1
    26     6     1   ar
    27    18     7   ar
    28    18    13   ar
@<TRIPOS>MOLECULE
*****
 26 28 0 0 0
SMALL
GASTEIGER

@<TRIPOS>ATOM
      1 C           3.5013    1.8336   38.2219 C.ar    1  UNL1        0.1362
      2 C           2.7815    1.8126   36.9060 C.ar    1  UNL1        0.0397
      3 C           3.3454    2.5549   35.7308 C.ar    1  UNL1        0.0384
      4 C           4.6289    3.3182   35.8715 C.ar    1  UNL1        0.1386
      5 C           5.3487    3.3392   37.1874 C.ar    1  UNL1        0.0370
      6 C           4.7849    2.5969   38.3625 C.ar    1  UNL1        0.0309
      7 C           2.6257    2.5339   34.4149 C.ar    1  UNL1        0.0206
      8 C           1.6301    3.6071   34.0874 C.ar    1  UNL1        0.0784
      9 N           0.9104    3.5861   32.7715 N.ar    1  UNL1       -0.2921
     10 C          -0.0852    4.6593   32.4440 C.3     1  UNL1        0.1336
     11 C           1.1862    2.4920   31.7831 C.ar    1  UNL1        0.2624
     12 O           0.4664    2.4710   30.4673 O.2     1  UNL1       -0.2669
     13 C           2.1817    1.4188   32.1107 C.ar    1  UNL1        0.0753
     14 C           2.4575    0.3247   31.1223 C.ar    1  UNL1        0.1036
     15 N           3.4530   -0.7484   31.4499 N.ar    1  UNL1       -0.2422
     16 C           4.1728   -0.7274   32.7657 C.ar    1  UNL1        0.0989
     17 C           3.8970    0.3667   33.7541 C.ar    1  UNL1        0.0209
     18 C           2.9015    1.4398   33.4265 C.ar    1  UNL1        0.0092
     19 C           1.5651    0.4912   39.3168 C.3     1  UNL1        0.2525
     20 O           2.9375    1.0912   39.3970 O.3     1  UNL1       -0.4717
     21 O           5.1928    4.0606   34.6963 O.3     1  UNL1       -0.4714
     22 C           6.2305    3.4132   33.8279 C.3     1  UNL1        0.2525
     23 C           5.5046    2.6179   39.6784 C.3     1  UNL1        0.1023
     24 N           5.2027    3.6916   40.6814 N.3     1  UNL1       -0.2664
     25 C           6.0728    3.8526   41.8926 C.3     1  UNL1        0.0899
     26 C           4.0306    4.6043   40.4732 C.3     1  UNL1        0.0899
@<TRIPOS>BOND
     1    19    20    1
     2    20     1    1
     3     1     2   ar
     4     2     3   ar
     5     3     7    1
     6     7     8   ar
     7     8     9   ar
     8     9    10    1
     9     9    11   ar
    10    11    12    2
    11    11    13   ar
    12    13    14   ar
    13    14    15   ar
    14    15    16   ar
    15    16    17   ar
    16    17    18   ar
    17     3     4   ar
    18     4    21    1
    19    21    22    1
    20     4     5   ar
    21     5     6   ar
    22     6    23    1
    23    23    24    1
    24    24    25    1
    25    24    26    1
    26     6     1   ar
    27    18     7   ar
    28    18    13   ar
