@<TRIPOS>MOLECULE
*****
 26 30 0 0 0
SMALL
GASTEIGER

@<TRIPOS>ATOM
      1 C          -8.9466  -17.2499   22.4186 C.ar    1  UNL1        0.1510
      2 N          -7.9351  -18.1016   21.7103 N.ar    1  UNL1       -0.2278
      3 C          -6.5295  -18.1831   22.2274 C.ar    1  UNL1        0.1001
      4 C          -6.1352  -17.4130   23.4527 C.ar    1  UNL1        0.0393
      5 C          -7.1467  -16.5613   24.1610 C.ar    1  UNL1        0.0833
      6 C          -8.5524  -16.4798   23.6439 C.ar    1  UNL1        0.1302
      7 N          -9.3257  -15.5641   24.5458 N.ar    1  UNL1       -0.2211
      8 C          -8.3979  -15.0797   25.6203 C.ar    1  UNL1        0.1787
      9 N          -7.0512  -15.6960   25.3825 N.ar    1  UNL1       -0.3069
     10 C          -5.8245  -15.4841   26.2193 C.3     1  UNL1        0.1320
     11 C          -5.5179  -19.0348   21.5192 C.2     1  UNL1        0.1075
     12 N          -5.9707  -20.1040   20.5697 N.2     1  UNL1       -0.1501
     13 N          -4.9592  -20.9557   19.8615 N.2     1  UNL1       -0.1454
     14 C          -3.4948  -20.7380   20.1028 C.2     1  UNL1        0.1374
     15 C          -3.0420  -19.6687   21.0524 C.2     1  UNL1        0.0893
     16 N          -1.6767  -19.2252   21.4874 N.2     1  UNL1       -0.2461
     17 C          -1.8444  -18.0995   22.4645 C.2     1  UNL1        0.0947
     18 C          -3.3134  -17.8472   22.6333 C.2     1  UNL1        0.0062
     19 C          -4.0536  -18.8171   21.7605 C.3     1  UNL1        0.1087
     20 C         -11.0654  -19.0519   23.5427 C.3     1  UNL1        0.0241
     21 C         -11.4117  -18.0694   22.4635 C.3     1  UNL1        0.1039
     22 C         -12.8173  -17.9879   21.9463 C.3     1  UNL1        0.1618
     23 O         -13.1636  -17.0054   20.8670 O.3     1  UNL1       -0.3502
     24 C         -12.1042  -16.1044   20.3050 C.3     1  UNL1        0.1636
     25 C         -10.6986  -16.1859   20.8222 C.3     1  UNL1        0.1242
     26 N         -10.3523  -17.1684   21.9014 N.pl3   1  UNL1       -0.2886
@<TRIPOS>BOND
     1    21    20    1
     2    21    22    1
     3    22    23    1
     4    23    24    1
     5    24    25    1
     6    25    26    1
     7    26     1    1
     8     1     2   ar
     9     2     3   ar
    10     3    11    1
    11    11    12    2
    12    12    13    1
    13    13    14    2
    14    14    15    1
    15    15    16    2
    16    16    17    1
    17    17    18    2
    18    18    19    1
    19     3     4   ar
    20     4     5   ar
    21     5     6   ar
    22     6     7   ar
    23     7     8   ar
    24     8     9   ar
    25     9    10    1
    26    26    21    1
    27     6     1   ar
    28    19    11    1
    29     9     5   ar
    30    19    15    1
@<TRIPOS>MOLECULE
*****
 26 30 0 0 0
SMALL
GASTEIGER

@<TRIPOS>ATOM
      1 C          -8.4325  -17.0155   22.6523 C.ar    1  UNL1        0.1510
      2 N          -7.1880  -17.5657   22.0208 N.ar    1  UNL1       -0.2278
      3 C          -5.8695  -17.4347   22.7236 C.ar    1  UNL1        0.1001
      4 C          -5.7952  -16.7535   24.0579 C.ar    1  UNL1        0.0393
      5 C          -7.0395  -16.2033   24.6894 C.ar    1  UNL1        0.0833
      6 C          -8.3582  -16.3343   23.9866 C.ar    1  UNL1        0.1302
      7 N          -9.4082  -15.6986   24.8487 N.ar    1  UNL1       -0.2211
      8 C          -8.7385  -15.1747   26.0845 C.ar    1  UNL1        0.1787
      9 N          -7.2746  -15.4866   25.9860 N.ar    1  UNL1       -0.3069
     10 C          -6.2293  -15.1423   27.0052 C.3     1  UNL1        0.1320
     11 C          -4.6250  -17.9850   22.0922 C.2     1  UNL1        0.1075
     12 N          -3.3139  -17.2814   22.2813 N.2     1  UNL1       -0.1501
     13 N          -2.0695  -17.8316   21.6498 N.2     1  UNL1       -0.1454
     14 C          -2.1363  -19.0855   20.8293 C.2     1  UNL1        0.1374
     15 C          -3.4475  -19.7892   20.6402 C.2     1  UNL1        0.0893
     16 N          -3.8195  -21.0341   19.8907 N.2     1  UNL1       -0.2461
     17 C          -5.2939  -21.2533   20.0589 C.2     1  UNL1        0.0947
     18 C          -5.8330  -20.1437   20.9124 C.2     1  UNL1        0.0062
     19 C          -4.6918  -19.2389   21.2717 C.3     1  UNL1        0.1087
     20 C          -9.9136  -19.6237   22.7156 C.3     1  UNL1        0.0241
     21 C         -10.4916  -18.4506   21.9810 C.3     1  UNL1        0.1039
     22 C         -11.8102  -18.5815   21.2781 C.3     1  UNL1        0.1618
     23 O         -12.3883  -17.4084   20.5435 O.3     1  UNL1       -0.3502
     24 C         -11.6478  -16.1043   20.5118 C.3     1  UNL1        0.1636
     25 C         -10.3292  -15.9734   21.2148 C.3     1  UNL1        0.1242
     26 N          -9.7512  -17.1465   21.9493 N.pl3   1  UNL1       -0.2886
@<TRIPOS>BOND
     1    21    20    1
     2    21    22    1
     3    22    23    1
     4    23    24    1
     5    24    25    1
     6    25    26    1
     7    26     1    1
     8     1     2   ar
     9     2     3   ar
    10     3    11    1
    11    11    12    2
    12    12    13    1
    13    13    14    2
    14    14    15    1
    15    15    16    2
    16    16    17    1
    17    17    18    2
    18    18    19    1
    19     3     4   ar
    20     4     5   ar
    21     5     6   ar
    22     6     7   ar
    23     7     8   ar
    24     8     9   ar
    25     9    10    1
    26    26    21    1
    27     6     1   ar
    28    19    11    1
    29     9     5   ar
    30    19    15    1
@<TRIPOS>MOLECULE
*****
 26 30 0 0 0
SMALL
GASTEIGER

@<TRIPOS>ATOM
      1 C           6.2007   -3.4604   25.0994 C.ar    1  UNL1        0.1510
      2 N           5.9964   -3.9534   23.6975 N.ar    1  UNL1       -0.2278
      3 C           5.0481   -3.2381   22.7816 C.ar    1  UNL1        0.1001
      4 C           4.3041   -2.0296   23.2675 C.ar    1  UNL1        0.0393
      5 C           4.5084   -1.5366   24.6693 C.ar    1  UNL1        0.0833
      6 C           5.4567   -2.2520   25.5853 C.ar    1  UNL1        0.1302
      7 N           5.4535   -1.5388   26.9049 N.ar    1  UNL1       -0.2211
      8 C           4.5031   -0.3826   26.8045 C.ar    1  UNL1        0.1787
      9 N           3.9190   -0.3812   25.4229 N.ar    1  UNL1       -0.3069
     10 C           2.9209    0.6028   24.8886 C.3     1  UNL1        0.1320
     11 C           4.8437   -3.7311   21.3797 C.2     1  UNL1        0.1075
     12 N           3.9983   -4.9440   21.1270 N.2     1  UNL1       -0.1501
     13 N           3.7939   -5.4370   19.7251 N.2     1  UNL1       -0.1454
     14 C           4.4351   -4.7170   18.5760 C.2     1  UNL1        0.1374
     15 C           5.2806   -3.5040   18.8287 C.2     1  UNL1        0.0893
     16 N           6.0338   -2.5950   17.9033 N.2     1  UNL1       -0.2461
     17 C           6.7037   -1.5402   18.7332 C.2     1  UNL1        0.0947
     18 C           6.3644   -1.7974   20.1716 C.2     1  UNL1        0.0062
     19 C           5.4849   -3.0111   20.2306 C.3     1  UNL1        0.1087
     20 C           9.0732   -2.6078   25.2480 C.3     1  UNL1        0.0241
     21 C           8.5852   -3.7495   26.0896 C.3     1  UNL1        0.1039
     22 C           9.5335   -4.4650   27.0055 C.3     1  UNL1        0.1618
     23 O           9.0455   -5.6068   27.8470 O.3     1  UNL1       -0.3502
     24 C           7.6094   -6.0332   27.7727 C.3     1  UNL1        0.1636
     25 C           6.6611   -5.3176   26.8568 C.3     1  UNL1        0.1242
     26 N           7.1491   -4.1759   26.0153 N.pl3   1  UNL1       -0.2886
@<TRIPOS>BOND
     1    21    20    1
     2    21    22    1
     3    22    23    1
     4    23    24    1
     5    24    25    1
     6    25    26    1
     7    26     1    1
     8     1     2   ar
     9     2     3   ar
    10     3    11    1
    11    11    12    2
    12    12    13    1
    13    13    14    2
    14    14    15    1
    15    15    16    2
    16    16    17    1
    17    17    18    2
    18    18    19    1
    19     3     4   ar
    20     4     5   ar
    21     5     6   ar
    22     6     7   ar
    23     7     8   ar
    24     8     9   ar
    25     9    10    1
    26    26    21    1
    27     6     1   ar
    28    19    11    1
    29     9     5   ar
    30    19    15    1
@<TRIPOS>MOLECULE
*****
 26 30 0 0 0
SMALL
GASTEIGER

@<TRIPOS>ATOM
      1 C          -1.3209    2.5579   26.6729 C.ar    1  UNL1        0.1510
      2 N          -2.5888    3.2951   26.9875 N.ar    1  UNL1       -0.2278
      3 C          -3.3238    4.0211   25.9000 C.ar    1  UNL1        0.1001
      4 C          -2.7911    4.0098   24.4979 C.ar    1  UNL1        0.0393
      5 C          -1.5232    3.2725   24.1832 C.ar    1  UNL1        0.0833
      6 C          -0.7881    2.5466   25.2707 C.ar    1  UNL1        0.1302
      7 N           0.4278    1.9112   24.6641 N.ar    1  UNL1       -0.2211
      8 C           0.4441    2.2445   23.2017 C.ar    1  UNL1        0.1787
      9 N          -0.7617    3.0859   22.9045 N.ar    1  UNL1       -0.3069
     10 C          -1.1395    3.6427   21.5639 C.3     1  UNL1        0.1320
     11 C          -4.5917    4.7583   26.2147 C.2     1  UNL1        0.1075
     12 N          -4.7374    5.4749   27.5243 N.2     1  UNL1       -0.1501
     13 N          -6.0053    6.2122   27.8389 N.2     1  UNL1       -0.1454
     14 C          -7.1275    6.2328   26.8437 C.2     1  UNL1        0.1374
     15 C          -6.9818    5.5162   25.5341 C.2     1  UNL1        0.0893
     16 N          -7.9097    5.3618   24.3657 N.2     1  UNL1       -0.2461
     17 C          -7.2155    4.5292   23.3291 C.2     1  UNL1        0.0947
     18 C          -5.8583    4.1689   23.8567 C.2     1  UNL1        0.0062
     19 C          -5.7139    4.7789   25.2195 C.3     1  UNL1        0.1087
     20 C           0.7255    4.0030   28.3234 C.3     1  UNL1        0.0241
     21 C           0.4373    2.5545   28.5857 C.3     1  UNL1        0.1039
     22 C           1.1723    1.8285   29.6732 C.3     1  UNL1        0.1618
     23 O           0.8842    0.3800   29.9354 O.3     1  UNL1       -0.3502
     24 C          -0.1390   -0.3426   29.1102 C.3     1  UNL1        0.1636
     25 C          -0.8740    0.3834   28.0227 C.3     1  UNL1        0.1242
     26 N          -0.5858    1.8319   27.7604 N.pl3   1  UNL1       -0.2886
@<TRIPOS>BOND
     1    21    20    1
     2    21    22    1
     3    22    23    1
     4    23    24    1
     5    24    25    1
     6    25    26    1
     7    26     1    1
     8     1     2   ar
     9     2     3   ar
    10     3    11    1
    11    11    12    2
    12    12    13    1
    13    13    14    2
    14    14    15    1
    15    15    16    2
    16    16    17    1
    17    17    18    2
    18    18    19    1
    19     3     4   ar
    20     4     5   ar
    21     5     6   ar
    22     6     7   ar
    23     7     8   ar
    24     8     9   ar
    25     9    10    1
    26    26    21    1
    27     6     1   ar
    28    19    11    1
    29     9     5   ar
    30    19    15    1
@<TRIPOS>MOLECULE
*****
 26 30 0 0 0
SMALL
GASTEIGER

@<TRIPOS>ATOM
      1 C           2.3501    3.0584   35.6643 C.ar    1  UNL1        0.1510
      2 N           2.3405    2.1442   34.4750 N.ar    1  UNL1       -0.2278
      3 C           1.6545    2.5667   33.2098 C.ar    1  UNL1        0.1001
      4 C           0.9781    3.9033   33.1337 C.ar    1  UNL1        0.0393
      5 C           0.9877    4.8175   34.3229 C.ar    1  UNL1        0.0833
      6 C           1.6737    4.3950   35.5882 C.ar    1  UNL1        0.1302
      7 N           1.5196    5.5004   36.5904 N.ar    1  UNL1       -0.2211
      8 C           0.7383    6.6060   35.9445 C.ar    1  UNL1        0.1787
      9 N           0.4096    6.1840   34.5431 N.ar    1  UNL1       -0.3069
     10 C          -0.3618    6.9874   33.5384 C.3     1  UNL1        0.1320
     11 C           1.6449    1.6525   32.0205 C.2     1  UNL1        0.1075
     12 N           0.4199    1.5531   31.1608 N.2     1  UNL1       -0.1501
     13 N           0.4102    0.6389   29.9716 N.2     1  UNL1       -0.1454
     14 C           1.6258   -0.1758   29.6421 C.2     1  UNL1        0.1374
     15 C           2.8510   -0.0764   30.5019 C.2     1  UNL1        0.0893
     16 N           4.1882   -0.7517   30.4256 N.2     1  UNL1       -0.2461
     17 C           5.0242   -0.2549   31.5676 C.2     1  UNL1        0.0947
     18 C           4.2037    0.7275   32.3498 C.2     1  UNL1        0.0062
     19 C           2.8605    0.8378   31.6911 C.3     1  UNL1        0.1087
     20 C           5.1414    3.9939   36.2417 C.3     1  UNL1        0.0241
     21 C           4.4317    3.1036   37.2182 C.3     1  UNL1        0.1039
     22 C           5.1176    2.6809   38.4835 C.3     1  UNL1        0.1618
     23 O           4.4079    1.7906   39.4600 O.3     1  UNL1       -0.3502
     24 C           3.0123    1.3228   39.1714 C.3     1  UNL1        0.1636
     25 C           2.3264    1.7455   37.9061 C.3     1  UNL1        0.1242
     26 N           3.0361    2.6358   36.9296 N.pl3   1  UNL1       -0.2886
@<TRIPOS>BOND
     1    21    20    1
     2    21    22    1
     3    22    23    1
     4    23    24    1
     5    24    25    1
     6    25    26    1
     7    26     1    1
     8     1     2   ar
     9     2     3   ar
    10     3    11    1
    11    11    12    2
    12    12    13    1
    13    13    14    2
    14    14    15    1
    15    15    16    2
    16    16    17    1
    17    17    18    2
    18    18    19    1
    19     3     4   ar
    20     4     5   ar
    21     5     6   ar
    22     6     7   ar
    23     7     8   ar
    24     8     9   ar
    25     9    10    1
    26    26    21    1
    27     6     1   ar
    28    19    11    1
    29     9     5   ar
    30    19    15    1
@<TRIPOS>MOLECULE
*****
 26 30 0 0 0
SMALL
GASTEIGER

@<TRIPOS>ATOM
      1 C           3.7175   -0.8042   19.4127 C.ar    1  UNL1        0.1510
      2 N           2.4431   -0.0440   19.6324 N.ar    1  UNL1       -0.2278
      3 C           2.3031    1.3533   19.1054 C.ar    1  UNL1        0.1001
      4 C           3.4373    1.9905   18.3587 C.ar    1  UNL1        0.0393
      5 C           4.7115    1.2303   18.1390 C.ar    1  UNL1        0.0833
      6 C           4.8516   -0.1670   18.6660 C.ar    1  UNL1        0.1302
      7 N           6.2174   -0.6664   18.2982 N.ar    1  UNL1       -0.2211
      8 C           6.9214    0.4223   17.5439 C.ar    1  UNL1        0.1787
      9 N           5.9907    1.5946   17.4455 N.ar    1  UNL1       -0.3069
     10 C           6.2873    2.9016   16.7719 C.3     1  UNL1        0.1320
     11 C           1.0287    2.1136   19.3251 C.2     1  UNL1        0.1075
     12 N           0.2671    2.6558   18.1522 N.2     1  UNL1       -0.1501
     13 N          -1.0072    3.4160   18.3719 N.2     1  UNL1       -0.1454
     14 C          -1.5198    3.6341   19.7646 C.2     1  UNL1        0.1374
     15 C          -0.7581    3.0919   20.9376 C.2     1  UNL1        0.0893
     16 N          -1.0151    3.1488   22.4143 N.2     1  UNL1       -0.2461
     17 C           0.1003    2.4238   23.1073 C.2     1  UNL1        0.0947
     18 C           1.0468    1.9187   22.0588 C.2     1  UNL1        0.0062
     19 C           0.5162    2.3316   20.7179 C.3     1  UNL1        0.1087
     20 C           4.5987   -1.2583   22.2443 C.3     1  UNL1        0.0241
     21 C           4.2981   -2.4286   21.3555 C.3     1  UNL1        0.1039
     22 C           4.4381   -3.8260   21.8824 C.3     1  UNL1        0.1618
     23 O           4.1375   -4.9964   20.9937 O.3     1  UNL1       -0.3502
     24 C           3.6969   -4.7694   19.5779 C.3     1  UNL1        0.1636
     25 C           3.5569   -3.3720   19.0510 C.3     1  UNL1        0.1242
     26 N           3.8575   -2.2016   19.9398 N.pl3   1  UNL1       -0.2886
@<TRIPOS>BOND
     1    21    20    1
     2    21    22    1
     3    22    23    1
     4    23    24    1
     5    24    25    1
     6    25    26    1
     7    26     1    1
     8     1     2   ar
     9     2     3   ar
    10     3    11    1
    11    11    12    2
    12    12    13    1
    13    13    14    2
    14    14    15    1
    15    15    16    2
    16    16    17    1
    17    17    18    2
    18    18    19    1
    19     3     4   ar
    20     4     5   ar
    21     5     6   ar
    22     6     7   ar
    23     7     8   ar
    24     8     9   ar
    25     9    10    1
    26    26    21    1
    27     6     1   ar
    28    19    11    1
    29     9     5   ar
    30    19    15    1
@<TRIPOS>MOLECULE
*****
 26 30 0 0 0
SMALL
GASTEIGER

@<TRIPOS>ATOM
      1 C           4.8071   -1.6906   25.5901 C.ar    1  UNL1        0.1510
      2 N           4.2896   -1.9908   24.2144 N.ar    1  UNL1       -0.2278
      3 C           5.0219   -2.9578   23.3322 C.ar    1  UNL1        0.1001
      4 C           6.2717   -3.6247   23.8254 C.ar    1  UNL1        0.0393
      5 C           6.7891   -3.3246   25.2009 C.ar    1  UNL1        0.0833
      6 C           6.0568   -2.3575   26.0833 C.ar    1  UNL1        0.1302
      7 N           6.8009   -2.2600   27.3820 N.ar    1  UNL1       -0.2211
      8 C           7.9931   -3.1668   27.3024 C.ar    1  UNL1        0.1787
      9 N           7.9858   -3.8248   25.9544 N.ar    1  UNL1       -0.3069
     10 C           8.9976   -4.8099   25.4487 C.3     1  UNL1        0.1320
     11 C           4.5044   -3.2580   21.9566 C.2     1  UNL1        0.1075
     12 N           4.3809   -4.6799   21.4955 N.2     1  UNL1       -0.1501
     13 N           3.8634   -4.9801   20.1199 N.2     1  UNL1       -0.1454
     14 C           3.4696   -3.8583   19.2054 C.2     1  UNL1        0.1374
     15 C           3.5932   -2.4362   19.6666 C.2     1  UNL1        0.0893
     16 N           3.2849   -1.1322   18.9925 N.2     1  UNL1       -0.2461
     17 C           3.6118   -0.0260   19.9515 C.2     1  UNL1        0.0947
     18 C           4.1221   -0.6465   21.2183 C.2     1  UNL1        0.0062
     19 C           4.1106   -2.1361   21.0421 C.3     1  UNL1        0.1087
     20 C           5.0224    1.2590   25.0861 C.3     1  UNL1        0.0241
     21 C           4.1823    0.7512   26.2203 C.3     1  UNL1        0.1039
     22 C           3.4499    1.7183   27.1027 C.3     1  UNL1        0.1618
     23 O           2.6099    1.2105   28.2369 O.3     1  UNL1       -0.3502
     24 C           2.5023   -0.2642   28.4889 C.3     1  UNL1        0.1636
     25 C           3.2347   -1.2312   27.6066 C.3     1  UNL1        0.1242
     26 N           4.0747   -0.7235   26.4724 N.pl3   1  UNL1       -0.2886
@<TRIPOS>BOND
     1    21    20    1
     2    21    22    1
     3    22    23    1
     4    23    24    1
     5    24    25    1
     6    25    26    1
     7    26     1    1
     8     1     2   ar
     9     2     3   ar
    10     3    11    1
    11    11    12    2
    12    12    13    1
    13    13    14    2
    14    14    15    1
    15    15    16    2
    16    16    17    1
    17    17    18    2
    18    18    19    1
    19     3     4   ar
    20     4     5   ar
    21     5     6   ar
    22     6     7   ar
    23     7     8   ar
    24     8     9   ar
    25     9    10    1
    26    26    21    1
    27     6     1   ar
    28    19    11    1
    29     9     5   ar
    30    19    15    1
@<TRIPOS>MOLECULE
*****
 26 30 0 0 0
SMALL
GASTEIGER

@<TRIPOS>ATOM
      1 C           4.3036   -0.2655   31.8816 C.ar    1  UNL1        0.1510
      2 N           3.2715   -0.1203   30.8028 N.ar    1  UNL1       -0.2278
      3 C           2.1279    0.8335   30.9823 C.ar    1  UNL1        0.1001
      4 C           2.0162    1.6421   32.2407 C.ar    1  UNL1        0.0393
      5 C           3.0481    1.4969   33.3196 C.ar    1  UNL1        0.0833
      6 C           4.1919    0.5432   33.1401 C.ar    1  UNL1        0.1302
      7 N           5.0506    0.6127   34.3679 N.ar    1  UNL1       -0.2211
      8 C           4.4376    1.6095   35.3064 C.ar    1  UNL1        0.1787
      9 N           3.2000    2.1560   34.6585 N.ar    1  UNL1       -0.3069
     10 C           2.2765    3.1814   35.2463 C.3     1  UNL1        0.1320
     11 C           1.0959    0.9786   29.9035 C.2     1  UNL1        0.1075
     12 N           0.1904   -0.1703   29.5722 N.2     1  UNL1       -0.1501
     13 N          -0.8417   -0.0251   28.4934 N.2     1  UNL1       -0.1454
     14 C          -0.9681    1.2691   27.7458 C.2     1  UNL1        0.1374
     15 C          -0.0625    2.4182   28.0771 C.2     1  UNL1        0.0893
     16 N           0.0464    3.8046   27.5151 N.2     1  UNL1       -0.2461
     17 C           1.1456    4.5163   28.2465 C.2     1  UNL1        0.0947
     18 C           1.7162    3.5697   29.2607 C.2     1  UNL1        0.0062
     19 C           0.9694    2.2729   29.1559 C.3     1  UNL1        0.1087
     20 C           4.3357   -2.8673   33.3748 C.3     1  UNL1        0.0241
     21 C           5.4633   -2.5202   32.4486 C.3     1  UNL1        0.1039
     22 C           6.6071   -3.4739   32.2689 C.3     1  UNL1        0.1618
     23 O           7.7347   -3.1267   31.3427 O.3     1  UNL1       -0.3502
     24 C           7.7187   -1.8259   30.5961 C.3     1  UNL1        0.1636
     25 C           6.5749   -0.8721   30.7758 C.3     1  UNL1        0.1242
     26 N           5.4473   -1.2193   31.7020 N.pl3   1  UNL1       -0.2886
@<TRIPOS>BOND
     1    21    20    1
     2    21    22    1
     3    22    23    1
     4    23    24    1
     5    24    25    1
     6    25    26    1
     7    26     1    1
     8     1     2   ar
     9     2     3   ar
    10     3    11    1
    11    11    12    2
    12    12    13    1
    13    13    14    2
    14    14    15    1
    15    15    16    2
    16    16    17    1
    17    17    18    2
    18    18    19    1
    19     3     4   ar
    20     4     5   ar
    21     5     6   ar
    22     6     7   ar
    23     7     8   ar
    24     8     9   ar
    25     9    10    1
    26    26    21    1
    27     6     1   ar
    28    19    11    1
    29     9     5   ar
    30    19    15    1
@<TRIPOS>MOLECULE
*****
 26 30 0 0 0
SMALL
GASTEIGER

@<TRIPOS>ATOM
      1 C           1.6052    2.0012   19.5666 C.ar    1  UNL1        0.1510
      2 N           2.3533    0.8013   19.0658 N.ar    1  UNL1       -0.2278
      3 C           2.7917   -0.2639   20.0265 C.ar    1  UNL1        0.1001
      4 C           2.4822   -0.1293   21.4880 C.ar    1  UNL1        0.0393
      5 C           1.7342    1.0705   21.9888 C.ar    1  UNL1        0.0833
      6 C           1.2957    2.1358   21.0281 C.ar    1  UNL1        0.1302
      7 N           0.5794    3.1977   21.8087 N.ar    1  UNL1       -0.2211
      8 C           0.5753    2.7888   23.2518 C.ar    1  UNL1        0.1787
      9 N           1.2890    1.4741   23.3632 N.ar    1  UNL1       -0.3069
     10 C           1.5173    0.6991   24.6270 C.3     1  UNL1        0.1320
     11 C           3.5398   -1.4638   19.5257 C.2     1  UNL1        0.1075
     12 N           3.0272   -2.8428   19.8176 N.2     1  UNL1       -0.1501
     13 N           3.7753   -4.0427   19.3168 N.2     1  UNL1       -0.1454
     14 C           5.0360   -3.8634   18.5241 C.2     1  UNL1        0.1374
     15 C           5.5487   -2.4843   18.2323 C.2     1  UNL1        0.0893
     16 N           6.7536   -1.9993   17.4820 N.2     1  UNL1       -0.2461
     17 C           6.7503   -0.4998   17.5191 C.2     1  UNL1        0.0947
     18 C           5.5432   -0.0579   18.2923 C.2     1  UNL1        0.0062
     19 C           4.8006   -1.2845   18.7330 C.3     1  UNL1        0.1087
     20 C           3.5005    4.1931   18.7897 C.3     1  UNL1        0.0241
     21 C           2.1143    4.1623   18.2174 C.3     1  UNL1        0.1039
     22 C           1.6758    5.2275   17.2566 C.3     1  UNL1        0.1618
     23 O           0.2896    5.1967   16.6843 O.3     1  UNL1       -0.3502
     24 C          -0.6581    4.1008   17.0727 C.3     1  UNL1        0.1636
     25 C          -0.2195    3.0356   18.0334 C.3     1  UNL1        0.1242
     26 N           1.1667    3.0664   18.6058 N.pl3   1  UNL1       -0.2886
@<TRIPOS>BOND
     1    21    20    1
     2    21    22    1
     3    22    23    1
     4    23    24    1
     5    24    25    1
     6    25    26    1
     7    26     1    1
     8     1     2   ar
     9     2     3   ar
    10     3    11    1
    11    11    12    2
    12    12    13    1
    13    13    14    2
    14    14    15    1
    15    15    16    2
    16    16    17    1
    17    17    18    2
    18    18    19    1
    19     3     4   ar
    20     4     5   ar
    21     5     6   ar
    22     6     7   ar
    23     7     8   ar
    24     8     9   ar
    25     9    10    1
    26    26    21    1
    27     6     1   ar
    28    19    11    1
    29     9     5   ar
    30    19    15    1
