@<TRIPOS>MOLECULE
*****
 46 52 0 0 0
SMALL
GASTEIGER

@<TRIPOS>ATOM
      1 N           2.9376    0.7865   31.5262 N.am    1  UNL1       -0.2222
      2 C           2.4027    0.7372   30.1256 C.2     1  UNL1        0.3219
      3 O           2.8011   -0.2444   29.0637 O.2     1  UNL1       -0.2512
      4 N           1.3994    1.8419   29.9735 N.am    1  UNL1       -0.1907
      5 C           1.3142    2.5739   31.2800 C.2     1  UNL1        0.2529
      6 O           0.4331    3.7513   31.5752 O.2     1  UNL1       -0.2724
      7 C           2.2649    1.9216   32.2397 C.3     1  UNL1        0.1391
      8 C           3.2520    1.1703   33.0830 C.3     1  UNL1        0.0449
      9 C           3.4884    1.5811   34.5061 C.3     1  UNL1        0.0746
     10 N           2.7377    2.7431   35.0859 N.3     1  UNL1       -0.2676
     11 C           1.7506    3.4944   34.2426 C.3     1  UNL1        0.0746
     12 C           1.5142    3.0836   32.8195 C.3     1  UNL1        0.0449
     13 C           6.4479   -0.7072   32.6202 C.ar    1  UNL1        0.2293
     14 C           5.4206    0.2165   32.0357 C.ar    1  UNL1        0.0924
     15 C           3.9649   -0.1372   32.1107 C.ar    1  UNL1        0.1453
     16 N           3.5364   -1.4145   32.7701 N.ar    1  UNL1       -0.2084
     17 C           4.5635   -2.3382   33.3546 C.ar    1  UNL1        0.2027
     18 N           6.0194   -1.9845   33.2796 N.ar    1  UNL1       -0.1892
     19 C           8.9336   -1.2967   33.0928 C.3     1  UNL1        0.2542
     20 O           7.9037   -0.3536   32.5452 O.3     1  UNL1       -0.4560
     21 C           0.6184    2.1589   28.7328 C.ar    1  UNL1        0.0622
     22 C           0.6388    3.5484   28.1683 C.ar    1  UNL1        0.0154
     23 C          -0.1422    3.8654   26.9275 C.ar    1  UNL1        0.0013
     24 C          -0.9437    2.7929   26.2512 C.ar    1  UNL1        0.0001
     25 C          -0.9641    1.4032   26.8158 C.ar    1  UNL1        0.0013
     26 C          -0.1831    1.0863   28.0566 C.ar    1  UNL1        0.0154
     27 C          -1.7247    3.1099   25.0104 C.ar    1  UNL1        0.0000
     28 C          -1.0157    3.2692   23.6982 C.ar    1  UNL1        0.0000
     29 C          -1.7968    3.5862   22.4574 C.ar    1  UNL1        0.0015
     30 C          -3.2867    3.7439   22.5290 C.ar    1  UNL1        0.0194
     31 C          -3.9957    3.5845   23.8412 C.ar    1  UNL1        0.0015
     32 C          -3.2147    3.2675   25.0819 C.ar    1  UNL1        0.0000
     33 C          -4.0678    4.0609   21.2882 C.2     1  UNL1        0.1052
     34 C          -5.1673    3.2263   20.7012 C.2     1  UNL1        0.0820
     35 C          -5.6654    3.9177   19.4668 C.2     1  UNL1        0.2877
     36 O          -6.7627    3.4325   18.5664 O.2     1  UNL1       -0.2664
     37 N          -4.8738    5.1796   19.2908 N.am    1  UNL1       -0.0753
     38 N          -3.8864    5.2681   20.4166 N.2     1  UNL1       -0.1557
     39 C           2.9742    3.1538   36.5092 C.3     1  UNL1        0.1183
     40 C           2.2042    2.4980   37.6168 C.ar    1  UNL1        0.0712
     41 N           0.9311    3.1163   38.1136 N.ar    1  UNL1       -0.2471
     42 C           0.1611    2.4604   39.2213 C.ar    1  UNL1        0.0985
     43 C           0.6643    1.1863   39.8323 C.ar    1  UNL1        0.0203
     44 C           1.9374    0.5679   39.3355 C.ar    1  UNL1       -0.0015
     45 C           2.7074    1.2238   38.2278 C.ar    1  UNL1       -0.0069
     46 C           3.9805    0.6054   37.7310 C.3     1  UNL1        0.0323
@<TRIPOS>BOND
     1    19    20    1
     2    20    13    1
     3    13    14   ar
     4    14    15   ar
     5    15     1    1
     6     1     2   am
     7     2     3    2
     8     2     4   am
     9     4    21    1
    10    21    22   ar
    11    22    23   ar
    12    23    24   ar
    13    24    27    1
    14    27    28   ar
    15    28    29   ar
    16    29    30   ar
    17    30    33    1
    18    33    34    2
    19    34    35    1
    20    35    36    2
    21    35    37    1
    22    37    38    2
    23    30    31   ar
    24    31    32   ar
    25    24    25   ar
    26    25    26   ar
    27     4     5   am
    28     5     6    2
    29     5     7    1
    30     7     8    1
    31     8     9    1
    32     9    10    1
    33    10    39    1
    34    39    40    1
    35    40    41   ar
    36    41    42   ar
    37    42    43   ar
    38    43    44   ar
    39    44    45   ar
    40    45    46    1
    41    10    11    1
    42    11    12    1
    43    15    16   ar
    44    16    17   ar
    45    17    18   ar
    46    18    13   ar
    47     7     1    1
    48    45    40   ar
    49    26    21   ar
    50    12     7    1
    51    32    27   ar
    52    38    33    1
@<TRIPOS>MOLECULE
*****
 46 52 0 0 0
SMALL
GASTEIGER

@<TRIPOS>ATOM
      1 N           3.0911    0.3074   31.5065 N.am    1  UNL1       -0.2222
      2 C           2.4156    0.4103   30.1711 C.2     1  UNL1        0.3219
      3 O           2.6979   -0.4456   28.9720 O.2     1  UNL1       -0.2512
      4 N           1.4083    1.5193   30.2454 N.am    1  UNL1       -0.1907
      5 C           1.4612    2.1018   31.6266 C.2     1  UNL1        0.2529
      6 O           0.6216    3.2344   32.1386 O.2     1  UNL1       -0.2724
      7 C           2.5012    1.3528   32.4061 C.3     1  UNL1        0.1391
      8 C           3.5650    0.5185   33.0559 C.3     1  UNL1        0.0449
      9 C           3.9479    0.7707   34.4840 C.3     1  UNL1        0.0746
     10 N           3.2670    1.8572   35.2625 N.3     1  UNL1       -0.2676
     11 C           2.2033    2.6915   34.6127 C.3     1  UNL1        0.0746
     12 C           1.8204    2.4393   33.1845 C.3     1  UNL1        0.0449
     13 C           6.6761   -1.3434   31.9215 C.ar    1  UNL1        0.2293
     14 C           5.5998   -0.3666   31.5508 C.ar    1  UNL1        0.0924
     15 C           4.1674   -0.6694   31.8772 C.ar    1  UNL1        0.1453
     16 N           3.8113   -1.9489   32.5744 N.ar    1  UNL1       -0.2084
     17 C           4.8875   -2.9257   32.9451 C.ar    1  UNL1        0.2027
     18 N           6.3200   -2.6229   32.6186 N.ar    1  UNL1       -0.1892
     19 C           9.1977   -1.4656   32.5348 C.3     1  UNL1        0.2542
     20 O           8.1085   -1.0407   31.5951 O.3     1  UNL1       -0.4560
     21 C           0.5065    1.9671   29.1337 C.ar    1  UNL1        0.0622
     22 C           0.6226    3.3597   28.5886 C.ar    1  UNL1        0.0154
     23 C          -0.2793    3.8076   27.4767 C.ar    1  UNL1        0.0013
     24 C          -1.2973    2.8628   26.9100 C.ar    1  UNL1        0.0001
     25 C          -1.4134    1.4701   27.4552 C.ar    1  UNL1        0.0013
     26 C          -0.5115    1.0224   28.5669 C.ar    1  UNL1        0.0154
     27 C          -2.1992    3.3107   25.7982 C.ar    1  UNL1        0.0000
     28 C          -3.6204    3.6897   26.0920 C.ar    1  UNL1        0.0000
     29 C          -4.5223    4.1376   24.9802 C.ar    1  UNL1        0.0015
     30 C          -4.0028    4.2063   23.5747 C.ar    1  UNL1        0.0194
     31 C          -2.5815    3.8272   23.2809 C.ar    1  UNL1        0.0015
     32 C          -1.6797    3.3794   24.3927 C.ar    1  UNL1        0.0000
     33 C          -4.9047    4.6541   22.4629 C.2     1  UNL1        0.1052
     34 C          -6.2542    5.2889   22.6237 C.2     1  UNL1        0.0820
     35 C          -6.7989    5.5729   21.2553 C.2     1  UNL1        0.2877
     36 O          -8.1239    6.2052   20.9475 O.2     1  UNL1       -0.2664
     37 N          -5.7861    5.1137   20.2486 N.am    1  UNL1       -0.0753
     38 N          -4.6153    4.5458   20.9950 N.2     1  UNL1       -0.1557
     39 C           3.6500    2.1094   36.6907 C.3     1  UNL1        0.1183
     40 C           2.6543    1.8725   37.7872 C.ar    1  UNL1        0.0712
     41 N           2.5500    0.5194   38.4263 N.ar    1  UNL1       -0.2471
     42 C           1.5542    0.2826   39.5228 C.ar    1  UNL1        0.0985
     43 C           0.6627    1.3988   39.9803 C.ar    1  UNL1        0.0203
     44 C           0.7669    2.7518   39.3412 C.ar    1  UNL1       -0.0015
     45 C           1.7627    2.9887   38.2447 C.ar    1  UNL1       -0.0069
     46 C           1.8669    4.3417   37.6057 C.3     1  UNL1        0.0323
@<TRIPOS>BOND
     1    19    20    1
     2    20    13    1
     3    13    14   ar
     4    14    15   ar
     5    15     1    1
     6     1     2   am
     7     2     3    2
     8     2     4   am
     9     4    21    1
    10    21    22   ar
    11    22    23   ar
    12    23    24   ar
    13    24    27    1
    14    27    28   ar
    15    28    29   ar
    16    29    30   ar
    17    30    33    1
    18    33    34    2
    19    34    35    1
    20    35    36    2
    21    35    37    1
    22    37    38    2
    23    30    31   ar
    24    31    32   ar
    25    24    25   ar
    26    25    26   ar
    27     4     5   am
    28     5     6    2
    29     5     7    1
    30     7     8    1
    31     8     9    1
    32     9    10    1
    33    10    39    1
    34    39    40    1
    35    40    41   ar
    36    41    42   ar
    37    42    43   ar
    38    43    44   ar
    39    44    45   ar
    40    45    46    1
    41    10    11    1
    42    11    12    1
    43    15    16   ar
    44    16    17   ar
    45    17    18   ar
    46    18    13   ar
    47     7     1    1
    48    45    40   ar
    49    26    21   ar
    50    12     7    1
    51    32    27   ar
    52    38    33    1
@<TRIPOS>MOLECULE
*****
 46 52 0 0 0
SMALL
GASTEIGER

@<TRIPOS>ATOM
      1 N           3.6790   -1.0014   21.4904 N.am    1  UNL1       -0.2222
      2 C           2.4399   -0.1560   21.5048 C.2     1  UNL1        0.3219
      3 O           1.6218    0.2298   20.3082 O.2     1  UNL1       -0.2512
      4 N           2.1627    0.2360   22.9259 N.am    1  UNL1       -0.1907
      5 C           3.2304   -0.3672   23.7898 C.2     1  UNL1        0.2529
      6 O           3.3415   -0.2298   25.2793 O.2     1  UNL1       -0.2724
      7 C           4.1675   -1.1319   22.9026 C.3     1  UNL1        0.1391
      8 C           5.0139   -1.8521   21.8952 C.3     1  UNL1        0.0449
      9 C           6.2265   -2.6136   22.3418 C.3     1  UNL1        0.0746
     10 N           6.5928   -2.6550   23.7958 N.3     1  UNL1       -0.2676
     11 C           5.7464   -1.9348   24.8032 C.3     1  UNL1        0.0746
     12 C           4.5338   -1.1733   24.3566 C.3     1  UNL1        0.0449
     13 C           5.9432   -1.4253   18.2587 C.ar    1  UNL1        0.2293
     14 C           5.3048   -0.8172   19.4723 C.ar    1  UNL1        0.0924
     15 C           4.3174   -1.6095   20.2768 C.ar    1  UNL1        0.1453
     16 N           3.9683   -3.0098   19.8679 N.ar    1  UNL1       -0.2084
     17 C           4.6067   -3.6179   18.6544 C.ar    1  UNL1        0.2027
     18 N           5.5941   -2.8256   17.8498 N.ar    1  UNL1       -0.1892
     19 C           6.5906    0.7583   17.0089 C.3     1  UNL1        0.2542
     20 O           6.9305   -0.6331   17.4541 O.3     1  UNL1       -0.4560
     21 C           1.0187    1.0824   23.3999 C.ar    1  UNL1        0.0622
     22 C           0.3772    2.0667   22.4673 C.ar    1  UNL1        0.0154
     23 C          -0.7668    2.9132   22.9414 C.ar    1  UNL1        0.0013
     24 C          -1.2693    2.7754   24.3479 C.ar    1  UNL1        0.0001
     25 C          -0.6278    1.7911   25.2806 C.ar    1  UNL1        0.0013
     26 C           0.5162    0.9447   24.8065 C.ar    1  UNL1        0.0154
     27 C          -2.4134    3.6219   24.8219 C.ar    1  UNL1        0.0000
     28 C          -3.1459    4.5029   23.8539 C.ar    1  UNL1        0.0000
     29 C          -4.2900    5.3494   24.3279 C.ar    1  UNL1        0.0015
     30 C          -4.7013    5.3148   25.7700 C.ar    1  UNL1        0.0194
     31 C          -3.9688    4.4338   26.7381 C.ar    1  UNL1        0.0015
     32 C          -2.8248    3.5873   26.2641 C.ar    1  UNL1        0.0000
     33 C          -5.8454    6.1613   26.2441 C.2     1  UNL1        0.1052
     34 C          -6.3418    6.2621   27.6559 C.2     1  UNL1        0.0820
     35 C          -7.4970    7.2187   27.6739 C.2     1  UNL1        0.2877
     36 O          -8.2947    7.6153   28.8807 O.2     1  UNL1       -0.2664
     37 N          -7.7147    7.7091   26.2731 N.am    1  UNL1       -0.0753
     38 N          -6.6938    7.0555   25.3894 N.2     1  UNL1       -0.1557
     39 C           7.8055   -3.4166   24.2424 C.3     1  UNL1        0.1183
     40 C           7.6576   -4.7985   24.8066 C.ar    1  UNL1        0.0712
     41 N           7.0018   -4.9976   26.1409 N.ar    1  UNL1       -0.2471
     42 C           6.8539   -6.3796   26.7051 C.ar    1  UNL1        0.0985
     43 C           7.3618   -7.5624   25.9351 C.ar    1  UNL1        0.0203
     44 C           8.0176   -7.3633   24.6008 C.ar    1  UNL1       -0.0015
     45 C           8.1655   -5.9814   24.0366 C.ar    1  UNL1       -0.0069
     46 C           8.8213   -5.7822   22.7023 C.3     1  UNL1        0.0323
@<TRIPOS>BOND
     1    19    20    1
     2    20    13    1
     3    13    14   ar
     4    14    15   ar
     5    15     1    1
     6     1     2   am
     7     2     3    2
     8     2     4   am
     9     4    21    1
    10    21    22   ar
    11    22    23   ar
    12    23    24   ar
    13    24    27    1
    14    27    28   ar
    15    28    29   ar
    16    29    30   ar
    17    30    33    1
    18    33    34    2
    19    34    35    1
    20    35    36    2
    21    35    37    1
    22    37    38    2
    23    30    31   ar
    24    31    32   ar
    25    24    25   ar
    26    25    26   ar
    27     4     5   am
    28     5     6    2
    29     5     7    1
    30     7     8    1
    31     8     9    1
    32     9    10    1
    33    10    39    1
    34    39    40    1
    35    40    41   ar
    36    41    42   ar
    37    42    43   ar
    38    43    44   ar
    39    44    45   ar
    40    45    46    1
    41    10    11    1
    42    11    12    1
    43    15    16   ar
    44    16    17   ar
    45    17    18   ar
    46    18    13   ar
    47     7     1    1
    48    45    40   ar
    49    26    21   ar
    50    12     7    1
    51    32    27   ar
    52    38    33    1
@<TRIPOS>MOLECULE
*****
 46 52 0 0 0
SMALL
GASTEIGER

@<TRIPOS>ATOM
      1 N           4.3025   -0.1380   31.4067 N.am    1  UNL1       -0.2222
      2 C           3.5507    0.0783   30.1268 C.2     1  UNL1        0.3219
      3 O           3.8932   -0.5142   28.7921 O.2     1  UNL1       -0.2512
      4 N           2.3961    0.9913   30.4161 N.am    1  UNL1       -0.1907
      5 C           2.4344    1.3391   31.8747 C.2     1  UNL1        0.2529
      6 O           1.4648    2.2287   32.5948 O.2     1  UNL1       -0.2724
      7 C           3.6127    0.6412   32.4870 C.3     1  UNL1        0.1391
      8 C           4.8202   -0.1148   32.9563 C.3     1  UNL1        0.0449
      9 C           5.2356   -0.0456   34.3959 C.3     1  UNL1        0.0746
     10 N           4.4434    0.7795   35.3663 N.3     1  UNL1       -0.2676
     11 C           3.2359    1.5355   34.8970 C.3     1  UNL1        0.0746
     12 C           2.8205    1.4664   33.4573 C.3     1  UNL1        0.0449
     13 C           6.6206   -3.2998   32.0224 C.ar    1  UNL1        0.2293
     14 C           5.3942   -2.4530   31.8526 C.ar    1  UNL1        0.0924
     15 C           5.5289   -0.9848   31.5765 C.ar    1  UNL1        0.1453
     16 N           6.8900   -0.3635   31.4701 N.ar    1  UNL1       -0.2084
     17 C           8.1164   -1.2102   31.6398 C.ar    1  UNL1        0.2027
     18 N           7.9817   -2.6785   31.9160 N.ar    1  UNL1       -0.1892
     19 C           7.1099   -5.7662   31.3689 C.3     1  UNL1        0.2542
     20 O           6.4859   -4.7680   32.2986 O.3     1  UNL1       -0.4560
     21 C           1.3815    1.4719   29.4215 C.ar    1  UNL1        0.0622
     22 C           0.3326    0.5316   28.9061 C.ar    1  UNL1        0.0154
     23 C          -0.6821    1.0122   27.9114 C.ar    1  UNL1        0.0013
     24 C          -0.6479    2.4332   27.4321 C.ar    1  UNL1        0.0001
     25 C           0.4010    3.3736   27.9476 C.ar    1  UNL1        0.0013
     26 C           1.4156    2.8928   28.9423 C.ar    1  UNL1        0.0154
     27 C          -1.6626    2.9139   26.4374 C.ar    1  UNL1        0.0000
     28 C          -1.3370    2.9117   24.9732 C.ar    1  UNL1        0.0000
     29 C          -2.3517    3.3924   23.9785 C.ar    1  UNL1        0.0015
     30 C          -3.6920    3.8751   24.4482 C.ar    1  UNL1        0.0194
     31 C          -4.0176    3.8773   25.9124 C.ar    1  UNL1        0.0015
     32 C          -3.0030    3.3967   26.9070 C.ar    1  UNL1        0.0000
     33 C          -4.7067    4.3558   23.4535 C.2     1  UNL1        0.1052
     34 C          -6.0512    4.9372   23.7764 C.2     1  UNL1        0.0820
     35 C          -6.7304    5.2802   22.4837 C.2     1  UNL1        0.2877
     36 O          -8.0949    5.8862   22.3384 O.2     1  UNL1       -0.2664
     37 N          -5.8058    4.9107   21.3618 N.am    1  UNL1       -0.0753
     38 N          -4.5550    4.3394   21.9612 N.2     1  UNL1       -0.1557
     39 C           4.8588    0.8487   36.8060 C.3     1  UNL1        0.1183
     40 C           4.5995    2.0930   37.6025 C.ar    1  UNL1        0.0712
     41 N           5.5472    3.2522   37.5126 N.ar    1  UNL1       -0.2471
     42 C           5.2878    4.4965   38.3091 C.ar    1  UNL1        0.0985
     43 C           4.0808    4.5816   39.1956 C.ar    1  UNL1        0.0203
     44 C           3.1331    3.4224   39.2855 C.ar    1  UNL1       -0.0015
     45 C           3.3924    2.1781   38.4890 C.ar    1  UNL1       -0.0069
     46 C           2.4447    1.0189   38.5790 C.3     1  UNL1        0.0323
@<TRIPOS>BOND
     1    19    20    1
     2    20    13    1
     3    13    14   ar
     4    14    15   ar
     5    15     1    1
     6     1     2   am
     7     2     3    2
     8     2     4   am
     9     4    21    1
    10    21    22   ar
    11    22    23   ar
    12    23    24   ar
    13    24    27    1
    14    27    28   ar
    15    28    29   ar
    16    29    30   ar
    17    30    33    1
    18    33    34    2
    19    34    35    1
    20    35    36    2
    21    35    37    1
    22    37    38    2
    23    30    31   ar
    24    31    32   ar
    25    24    25   ar
    26    25    26   ar
    27     4     5   am
    28     5     6    2
    29     5     7    1
    30     7     8    1
    31     8     9    1
    32     9    10    1
    33    10    39    1
    34    39    40    1
    35    40    41   ar
    36    41    42   ar
    37    42    43   ar
    38    43    44   ar
    39    44    45   ar
    40    45    46    1
    41    10    11    1
    42    11    12    1
    43    15    16   ar
    44    16    17   ar
    45    17    18   ar
    46    18    13   ar
    47     7     1    1
    48    45    40   ar
    49    26    21   ar
    50    12     7    1
    51    32    27   ar
    52    38    33    1
@<TRIPOS>MOLECULE
*****
 46 52 0 0 0
SMALL
GASTEIGER

@<TRIPOS>ATOM
      1 N           6.1361   -2.1959   25.9413 N.am    1  UNL1       -0.2222
      2 C           6.2352   -1.9424   27.4165 C.2     1  UNL1        0.3219
      3 O           7.3248   -2.4316   28.3239 O.2     1  UNL1       -0.2512
      4 N           5.0533   -1.1138   27.8248 N.am    1  UNL1       -0.1907
      5 C           4.2238   -0.8552   26.6021 C.2     1  UNL1        0.2529
      6 O           2.9490   -0.0664   26.5521 O.2     1  UNL1       -0.2724
      7 C           4.8930   -1.5240   25.4380 C.3     1  UNL1        0.1391
      8 C           5.6724   -2.2402   24.3752 C.3     1  UNL1        0.0449
      9 C           5.1842   -2.2375   22.9569 C.3     1  UNL1        0.0746
     10 N           3.9166   -1.5186   22.6014 N.3     1  UNL1       -0.2676
     11 C           3.1372   -0.8024   23.6642 C.3     1  UNL1        0.0746
     12 C           3.6254   -0.8051   25.0825 C.3     1  UNL1        0.0449
     13 C           7.9196   -5.2549   24.1493 C.ar    1  UNL1        0.2293
     14 C           6.9465   -4.4677   24.9760 C.ar    1  UNL1        0.0924
     15 C           7.1092   -2.9830   25.1146 C.ar    1  UNL1        0.1453
     16 N           8.2450   -2.2855   24.4266 N.ar    1  UNL1       -0.2084
     17 C           9.2182   -3.0726   23.6000 C.ar    1  UNL1        0.2027
     18 N           9.0555   -4.5574   23.4613 N.ar    1  UNL1       -0.1892
     19 C           8.0958   -7.6417   25.1601 C.3     1  UNL1        0.2542
     20 O           7.7570   -6.7396   24.0106 O.3     1  UNL1       -0.4560
     21 C           4.7536   -0.6290   29.2122 C.ar    1  UNL1        0.0622
     22 C           3.4122   -0.8977   29.8272 C.ar    1  UNL1        0.0154
     23 C           3.1124   -0.4129   31.2147 C.ar    1  UNL1        0.0013
     24 C           4.1542    0.3407   31.9872 C.ar    1  UNL1        0.0001
     25 C           5.4958    0.6095   31.3723 C.ar    1  UNL1        0.0013
     26 C           5.7954    0.1246   29.9848 C.ar    1  UNL1        0.0154
     27 C           3.8545    0.8255   33.3747 C.ar    1  UNL1        0.0000
     28 C           2.8418    1.9114   33.5873 C.ar    1  UNL1        0.0000
     29 C           2.5421    2.3963   34.9748 C.ar    1  UNL1        0.0015
     30 C           3.2552    1.7952   36.1496 C.ar    1  UNL1        0.0194
     31 C           4.2679    0.7093   35.9370 C.ar    1  UNL1        0.0015
     32 C           4.5676    0.2245   34.5496 C.ar    1  UNL1        0.0000
     33 C           2.9555    2.2800   37.5371 C.2     1  UNL1        0.1052
     34 C           3.8082    3.2084   38.3501 C.2     1  UNL1        0.0820
     35 C           3.1302    3.4238   39.6706 C.2     1  UNL1        0.2877
     36 O           3.6352    4.2835   40.7913 O.2     1  UNL1       -0.2664
     37 N           1.8584    2.6284   39.6740 N.am    1  UNL1       -0.0753
     38 N           1.7504    1.9215   38.3553 N.2     1  UNL1       -0.1557
     39 C           3.4284   -1.5159   21.1830 C.3     1  UNL1        0.1183
     40 C           4.4112   -1.5750   20.0514 C.ar    1  UNL1        0.0712
     41 N           5.2403   -0.3713   19.7145 N.ar    1  UNL1       -0.2471
     42 C           6.2232   -0.4304   18.5829 C.ar    1  UNL1        0.0985
     43 C           6.3769   -1.6933   17.7882 C.ar    1  UNL1        0.0203
     44 C           5.5478   -2.8970   18.1252 C.ar    1  UNL1       -0.0015
     45 C           4.5649   -2.8379   19.2567 C.ar    1  UNL1       -0.0069
     46 C           3.7358   -4.0417   19.5937 C.3     1  UNL1        0.0323
@<TRIPOS>BOND
     1    19    20    1
     2    20    13    1
     3    13    14   ar
     4    14    15   ar
     5    15     1    1
     6     1     2   am
     7     2     3    2
     8     2     4   am
     9     4    21    1
    10    21    22   ar
    11    22    23   ar
    12    23    24   ar
    13    24    27    1
    14    27    28   ar
    15    28    29   ar
    16    29    30   ar
    17    30    33    1
    18    33    34    2
    19    34    35    1
    20    35    36    2
    21    35    37    1
    22    37    38    2
    23    30    31   ar
    24    31    32   ar
    25    24    25   ar
    26    25    26   ar
    27     4     5   am
    28     5     6    2
    29     5     7    1
    30     7     8    1
    31     8     9    1
    32     9    10    1
    33    10    39    1
    34    39    40    1
    35    40    41   ar
    36    41    42   ar
    37    42    43   ar
    38    43    44   ar
    39    44    45   ar
    40    45    46    1
    41    10    11    1
    42    11    12    1
    43    15    16   ar
    44    16    17   ar
    45    17    18   ar
    46    18    13   ar
    47     7     1    1
    48    45    40   ar
    49    26    21   ar
    50    12     7    1
    51    32    27   ar
    52    38    33    1
@<TRIPOS>MOLECULE
*****
 46 52 0 0 0
SMALL
GASTEIGER

@<TRIPOS>ATOM
      1 N           4.1265   -0.6136   22.2772 N.am    1  UNL1       -0.2222
      2 C           2.8753    0.2123   22.2276 C.2     1  UNL1        0.3219
      3 O           2.2312    0.7636   20.9901 O.2     1  UNL1       -0.2512
      4 N           2.3812    0.3900   23.6327 N.am    1  UNL1       -0.1907
      5 C           3.3271   -0.3260   24.5507 C.2     1  UNL1        0.2529
      6 O           3.2142   -0.4075   26.0442 O.2     1  UNL1       -0.2724
      7 C           4.4058   -0.9463   23.7129 C.3     1  UNL1        0.1391
      8 C           5.4111   -1.5055   22.7504 C.3     1  UNL1        0.0449
      9 C           6.5662   -2.3161   23.2591 C.3     1  UNL1        0.0746
     10 N           6.7158   -2.5675   24.7303 N.3     1  UNL1       -0.2676
     11 C           5.7104   -2.0083   25.6928 C.3     1  UNL1        0.0746
     12 C           4.5554   -1.1977   25.1841 C.3     1  UNL1        0.0449
     13 C           5.3883   -2.6599   19.1196 C.ar    1  UNL1        0.2293
     14 C           4.5615   -2.2404   20.2987 C.ar    1  UNL1        0.0924
     15 C           4.9533   -1.0331   21.0980 C.ar    1  UNL1        0.1453
     16 N           6.1720   -0.2454   20.7181 N.ar    1  UNL1       -0.2084
     17 C           6.9988   -0.6648   19.5391 C.ar    1  UNL1        0.2027
     18 N           6.6069   -1.8722   18.7397 N.ar    1  UNL1       -0.1892
     19 C           4.5379   -5.1128   19.0190 C.3     1  UNL1        0.2542
     20 O           4.9965   -3.8672   18.3202 O.3     1  UNL1       -0.4560
     21 C           1.1564    1.1502   24.0471 C.ar    1  UNL1        0.0622
     22 C           0.5761    0.9491   25.4156 C.ar    1  UNL1        0.0154
     23 C          -0.6488    1.7094   25.8299 C.ar    1  UNL1        0.0013
     24 C          -1.2933    2.6708   24.8759 C.ar    1  UNL1        0.0001
     25 C          -0.7130    2.8719   23.5073 C.ar    1  UNL1        0.0013
     26 C           0.5119    2.1116   23.0930 C.ar    1  UNL1        0.0154
     27 C          -2.5182    3.4310   25.2902 C.ar    1  UNL1        0.0000
     28 C          -2.6174    3.9954   26.6764 C.ar    1  UNL1        0.0000
     29 C          -3.8423    4.7557   27.0908 C.ar    1  UNL1        0.0015
     30 C          -4.9679    4.9515   26.1189 C.ar    1  UNL1        0.0194
     31 C          -4.8687    4.3871   24.7327 C.ar    1  UNL1        0.0015
     32 C          -3.6439    3.6269   24.3183 C.ar    1  UNL1        0.0000
     33 C          -6.1928    5.7118   26.5333 C.2     1  UNL1        0.1052
     34 C          -7.2284    6.2850   25.6119 C.2     1  UNL1        0.0820
     35 C          -8.2728    6.9598   26.4510 C.2     1  UNL1        0.2877
     36 O          -9.4931    7.6667   25.9399 O.2     1  UNL1       -0.2664
     37 N          -7.8826    6.8037   27.8909 N.am    1  UNL1       -0.0753
     38 N          -6.5971    6.0323   27.9418 N.2     1  UNL1       -0.1557
     39 C           7.8709   -3.3781   25.2389 C.3     1  UNL1        0.1183
     40 C           8.1897   -4.7039   24.6140 C.ar    1  UNL1        0.0712
     41 N           9.0201   -4.7647   23.3663 N.ar    1  UNL1       -0.2471
     42 C           9.3389   -6.0906   22.7413 C.ar    1  UNL1        0.0985
     43 C           8.8271   -7.3556   23.3640 C.ar    1  UNL1        0.0203
     44 C           7.9967   -7.2948   24.6117 C.ar    1  UNL1       -0.0015
     45 C           7.6780   -5.9691   25.2367 C.ar    1  UNL1       -0.0069
     46 C           6.8475   -5.9083   26.4843 C.3     1  UNL1        0.0323
@<TRIPOS>BOND
     1    19    20    1
     2    20    13    1
     3    13    14   ar
     4    14    15   ar
     5    15     1    1
     6     1     2   am
     7     2     3    2
     8     2     4   am
     9     4    21    1
    10    21    22   ar
    11    22    23   ar
    12    23    24   ar
    13    24    27    1
    14    27    28   ar
    15    28    29   ar
    16    29    30   ar
    17    30    33    1
    18    33    34    2
    19    34    35    1
    20    35    36    2
    21    35    37    1
    22    37    38    2
    23    30    31   ar
    24    31    32   ar
    25    24    25   ar
    26    25    26   ar
    27     4     5   am
    28     5     6    2
    29     5     7    1
    30     7     8    1
    31     8     9    1
    32     9    10    1
    33    10    39    1
    34    39    40    1
    35    40    41   ar
    36    41    42   ar
    37    42    43   ar
    38    43    44   ar
    39    44    45   ar
    40    45    46    1
    41    10    11    1
    42    11    12    1
    43    15    16   ar
    44    16    17   ar
    45    17    18   ar
    46    18    13   ar
    47     7     1    1
    48    45    40   ar
    49    26    21   ar
    50    12     7    1
    51    32    27   ar
    52    38    33    1
@<TRIPOS>MOLECULE
*****
 46 52 0 0 0
SMALL
GASTEIGER

@<TRIPOS>ATOM
      1 N           3.7807   -0.6173   24.2088 N.am    1  UNL1       -0.2222
      2 C           4.2036   -0.6407   25.6478 C.2     1  UNL1        0.3219
      3 O           5.4282   -1.3112   26.1961 O.2     1  UNL1       -0.2512
      4 N           3.1868    0.1243   26.4422 N.am    1  UNL1       -0.1907
      5 C           2.1356    0.6204   25.4942 C.2     1  UNL1        0.2529
      6 O           0.9291    1.4323   25.8619 O.2     1  UNL1       -0.2724
      7 C           2.5026    0.1621   24.1138 C.3     1  UNL1        0.1391
      8 C           2.9956   -0.3638   22.7984 C.3     1  UNL1        0.0449
      9 C           2.2206   -0.0907   21.5436 C.3     1  UNL1        0.0746
     10 N           0.9526    0.7084   21.6041 N.3     1  UNL1       -0.2676
     11 C           0.4596    1.2342   22.9195 C.3     1  UNL1        0.0746
     12 C           1.2346    0.9611   24.1744 C.3     1  UNL1        0.0449
     13 C           4.8573   -3.2840   21.4740 C.ar    1  UNL1        0.2293
     14 C           4.1298   -2.6409   22.6173 C.ar    1  UNL1        0.0924
     15 C           4.5082   -1.2604   23.0655 C.ar    1  UNL1        0.1453
     16 N           5.6141   -0.5229   22.3703 N.ar    1  UNL1       -0.2084
     17 C           6.3416   -1.1659   21.2271 C.ar    1  UNL1        0.2027
     18 N           5.9632   -2.5466   20.7789 N.ar    1  UNL1       -0.1892
     19 C           3.8010   -4.8640   19.7027 C.3     1  UNL1        0.2542
     20 O           4.4790   -4.6646   21.0257 O.3     1  UNL1       -0.4560
     21 C           3.2162    0.3530   27.9243 C.ar    1  UNL1        0.0622
     22 C           2.4165   -0.5304   28.8355 C.ar    1  UNL1        0.0154
     23 C           2.4459   -0.3017   30.3177 C.ar    1  UNL1        0.0013
     24 C           3.2749    0.8103   30.8887 C.ar    1  UNL1        0.0001
     25 C           4.0746    1.6937   29.9775 C.ar    1  UNL1        0.0013
     26 C           4.0452    1.4650   28.4954 C.ar    1  UNL1        0.0154
     27 C           3.3042    1.0390   32.3709 C.ar    1  UNL1        0.0000
     28 C           4.2556    0.2612   33.2311 C.ar    1  UNL1        0.0000
     29 C           4.2849    0.4898   34.7133 C.ar    1  UNL1        0.0015
     30 C           3.3629    1.4964   35.3352 C.ar    1  UNL1        0.0194
     31 C           2.4116    2.2742   34.4750 C.ar    1  UNL1        0.0015
     32 C           2.3822    2.0456   32.9929 C.ar    1  UNL1        0.0000
     33 C           3.3922    1.7251   36.8174 C.2     1  UNL1        0.1052
     34 C           4.6130    2.0077   37.6419 C.2     1  UNL1        0.0820
     35 C           4.1812    2.1685   39.0693 C.2     1  UNL1        0.2877
     36 O           5.0794    2.4612   40.2346 O.2     1  UNL1       -0.2664
     37 N           2.6936    1.9854   39.1271 N.am    1  UNL1       -0.0753
     38 N           2.2059    1.7113   37.7353 N.2     1  UNL1       -0.1557
     39 C           0.1776    0.9815   20.3492 C.3     1  UNL1        0.1183
     40 C          -0.3902    2.3474   20.1006 C.ar    1  UNL1        0.0712
     41 N          -1.7409    2.7085   20.6441 N.ar    1  UNL1       -0.2471
     42 C          -2.3087    4.0745   20.3955 C.ar    1  UNL1        0.0985
     43 C          -1.5258    5.0793   19.6035 C.ar    1  UNL1        0.0203
     44 C          -0.1752    4.7182   19.0600 C.ar    1  UNL1       -0.0015
     45 C           0.3926    3.3523   19.3085 C.ar    1  UNL1       -0.0069
     46 C           1.7433    2.9913   18.7650 C.3     1  UNL1        0.0323
@<TRIPOS>BOND
     1    19    20    1
     2    20    13    1
     3    13    14   ar
     4    14    15   ar
     5    15     1    1
     6     1     2   am
     7     2     3    2
     8     2     4   am
     9     4    21    1
    10    21    22   ar
    11    22    23   ar
    12    23    24   ar
    13    24    27    1
    14    27    28   ar
    15    28    29   ar
    16    29    30   ar
    17    30    33    1
    18    33    34    2
    19    34    35    1
    20    35    36    2
    21    35    37    1
    22    37    38    2
    23    30    31   ar
    24    31    32   ar
    25    24    25   ar
    26    25    26   ar
    27     4     5   am
    28     5     6    2
    29     5     7    1
    30     7     8    1
    31     8     9    1
    32     9    10    1
    33    10    39    1
    34    39    40    1
    35    40    41   ar
    36    41    42   ar
    37    42    43   ar
    38    43    44   ar
    39    44    45   ar
    40    45    46    1
    41    10    11    1
    42    11    12    1
    43    15    16   ar
    44    16    17   ar
    45    17    18   ar
    46    18    13   ar
    47     7     1    1
    48    45    40   ar
    49    26    21   ar
    50    12     7    1
    51    32    27   ar
    52    38    33    1
@<TRIPOS>MOLECULE
*****
 46 52 0 0 0
SMALL
GASTEIGER

@<TRIPOS>ATOM
      1 N           4.4756   -0.0560   27.5011 N.am    1  UNL1       -0.2222
      2 C           3.2555    0.7956   27.6921 C.2     1  UNL1        0.3219
      3 O           2.9361    1.6193   28.9043 O.2     1  UNL1       -0.2512
      4 N           2.4110    0.6789   26.4578 N.am    1  UNL1       -0.1907
      5 C           3.1090   -0.2448   25.5042 C.2     1  UNL1        0.2529
      6 O           2.6175   -0.6442   24.1445 O.2     1  UNL1       -0.2724
      7 C           4.3850   -0.6990   26.1489 C.3     1  UNL1        0.1391
      8 C           5.6206   -1.0646   26.9169 C.3     1  UNL1        0.0449
      9 C           6.6289   -1.9979   26.3151 C.3     1  UNL1        0.0746
     10 N           6.4017   -2.5656   24.9454 N.3     1  UNL1       -0.2676
     11 C           5.1662   -2.2000   24.1775 C.3     1  UNL1        0.0746
     12 C           4.1579   -1.2667   24.7792 C.3     1  UNL1        0.0449
     13 C           6.6042   -1.4637   30.5403 C.ar    1  UNL1        0.2293
     14 C           5.4894   -1.2863   29.5525 C.ar    1  UNL1        0.0924
     15 C           5.5903   -0.2334   28.4889 C.ar    1  UNL1        0.1453
     16 N           6.8060    0.6421   28.4132 N.ar    1  UNL1       -0.2084
     17 C           7.9207    0.4647   29.4009 C.ar    1  UNL1        0.2027
     18 N           7.8199   -0.5882   30.4646 N.ar    1  UNL1       -0.1892
     19 C           6.7443   -3.9563   31.2592 C.3     1  UNL1        0.2542
     20 O           6.5034   -2.5165   31.6040 O.3     1  UNL1       -0.4560
     21 C           1.0989    1.3653   26.2192 C.ar    1  UNL1        0.0622
     22 C           0.8260    2.0239   24.8994 C.ar    1  UNL1        0.0154
     23 C          -0.4862    2.7103   24.6608 C.ar    1  UNL1        0.0013
     24 C          -1.5255    2.7383   25.7420 C.ar    1  UNL1        0.0001
     25 C          -1.2527    2.0797   27.0619 C.ar    1  UNL1        0.0013
     26 C           0.0595    1.3933   27.3004 C.ar    1  UNL1        0.0154
     27 C          -2.8377    3.4247   25.5034 C.ar    1  UNL1        0.0000
     28 C          -3.6265    3.9587   26.6622 C.ar    1  UNL1        0.0000
     29 C          -4.9387    4.6452   26.4235 C.ar    1  UNL1        0.0015
     30 C          -5.4621    4.7976   25.0261 C.ar    1  UNL1        0.0194
     31 C          -4.6733    4.2636   23.8673 C.ar    1  UNL1        0.0015
     32 C          -3.3612    3.5772   24.1059 C.ar    1  UNL1        0.0000
     33 C          -6.7743    5.4841   24.7875 C.2     1  UNL1        0.1052
     34 C          -7.5582    6.2644   25.8007 C.2     1  UNL1        0.0820
     35 C          -8.8013    6.7733   25.1332 C.2     1  UNL1        0.2877
     36 O          -9.8721    7.6024   25.7782 O.2     1  UNL1       -0.2664
     37 N          -8.7858    6.3076   23.7074 N.am    1  UNL1       -0.0753
     38 N          -7.5329    5.5108   23.4937 N.2     1  UNL1       -0.1557
     39 C           7.4102   -3.4989   24.3437 C.3     1  UNL1        0.1183
     40 C           7.4842   -4.9235   24.8076 C.ar    1  UNL1        0.0712
     41 N           6.8941   -5.3130   26.1305 N.ar    1  UNL1       -0.2471
     42 C           6.9681   -6.7377   26.5943 C.ar    1  UNL1        0.0985
     43 C           7.6322   -7.7726   25.7354 C.ar    1  UNL1        0.0203
     44 C           8.2223   -7.3830   24.4125 C.ar    1  UNL1       -0.0015
     45 C           8.1483   -5.9585   23.9486 C.ar    1  UNL1       -0.0069
     46 C           8.7384   -5.5689   22.6257 C.3     1  UNL1        0.0323
@<TRIPOS>BOND
     1    19    20    1
     2    20    13    1
     3    13    14   ar
     4    14    15   ar
     5    15     1    1
     6     1     2   am
     7     2     3    2
     8     2     4   am
     9     4    21    1
    10    21    22   ar
    11    22    23   ar
    12    23    24   ar
    13    24    27    1
    14    27    28   ar
    15    28    29   ar
    16    29    30   ar
    17    30    33    1
    18    33    34    2
    19    34    35    1
    20    35    36    2
    21    35    37    1
    22    37    38    2
    23    30    31   ar
    24    31    32   ar
    25    24    25   ar
    26    25    26   ar
    27     4     5   am
    28     5     6    2
    29     5     7    1
    30     7     8    1
    31     8     9    1
    32     9    10    1
    33    10    39    1
    34    39    40    1
    35    40    41   ar
    36    41    42   ar
    37    42    43   ar
    38    43    44   ar
    39    44    45   ar
    40    45    46    1
    41    10    11    1
    42    11    12    1
    43    15    16   ar
    44    16    17   ar
    45    17    18   ar
    46    18    13   ar
    47     7     1    1
    48    45    40   ar
    49    26    21   ar
    50    12     7    1
    51    32    27   ar
    52    38    33    1
@<TRIPOS>MOLECULE
*****
 46 52 0 0 0
SMALL
GASTEIGER

@<TRIPOS>ATOM
      1 N           2.4676    1.0780   24.1159 N.am    1  UNL1       -0.2222
      2 C           2.3023    1.6432   25.4955 C.2     1  UNL1        0.3219
      3 O           1.6374    2.9423   25.8423 O.2     1  UNL1       -0.2512
      4 N           2.9186    0.6811   26.4675 N.am    1  UNL1       -0.1907
      5 C           3.4647   -0.4786   25.6885 C.2     1  UNL1        0.2529
      6 O           4.1664   -1.6738   26.2621 O.2     1  UNL1       -0.2724
      7 C           3.1860   -0.2333   24.2351 C.3     1  UNL1        0.1391
      8 C           2.8393    0.1464   22.8261 C.3     1  UNL1        0.0449
      9 C           3.2134   -0.7604   21.6913 C.3     1  UNL1        0.0746
     10 N           3.9341   -2.0470   21.9656 N.3     1  UNL1       -0.2676
     11 C           4.2808   -2.4267   23.3747 C.3     1  UNL1        0.0746
     12 C           3.9068   -1.5199   24.5094 C.3     1  UNL1        0.0449
     13 C           0.1020    2.1810   21.1263 C.ar    1  UNL1        0.2293
     14 C           0.5726    1.5463   22.4013 C.ar    1  UNL1        0.0924
     15 C           1.9970    1.7128   22.8408 C.ar    1  UNL1        0.1453
     16 N           2.9509    2.5141   22.0054 N.ar    1  UNL1       -0.2084
     17 C           2.4805    3.1488   20.7304 C.ar    1  UNL1        0.2027
     18 N           1.0559    2.9823   20.2908 N.ar    1  UNL1       -0.1892
     19 C          -2.2596    3.1852   20.7216 C.3     1  UNL1        0.2542
     20 O          -1.3224    2.0146   20.6867 O.3     1  UNL1       -0.4560
     21 C           2.9782    0.8492   27.9567 C.ar    1  UNL1        0.0622
     22 C           2.2878   -0.1373   28.8511 C.ar    1  UNL1        0.0154
     23 C           2.3474    0.0308   30.3405 C.ar    1  UNL1        0.0013
     24 C           3.0975    1.1855   30.9355 C.ar    1  UNL1        0.0001
     25 C           3.7880    2.1722   30.0410 C.ar    1  UNL1        0.0013
     26 C           3.7283    2.0039   28.5517 C.ar    1  UNL1        0.0154
     27 C           3.1572    1.3537   32.4248 C.ar    1  UNL1        0.0000
     28 C           4.1099    0.5260   33.2355 C.ar    1  UNL1        0.0000
     29 C           4.1696    0.6941   34.7248 C.ar    1  UNL1        0.0015
     30 C           3.2764    1.6900   35.4035 C.ar    1  UNL1        0.0194
     31 C           2.3237    2.5177   34.5928 C.ar    1  UNL1        0.0015
     32 C           2.2640    2.3496   33.1035 C.ar    1  UNL1        0.0000
     33 C           3.3361    1.8581   36.8928 C.2     1  UNL1        0.1052
     34 C           4.5680    2.1451   37.6991 C.2     1  UNL1        0.0820
     35 C           4.1675    2.2332   39.1419 C.2     1  UNL1        0.2877
     36 O           5.0854    2.5059   40.2966 O.2     1  UNL1       -0.2664
     37 N           2.6881    2.0006   39.2275 N.am    1  UNL1       -0.0753
     38 N           2.1742    1.7688   37.8374 N.2     1  UNL1       -0.1557
     39 C           4.3081   -2.9538   20.8307 C.3     1  UNL1        0.1183
     40 C           5.6332   -2.7919   20.1468 C.ar    1  UNL1        0.0712
     41 N           6.8942   -3.2027   20.8476 N.ar    1  UNL1       -0.2471
     42 C           8.2193   -3.0407   20.1636 C.ar    1  UNL1        0.0985
     43 C           8.2835   -2.4680   18.7787 C.ar    1  UNL1        0.0203
     44 C           7.0225   -2.0572   18.0779 C.ar    1  UNL1       -0.0015
     45 C           5.6974   -2.2191   18.7619 C.ar    1  UNL1       -0.0069
     46 C           4.4364   -1.8083   18.0610 C.3     1  UNL1        0.0323
@<TRIPOS>BOND
     1    19    20    1
     2    20    13    1
     3    13    14   ar
     4    14    15   ar
     5    15     1    1
     6     1     2   am
     7     2     3    2
     8     2     4   am
     9     4    21    1
    10    21    22   ar
    11    22    23   ar
    12    23    24   ar
    13    24    27    1
    14    27    28   ar
    15    28    29   ar
    16    29    30   ar
    17    30    33    1
    18    33    34    2
    19    34    35    1
    20    35    36    2
    21    35    37    1
    22    37    38    2
    23    30    31   ar
    24    31    32   ar
    25    24    25   ar
    26    25    26   ar
    27     4     5   am
    28     5     6    2
    29     5     7    1
    30     7     8    1
    31     8     9    1
    32     9    10    1
    33    10    39    1
    34    39    40    1
    35    40    41   ar
    36    41    42   ar
    37    42    43   ar
    38    43    44   ar
    39    44    45   ar
    40    45    46    1
    41    10    11    1
    42    11    12    1
    43    15    16   ar
    44    16    17   ar
    45    17    18   ar
    46    18    13   ar
    47     7     1    1
    48    45    40   ar
    49    26    21   ar
    50    12     7    1
    51    32    27   ar
    52    38    33    1
