@<TRIPOS>MOLECULE
*****
 42 46 0 0 0
SMALL
GASTEIGER

@<TRIPOS>ATOM
      1 C           6.7338   -4.1917   31.2026 C.2     1  UNL1        0.2252
      2 O           6.8737   -5.5766   31.7615 O.2     1  UNL1       -0.2749
      3 N           6.6334   -3.9879   29.7199 N.am    1  UNL1       -0.2794
      4 C           6.6730   -5.1691   28.7962 C.3     1  UNL1        0.0953
      5 C           6.5726   -4.9653   27.3134 C.3     1  UNL1        0.0442
      6 C           6.4327   -3.5803   26.7545 C.3     1  UNL1        0.0933
      7 C           6.3931   -2.3992   27.6783 C.3     1  UNL1        0.0442
      8 C           6.4935   -2.6030   29.1610 C.3     1  UNL1        0.0953
      9 N           6.3323   -3.3765   25.2718 N.ar    1  UNL1       -0.2817
     10 C           5.3502   -2.4872   24.5685 C.ar    1  UNL1        0.3315
     11 O           4.2960   -1.6456   25.2245 O.2     1  UNL1       -0.2463
     12 N           5.6074   -2.5874   23.0941 N.ar    1  UNL1       -0.2799
     13 C           6.7485   -3.5385   22.8862 C.ar    1  UNL1        0.0819
     14 C           7.4375   -4.0235   21.6452 C.ar    1  UNL1        0.0484
     15 C           8.5744   -4.9962   21.7501 C.ar    1  UNL1        0.1417
     16 F           9.2634   -5.4813   20.5091 F       1  UNL1       -0.2041
     17 C           9.0225   -5.4839   23.0960 C.ar    1  UNL1        0.0312
     18 C           8.3335   -4.9989   24.3370 C.ar    1  UNL1        0.0211
     19 C           7.1965   -4.0262   24.2321 C.ar    1  UNL1        0.0798
     20 C           4.8556   -1.8634   22.0168 C.3     1  UNL1        0.1109
     21 C           3.9153   -2.6164   21.1228 C.3     1  UNL1        0.0334
     22 C           4.1539   -2.6506   19.6423 C.3     1  UNL1        0.1053
     23 C           4.4252   -3.9567   18.9564 C.3     1  UNL1        0.3978
     24 F           4.6963   -5.2629   18.2705 F       1  UNL1       -0.1700
     25 F           2.9969   -4.3640   19.1673 F       1  UNL1       -0.1700
     26 F           5.8533   -3.5495   18.7455 F       1  UNL1       -0.1700
     27 N           6.6150   -0.6483   33.9739 N.3     1  UNL1       -0.2689
     28 C           7.9181   -1.0894   33.3758 C.3     1  UNL1        0.0729
     29 C           7.9577   -2.2705   32.4520 C.3     1  UNL1        0.0264
     30 C           6.6942   -3.0106   32.1264 C.3     1  UNL1        0.0795
     31 C           5.3912   -2.5696   32.7245 C.3     1  UNL1        0.0264
     32 C           5.3516   -1.3885   33.6483 C.3     1  UNL1        0.0729
     33 C           6.5755    0.5328   34.8977 C.3     1  UNL1        0.0993
     34 N           3.1756    0.5857   38.8269 N.pl3   1  UNL1       -0.3426
     35 C           3.5696    1.0130   37.4440 C.ar    1  UNL1        0.1251
     36 C           4.8756    0.5592   36.8622 C.ar    1  UNL1        0.0310
     37 C           5.2695    0.9866   35.4794 C.ar    1  UNL1       -0.0018
     38 C           4.3574    1.8678   34.6784 C.ar    1  UNL1        0.0179
     39 C           3.0514    2.3215   35.2601 C.ar    1  UNL1        0.1000
     40 N           2.6575    1.8942   36.6430 N.ar    1  UNL1       -0.2296
     41 H           3.7742    0.0074   39.3527 H       1  UNL1        0.1437
     42 H           2.3184    0.8836   39.2087 H       1  UNL1        0.1437
@<TRIPOS>BOND
     1    34    35    1
     2    35    36   ar
     3    36    37   ar
     4    37    33    1
     5    33    27    1
     6    27    28    1
     7    28    29    1
     8    29    30    1
     9    30     1    1
    10     1     2    2
    11     1     3   am
    12     3     4    1
    13     4     5    1
    14     5     6    1
    15     6     9    1
    16     9    10   ar
    17    10    11    2
    18    10    12   ar
    19    12    20    1
    20    20    21    1
    21    21    22    1
    22    22    23    1
    23    23    24    1
    24    23    25    1
    25    23    26    1
    26    12    13   ar
    27    13    14   ar
    28    14    15   ar
    29    15    16    1
    30    15    17   ar
    31    17    18   ar
    32    18    19   ar
    33     6     7    1
    34     7     8    1
    35    30    31    1
    36    31    32    1
    37    37    38   ar
    38    38    39   ar
    39    39    40   ar
    40    40    35   ar
    41    32    27    1
    42     8     3    1
    43    19     9   ar
    44    19    13   ar
    45    34    41    1
    46    34    42    1
@<TRIPOS>MOLECULE
*****
 42 46 0 0 0
SMALL
GASTEIGER

@<TRIPOS>ATOM
      1 C           1.9677    0.1012   28.9179 C.2     1  UNL1        0.2252
      2 O           2.2796   -1.2619   28.3753 O.2     1  UNL1       -0.2749
      3 N           2.4003    0.4732   30.3051 N.am    1  UNL1       -0.2794
      4 C           3.1447   -0.5180   31.1497 C.3     1  UNL1        0.0953
      5 C           3.5772   -0.1460   32.5370 C.3     1  UNL1        0.0442
      6 C           3.2653    1.2172   33.0797 C.3     1  UNL1        0.0933
      7 C           2.5209    2.2083   32.2351 C.3     1  UNL1        0.0442
      8 C           2.0884    1.8363   30.8478 C.3     1  UNL1        0.0953
      9 N           3.6979    1.5892   34.4670 N.ar    1  UNL1       -0.2817
     10 C           2.9692    2.5097   35.4007 C.ar    1  UNL1        0.3315
     11 O           1.6801    3.2198   35.1111 O.2     1  UNL1       -0.2463
     12 N           3.7561    2.5953   36.6749 N.ar    1  UNL1       -0.2799
     13 C           4.9710    1.7278   36.5287 C.ar    1  UNL1        0.0819
     14 C           6.1054    1.4238   37.4617 C.ar    1  UNL1        0.0484
     15 C           7.2038    0.4979   37.0303 C.ar    1  UNL1        0.1417
     16 F           8.3383    0.1938   37.9634 F       1  UNL1       -0.2041
     17 C           7.1678   -0.1239   35.6657 C.ar    1  UNL1        0.0312
     18 C           6.0335    0.1801   34.7326 C.ar    1  UNL1        0.0211
     19 C           4.9351    1.1060   35.1641 C.ar    1  UNL1        0.0798
     20 C           3.3920    3.4061   37.8832 C.3     1  UNL1        0.1109
     21 C           2.8611    2.7263   39.1105 C.3     1  UNL1        0.0334
     22 C           1.4661    2.1750   39.1184 C.3     1  UNL1        0.1053
     23 C           1.2284    0.7415   39.4906 C.3     1  UNL1        0.3978
     24 F           0.9908   -0.6920   39.8628 F       1  UNL1       -0.1700
     25 F           1.9777    0.3000   38.2684 F       1  UNL1       -0.1700
     26 F           0.4792    1.1830   40.7128 F       1  UNL1       -0.1700
     27 N          -0.2656    3.0748   26.3841 N.3     1  UNL1       -0.2689
     28 C           1.2344    3.0757   26.3951 C.3     1  UNL1        0.0729
     29 C           1.9789    2.0845   27.2397 C.3     1  UNL1        0.0264
     30 C           1.2233    1.0924   28.0733 C.3     1  UNL1        0.0795
     31 C          -0.2767    1.0914   28.0623 C.3     1  UNL1        0.0264
     32 C          -1.0211    2.0826   27.2177 C.3     1  UNL1        0.0729
     33 C          -1.0100    4.0660   25.5395 C.3     1  UNL1        0.0993
     34 N          -5.5238    2.9986   23.1971 N.pl3   1  UNL1       -0.3426
     35 C          -4.7668    3.5438   24.3717 C.ar    1  UNL1        0.1251
     36 C          -3.2668    3.5323   24.3683 C.ar    1  UNL1        0.0310
     37 C          -2.5099    4.0775   25.5430 C.ar    1  UNL1       -0.0018
     38 C          -3.2530    4.6342   26.7211 C.ar    1  UNL1        0.0179
     39 C          -4.7529    4.6457   26.7245 C.ar    1  UNL1        0.1000
     40 N          -5.5098    4.1005   25.5498 N.ar    1  UNL1       -0.2296
     41 H          -5.0361    2.6332   22.4238 H       1  UNL1        0.1437
     42 H          -6.5083    3.0062   23.1994 H       1  UNL1        0.1437
@<TRIPOS>BOND
     1    34    35    1
     2    35    36   ar
     3    36    37   ar
     4    37    33    1
     5    33    27    1
     6    27    28    1
     7    28    29    1
     8    29    30    1
     9    30     1    1
    10     1     2    2
    11     1     3   am
    12     3     4    1
    13     4     5    1
    14     5     6    1
    15     6     9    1
    16     9    10   ar
    17    10    11    2
    18    10    12   ar
    19    12    20    1
    20    20    21    1
    21    21    22    1
    22    22    23    1
    23    23    24    1
    24    23    25    1
    25    23    26    1
    26    12    13   ar
    27    13    14   ar
    28    14    15   ar
    29    15    16    1
    30    15    17   ar
    31    17    18   ar
    32    18    19   ar
    33     6     7    1
    34     7     8    1
    35    30    31    1
    36    31    32    1
    37    37    38   ar
    38    38    39   ar
    39    39    40   ar
    40    40    35   ar
    41    32    27    1
    42     8     3    1
    43    19     9   ar
    44    19    13   ar
    45    34    41    1
    46    34    42    1
@<TRIPOS>MOLECULE
*****
 42 46 0 0 0
SMALL
GASTEIGER

@<TRIPOS>ATOM
      1 C           3.1931   -0.2494   30.6578 C.2     1  UNL1        0.2252
      2 O           1.7723    0.2222   30.5639 O.2     1  UNL1       -0.2749
      3 N           3.8710   -0.8320   29.4532 N.am    1  UNL1       -0.2794
      4 C           3.1281   -0.9430   28.1548 C.3     1  UNL1        0.0953
      5 C           3.8060   -1.5255   26.9502 C.3     1  UNL1        0.0442
      6 C           5.2269   -1.9972   27.0440 C.3     1  UNL1        0.0933
      7 C           5.9698   -1.8862   28.3423 C.3     1  UNL1        0.0442
      8 C           5.2919   -1.3036   29.5469 C.3     1  UNL1        0.0953
      9 N           5.9048   -2.5798   25.8394 N.ar    1  UNL1       -0.2817
     10 C           6.0894   -1.8985   24.5159 C.ar    1  UNL1        0.3315
     11 O           5.6285   -0.5149   24.1645 O.2     1  UNL1       -0.2463
     12 N           6.8158   -2.8436   23.6054 N.ar    1  UNL1       -0.2799
     13 C           7.0802   -4.1090   24.3662 C.ar    1  UNL1        0.0819
     14 C           7.7609   -5.3887   23.9801 C.ar    1  UNL1        0.0484
     15 C           7.8785   -6.5053   24.9747 C.ar    1  UNL1        0.1417
     16 F           8.5592   -7.7851   24.5886 F       1  UNL1       -0.2041
     17 C           7.3155   -6.3423   26.3554 C.ar    1  UNL1        0.0312
     18 C           6.6348   -5.0626   26.7415 C.ar    1  UNL1        0.0211
     19 C           6.5172   -3.9460   25.7469 C.ar    1  UNL1        0.0798
     20 C           7.2089   -2.5712   22.1837 C.3     1  UNL1        0.1109
     21 C           6.7176   -3.4665   21.0849 C.3     1  UNL1        0.0334
     22 C           5.4791   -3.1048   20.3200 C.3     1  UNL1        0.1053
     23 C           4.9233   -4.0542   19.3003 C.3     1  UNL1        0.3978
     24 F           4.3675   -5.0036   18.2807 F       1  UNL1       -0.1700
     25 F           4.1521   -4.7588   20.3769 F       1  UNL1       -0.1700
     26 F           5.6945   -3.3496   18.2239 F       1  UNL1       -0.1700
     27 N           5.4219    0.0834   34.5528 N.3     1  UNL1       -0.2689
     28 C           5.2796    1.2842   33.6651 C.3     1  UNL1        0.0729
     29 C           4.5367    1.1733   32.3668 C.3     1  UNL1        0.0264
     30 C           3.9360   -0.1385   31.9561 C.3     1  UNL1        0.0795
     31 C           4.0783   -1.3392   32.8438 C.3     1  UNL1        0.0264
     32 C           4.8212   -1.2283   34.1421 C.3     1  UNL1        0.0729
     33 C           6.1648    0.1944   35.8512 C.3     1  UNL1        0.0993
     34 N           2.0248    0.8690   38.9181 N.pl3   1  UNL1       -0.3426
     35 C           3.4467    1.1915   38.5655 C.ar    1  UNL1        0.1251
     36 C           4.0949    0.5317   37.3846 C.ar    1  UNL1        0.0310
     37 C           5.5167    0.8542   37.0321 C.ar    1  UNL1       -0.0018
     38 C           6.2905    1.8365   37.8606 C.ar    1  UNL1        0.0179
     39 C           5.6424    2.4962   39.0416 C.ar    1  UNL1        0.1000
     40 N           4.2205    2.1737   39.3940 N.ar    1  UNL1       -0.2296
     41 H           1.5169    0.2243   38.3743 H       1  UNL1        0.1437
     42 H           1.5995    1.3021   39.6932 H       1  UNL1        0.1437
@<TRIPOS>BOND
     1    34    35    1
     2    35    36   ar
     3    36    37   ar
     4    37    33    1
     5    33    27    1
     6    27    28    1
     7    28    29    1
     8    29    30    1
     9    30     1    1
    10     1     2    2
    11     1     3   am
    12     3     4    1
    13     4     5    1
    14     5     6    1
    15     6     9    1
    16     9    10   ar
    17    10    11    2
    18    10    12   ar
    19    12    20    1
    20    20    21    1
    21    21    22    1
    22    22    23    1
    23    23    24    1
    24    23    25    1
    25    23    26    1
    26    12    13   ar
    27    13    14   ar
    28    14    15   ar
    29    15    16    1
    30    15    17   ar
    31    17    18   ar
    32    18    19   ar
    33     6     7    1
    34     7     8    1
    35    30    31    1
    36    31    32    1
    37    37    38   ar
    38    38    39   ar
    39    39    40   ar
    40    40    35   ar
    41    32    27    1
    42     8     3    1
    43    19     9   ar
    44    19    13   ar
    45    34    41    1
    46    34    42    1
@<TRIPOS>MOLECULE
*****
 42 46 0 0 0
SMALL
GASTEIGER

@<TRIPOS>ATOM
      1 C           6.5302   -4.1947   31.1385 C.2     1  UNL1        0.2252
      2 O           6.5782   -5.4994   31.8769 O.2     1  UNL1       -0.2749
      3 N           5.8803   -2.9992   31.7698 N.am    1  UNL1       -0.2794
      4 C           5.2784   -3.1086   33.1394 C.3     1  UNL1        0.0953
      5 C           4.6284   -1.9131   33.7706 C.3     1  UNL1        0.0442
      6 C           4.5804   -0.6083   33.0322 C.3     1  UNL1        0.0933
      7 C           5.1823   -0.4990   31.6627 C.3     1  UNL1        0.0442
      8 C           5.8322   -1.6944   31.0315 C.3     1  UNL1        0.0953
      9 N           3.9304    0.5872   33.6635 N.ar    1  UNL1       -0.2817
     10 C           4.2525    1.1556   35.0137 C.ar    1  UNL1        0.3315
     11 O           5.2811    0.6284   35.9698 O.2     1  UNL1       -0.2463
     12 N           3.3654    2.3438   35.2400 N.ar    1  UNL1       -0.2799
     13 C           2.4951    2.5097   34.0296 C.ar    1  UNL1        0.0819
     14 C           1.4297    3.5091   33.6889 C.ar    1  UNL1        0.0484
     15 C           0.7135    3.4228   32.3737 C.ar    1  UNL1        0.1417
     16 F          -0.3519    4.4222   32.0329 F       1  UNL1       -0.2041
     17 C           1.0627    2.3371   31.3994 C.ar    1  UNL1        0.0312
     18 C           2.1281    1.3378   31.7402 C.ar    1  UNL1        0.0211
     19 C           2.8442    1.4241   33.0553 C.ar    1  UNL1        0.0798
     20 C           3.3512    3.2135   36.4621 C.3     1  UNL1        0.1109
     21 C           3.2501    2.5921   37.8237 C.3     1  UNL1        0.0334
     22 C           1.9042    2.3560   38.4423 C.3     1  UNL1        0.1053
     23 C           1.5172    0.9786   38.8928 C.3     1  UNL1        0.3978
     24 F           1.1300   -0.3987   39.3434 F       1  UNL1       -0.1700
     25 F           0.1934    1.5046   39.3633 F       1  UNL1       -0.1700
     26 F           2.8408    0.4527   38.4224 F       1  UNL1       -0.1700
     27 N           8.3359   -3.8666   27.0298 N.3     1  UNL1       -0.2689
     28 C           9.2174   -3.8180   28.2426 C.3     1  UNL1        0.0729
     29 C           8.6155   -3.9274   29.6121 C.3     1  UNL1        0.0264
     30 C           7.1321   -4.0853   29.7690 C.3     1  UNL1        0.0795
     31 C           6.2506   -4.1339   28.5563 C.3     1  UNL1        0.0264
     32 C           6.8525   -4.0246   27.1867 C.3     1  UNL1        0.0729
     33 C           8.9378   -3.7573   25.6602 C.3     1  UNL1        0.0993
     34 N           9.2242   -5.6264   20.8204 N.pl3   1  UNL1       -0.3426
     35 C           8.9868   -5.8447   22.2853 C.ar    1  UNL1        0.1251
     36 C           9.0810   -4.6918   23.2404 C.ar    1  UNL1        0.0310
     37 C           8.8435   -4.9101   24.7053 C.ar    1  UNL1       -0.0018
     38 C           8.5118   -6.2813   25.2152 C.ar    1  UNL1        0.0179
     39 C           8.4176   -7.4341   24.2601 C.ar    1  UNL1        0.1000
     40 N           8.6551   -7.2158   22.7952 N.ar    1  UNL1       -0.2296
     41 H           9.4419   -4.7265   20.4857 H       1  UNL1        0.1437
     42 H           9.1623   -6.3831   20.1936 H       1  UNL1        0.1437
@<TRIPOS>BOND
     1    34    35    1
     2    35    36   ar
     3    36    37   ar
     4    37    33    1
     5    33    27    1
     6    27    28    1
     7    28    29    1
     8    29    30    1
     9    30     1    1
    10     1     2    2
    11     1     3   am
    12     3     4    1
    13     4     5    1
    14     5     6    1
    15     6     9    1
    16     9    10   ar
    17    10    11    2
    18    10    12   ar
    19    12    20    1
    20    20    21    1
    21    21    22    1
    22    22    23    1
    23    23    24    1
    24    23    25    1
    25    23    26    1
    26    12    13   ar
    27    13    14   ar
    28    14    15   ar
    29    15    16    1
    30    15    17   ar
    31    17    18   ar
    32    18    19   ar
    33     6     7    1
    34     7     8    1
    35    30    31    1
    36    31    32    1
    37    37    38   ar
    38    38    39   ar
    39    39    40   ar
    40    40    35   ar
    41    32    27    1
    42     8     3    1
    43    19     9   ar
    44    19    13   ar
    45    34    41    1
    46    34    42    1
@<TRIPOS>MOLECULE
*****
 42 46 0 0 0
SMALL
GASTEIGER

@<TRIPOS>ATOM
      1 C           1.9474    0.2305   28.6517 C.2     1  UNL1        0.2252
      2 O           2.5784   -1.0684   28.2464 O.2     1  UNL1       -0.2749
      3 N           2.1280    0.7486   30.0478 N.am    1  UNL1       -0.2794
      4 C           2.9396   -0.0323   31.0384 C.3     1  UNL1        0.0953
      5 C           3.1202    0.4857   32.4345 C.3     1  UNL1        0.0442
      6 C           2.4891    1.7848   32.8399 C.3     1  UNL1        0.0933
      7 C           1.6775    2.5656   31.8493 C.3     1  UNL1        0.0442
      8 C           1.4969    2.0476   30.4532 C.3     1  UNL1        0.0953
      9 N           2.6697    2.3029   34.2360 N.ar    1  UNL1       -0.2817
     10 C           3.5000    1.6676   35.3116 C.ar    1  UNL1        0.3315
     11 O           4.2956    0.4027   35.1801 O.2     1  UNL1       -0.2463
     12 N           3.3952    2.5193   36.5419 N.ar    1  UNL1       -0.2799
     13 C           2.5000    3.6809   36.2267 C.ar    1  UNL1        0.0819
     14 C           2.0353    4.8431   37.0532 C.ar    1  UNL1        0.0484
     15 C           1.1222    5.8716   36.4545 C.ar    1  UNL1        0.1417
     16 F           0.6574    7.0339   37.2810 F       1  UNL1       -0.2041
     17 C           0.6738    5.7379   35.0294 C.ar    1  UNL1        0.0312
     18 C           1.1386    4.5756   34.2029 C.ar    1  UNL1        0.0211
     19 C           2.0517    3.5471   34.8015 C.ar    1  UNL1        0.0798
     20 C           4.0674    2.2557   37.8567 C.3     1  UNL1        0.1109
     21 C           3.5406    1.1864   38.7674 C.3     1  UNL1        0.0334
     22 C           2.1004    0.7748   38.6864 C.3     1  UNL1        0.1053
     23 C           1.2207    0.8820   39.8965 C.3     1  UNL1        0.3978
     24 F           0.3409    0.9893   41.1066 F       1  UNL1       -0.1700
     25 F           1.3751    2.3740   39.8765 F       1  UNL1       -0.1700
     26 F           1.0663   -0.6099   39.9165 F       1  UNL1       -0.1700
     27 N          -0.4876    2.5733   25.6798 N.3     1  UNL1       -0.2689
     28 C           1.0045    2.7247   25.7123 C.3     1  UNL1        0.0729
     29 C           1.8161    1.9438   26.7030 C.3     1  UNL1        0.0264
     30 C           1.1357    1.0115   27.6611 C.3     1  UNL1        0.0795
     31 C          -0.3563    0.8601   27.6286 C.3     1  UNL1        0.0264
     32 C          -1.1679    1.6411   26.6379 C.3     1  UNL1        0.0729
     33 C          -1.2992    3.3543   24.6892 C.3     1  UNL1        0.0993
     34 N          -6.3629    3.6053   23.5507 N.pl3   1  UNL1       -0.3426
     35 C          -5.2210    3.9209   24.4708 C.ar    1  UNL1        0.1251
     36 C          -3.8310    3.4798   24.1199 C.ar    1  UNL1        0.0310
     37 C          -2.6892    3.7955   25.0401 C.ar    1  UNL1       -0.0018
     38 C          -2.9375    4.5523   26.3111 C.ar    1  UNL1        0.0179
     39 C          -4.3275    4.9934   26.6620 C.ar    1  UNL1        0.1000
     40 N          -5.4693    4.6778   25.7418 N.ar    1  UNL1       -0.2296
     41 H          -6.2000    3.1085   22.7164 H       1  UNL1        0.1437
     42 H          -7.2752    3.8948   23.7810 H       1  UNL1        0.1437
@<TRIPOS>BOND
     1    34    35    1
     2    35    36   ar
     3    36    37   ar
     4    37    33    1
     5    33    27    1
     6    27    28    1
     7    28    29    1
     8    29    30    1
     9    30     1    1
    10     1     2    2
    11     1     3   am
    12     3     4    1
    13     4     5    1
    14     5     6    1
    15     6     9    1
    16     9    10   ar
    17    10    11    2
    18    10    12   ar
    19    12    20    1
    20    20    21    1
    21    21    22    1
    22    22    23    1
    23    23    24    1
    24    23    25    1
    25    23    26    1
    26    12    13   ar
    27    13    14   ar
    28    14    15   ar
    29    15    16    1
    30    15    17   ar
    31    17    18   ar
    32    18    19   ar
    33     6     7    1
    34     7     8    1
    35    30    31    1
    36    31    32    1
    37    37    38   ar
    38    38    39   ar
    39    39    40   ar
    40    40    35   ar
    41    32    27    1
    42     8     3    1
    43    19     9   ar
    44    19    13   ar
    45    34    41    1
    46    34    42    1
@<TRIPOS>MOLECULE
*****
 42 46 0 0 0
SMALL
GASTEIGER

@<TRIPOS>ATOM
      1 C           3.8600   -0.5669   17.9702 C.2     1  UNL1        0.2252
      2 O           4.1147   -1.0692   16.5800 O.2     1  UNL1       -0.2749
      3 N           4.4934   -1.2539   19.1436 N.am    1  UNL1       -0.2794
      4 C           5.3815   -2.4431   18.9267 C.3     1  UNL1        0.0953
      5 C           6.0149   -3.1300   20.1001 C.3     1  UNL1        0.0442
      6 C           5.7602   -2.6278   21.4905 C.3     1  UNL1        0.0933
      7 C           4.8721   -1.4386   21.7073 C.3     1  UNL1        0.0442
      8 C           4.2387   -0.7517   20.5339 C.3     1  UNL1        0.0953
      9 N           6.3936   -3.3148   22.6639 N.ar    1  UNL1       -0.2817
     10 C           7.3675   -4.4537   22.5984 C.ar    1  UNL1        0.3315
     11 O           7.8790   -5.1057   21.3481 O.2     1  UNL1       -0.2463
     12 N           7.7401   -4.8262   24.0029 N.ar    1  UNL1       -0.2799
     13 C           6.9965   -3.9175   24.9363 C.ar    1  UNL1        0.0819
     14 C           6.9696   -3.8200   26.4328 C.ar    1  UNL1        0.0484
     15 C           6.1105   -2.7883   27.1018 C.ar    1  UNL1        0.1417
     16 F           6.0836   -2.6907   28.5985 F       1  UNL1       -0.2041
     17 C           5.2783   -1.8541   26.2743 C.ar    1  UNL1        0.0312
     18 C           5.3052   -1.9517   24.7777 C.ar    1  UNL1        0.0211
     19 C           6.1643   -2.9833   24.1087 C.ar    1  UNL1        0.0798
     20 C           8.6896   -5.9161   24.4036 C.3     1  UNL1        0.1109
     21 C           8.2088   -7.3341   24.4936 C.3     1  UNL1        0.0334
     22 C           8.2013   -8.0409   25.8167 C.3     1  UNL1        0.1053
     23 C           7.8273   -7.2951   27.0632 C.3     1  UNL1        0.3978
     24 F           7.4535   -6.5494   28.3098 F       1  UNL1       -0.1700
     25 F           9.2202   -7.4768   27.5897 F       1  UNL1       -0.1700
     26 F           6.4346   -7.1135   26.5368 F       1  UNL1       -0.1700
     27 N           1.1956    3.0006   18.6208 N.3     1  UNL1       -0.2689
     28 C           2.6823    3.1806   18.5349 C.3     1  UNL1        0.0729
     29 C           3.5705    1.9914   18.3180 C.3     1  UNL1        0.0264
     30 C           2.9718    0.6223   18.1871 C.3     1  UNL1        0.0795
     31 C           1.4852    0.4423   18.2730 C.3     1  UNL1        0.0264
     32 C           0.5970    1.6315   18.4899 C.3     1  UNL1        0.0729
     33 C           0.3074    4.1898   18.8377 C.3     1  UNL1        0.0993
     34 N          -4.1491    2.8129   21.1276 N.pl3   1  UNL1       -0.3426
     35 C          -3.4116    3.3430   19.9338 C.ar    1  UNL1        0.1251
     36 C          -1.9208    3.5014   19.9826 C.ar    1  UNL1        0.0310
     37 C          -1.1834    4.0314   18.7888 C.ar    1  UNL1       -0.0018
     38 C          -1.9367    4.4031   17.5461 C.ar    1  UNL1        0.0179
     39 C          -3.4275    4.2447   17.4972 C.ar    1  UNL1        0.1000
     40 N          -4.1650    3.7146   18.6911 N.ar    1  UNL1       -0.2296
     41 H          -3.6547    2.5690   21.9432 H       1  UNL1        0.1437
     42 H          -5.1276    2.7090   21.0955 H       1  UNL1        0.1437
@<TRIPOS>BOND
     1    34    35    1
     2    35    36   ar
     3    36    37   ar
     4    37    33    1
     5    33    27    1
     6    27    28    1
     7    28    29    1
     8    29    30    1
     9    30     1    1
    10     1     2    2
    11     1     3   am
    12     3     4    1
    13     4     5    1
    14     5     6    1
    15     6     9    1
    16     9    10   ar
    17    10    11    2
    18    10    12   ar
    19    12    20    1
    20    20    21    1
    21    21    22    1
    22    22    23    1
    23    23    24    1
    24    23    25    1
    25    23    26    1
    26    12    13   ar
    27    13    14   ar
    28    14    15   ar
    29    15    16    1
    30    15    17   ar
    31    17    18   ar
    32    18    19   ar
    33     6     7    1
    34     7     8    1
    35    30    31    1
    36    31    32    1
    37    37    38   ar
    38    38    39   ar
    39    39    40   ar
    40    40    35   ar
    41    32    27    1
    42     8     3    1
    43    19     9   ar
    44    19    13   ar
    45    34    41    1
    46    34    42    1
@<TRIPOS>MOLECULE
*****
 42 46 0 0 0
SMALL
GASTEIGER

@<TRIPOS>ATOM
      1 C           0.2792    1.1143   27.6703 C.2     1  UNL1        0.2252
      2 O          -1.1809    1.4333   27.7979 O.2     1  UNL1       -0.2749
      3 N           0.9252    1.0863   26.3169 N.am    1  UNL1       -0.2794
      4 C           0.1112    1.3775   25.0911 C.3     1  UNL1        0.0953
      5 C           0.7573    1.3495   23.7376 C.3     1  UNL1        0.0442
      6 C           2.2175    1.0304   23.6100 C.3     1  UNL1        0.0933
      7 C           3.0314    0.7393   24.8358 C.3     1  UNL1        0.0442
      8 C           2.3853    0.7673   26.1893 C.3     1  UNL1        0.0953
      9 N           2.8636    1.0025   22.2566 N.ar    1  UNL1       -0.2817
     10 C           3.8308   -0.0321   21.7625 C.ar    1  UNL1        0.3315
     11 O           4.3217   -1.2205   22.5350 O.2     1  UNL1       -0.2463
     12 N           4.2208    0.3303   20.3601 N.ar    1  UNL1       -0.2799
     13 C           3.4948    1.5889   19.9876 C.ar    1  UNL1        0.0819
     14 C           3.4890    2.4102   18.7325 C.ar    1  UNL1        0.0484
     15 C           2.6445    3.6471   18.6495 C.ar    1  UNL1        0.1417
     16 F           2.6388    4.4685   17.3944 F       1  UNL1       -0.2041
     17 C           1.8057    4.0625   19.8216 C.ar    1  UNL1        0.0312
     18 C           1.8114    3.2412   21.0766 C.ar    1  UNL1        0.0211
     19 C           2.6559    2.0043   21.1596 C.ar    1  UNL1        0.0798
     20 C           5.1703   -0.4321   19.4841 C.3     1  UNL1        0.1109
     21 C           4.6599   -1.5392   18.6101 C.3     1  UNL1        0.0334
     22 C           4.8573   -2.9689   19.0185 C.3     1  UNL1        0.1053
     23 C           3.6904   -3.9111   19.0386 C.3     1  UNL1        0.3978
     24 F           2.5234   -4.8532   19.0587 F       1  UNL1       -0.1700
     25 F           2.8628   -2.8712   19.7343 F       1  UNL1       -0.1700
     26 F           4.5179   -4.9510   18.3430 F       1  UNL1       -0.1700
     27 N           2.7212    0.2409   31.3478 N.3     1  UNL1       -0.2689
     28 C           2.5775   -0.8008   30.2780 C.3     1  UNL1        0.0729
     29 C           1.7635   -0.5097   29.0522 C.3     1  UNL1        0.0264
     30 C           1.0932    0.8232   28.8961 C.3     1  UNL1        0.0795
     31 C           1.2368    1.8648   29.9658 C.3     1  UNL1        0.0264
     32 C           2.0508    1.5737   31.1917 C.3     1  UNL1        0.0729
     33 C           3.5352   -0.0502   32.5736 C.3     1  UNL1        0.0993
     34 N           6.0433   -4.6004   32.6441 N.pl3   1  UNL1       -0.3426
     35 C           6.0637   -3.1079   32.4945 C.ar    1  UNL1        0.1251
     36 C           4.7892   -2.3252   32.6088 C.ar    1  UNL1        0.0310
     37 C           4.8096   -0.8328   32.4592 C.ar    1  UNL1       -0.0018
     38 C           6.1045   -0.1232   32.1952 C.ar    1  UNL1        0.0179
     39 C           7.3790   -0.9059   32.0809 C.ar    1  UNL1        0.1000
     40 N           7.3585   -2.3983   32.2305 N.ar    1  UNL1       -0.2296
     41 H           5.1935   -5.0662   32.8174 H       1  UNL1        0.1437
     42 H           6.8798   -5.1141   32.5690 H       1  UNL1        0.1437
@<TRIPOS>BOND
     1    34    35    1
     2    35    36   ar
     3    36    37   ar
     4    37    33    1
     5    33    27    1
     6    27    28    1
     7    28    29    1
     8    29    30    1
     9    30     1    1
    10     1     2    2
    11     1     3   am
    12     3     4    1
    13     4     5    1
    14     5     6    1
    15     6     9    1
    16     9    10   ar
    17    10    11    2
    18    10    12   ar
    19    12    20    1
    20    20    21    1
    21    21    22    1
    22    22    23    1
    23    23    24    1
    24    23    25    1
    25    23    26    1
    26    12    13   ar
    27    13    14   ar
    28    14    15   ar
    29    15    16    1
    30    15    17   ar
    31    17    18   ar
    32    18    19   ar
    33     6     7    1
    34     7     8    1
    35    30    31    1
    36    31    32    1
    37    37    38   ar
    38    38    39   ar
    39    39    40   ar
    40    40    35   ar
    41    32    27    1
    42     8     3    1
    43    19     9   ar
    44    19    13   ar
    45    34    41    1
    46    34    42    1
@<TRIPOS>MOLECULE
*****
 42 46 0 0 0
SMALL
GASTEIGER

@<TRIPOS>ATOM
      1 C           1.3667    1.2412   28.0681 C.2     1  UNL1        0.2252
      2 O           0.0808    1.9544   28.3643 O.2     1  UNL1       -0.2749
      3 N           1.7361    0.9187   26.6505 N.am    1  UNL1       -0.2794
      4 C           0.8196    1.3093   25.5292 C.3     1  UNL1        0.0953
      5 C           1.1890    0.9867   24.1116 C.3     1  UNL1        0.0442
      6 C           2.4750    0.2735   23.8154 C.3     1  UNL1        0.0933
      7 C           3.3915   -0.1171   24.9367 C.3     1  UNL1        0.0442
      8 C           3.0221    0.2055   26.3543 C.3     1  UNL1        0.0953
      9 N           2.8444   -0.0491   22.3978 N.ar    1  UNL1       -0.2817
     10 C           2.6170    0.8318   21.2052 C.ar    1  UNL1        0.3315
     11 O           1.9801    2.1898   21.2207 O.2     1  UNL1       -0.2463
     12 N           3.1381    0.1161   19.9943 N.ar    1  UNL1       -0.2799
     13 C           3.6877   -1.2070   20.4386 C.ar    1  UNL1        0.0819
     14 C           4.3299   -2.3320   19.6824 C.ar    1  UNL1        0.0484
     15 C           4.7907   -3.5591   20.4118 C.ar    1  UNL1        0.1417
     16 F           5.4329   -4.6842   19.6556 F       1  UNL1       -0.2041
     17 C           4.6092   -3.6612   21.8972 C.ar    1  UNL1        0.0312
     18 C           3.9669   -2.5362   22.6534 C.ar    1  UNL1        0.0211
     19 C           3.5062   -1.3091   21.9241 C.ar    1  UNL1        0.0798
     20 C           3.1140    0.6328   18.5863 C.3     1  UNL1        0.1109
     21 C           3.9172    1.8451   18.2184 C.3     1  UNL1        0.0334
     22 C           5.3465    1.6956   17.7884 C.3     1  UNL1        0.1053
     23 C           5.9427    0.3284   17.6293 C.3     1  UNL1        0.3978
     24 F           6.5389   -1.0387   17.4702 F       1  UNL1       -0.1700
     25 F           6.4021    0.3627   19.0568 F       1  UNL1       -0.1700
     26 F           5.4832    0.2942   16.2018 F       1  UNL1       -0.1700
     27 N           4.1163    0.0694   31.4321 N.3     1  UNL1       -0.2689
     28 C           2.9850   -0.8338   31.0388 C.3     1  UNL1        0.0729
     29 C           2.0685   -0.4432   29.9175 C.3     1  UNL1        0.0264
     30 C           2.2833    0.8506   29.1894 C.3     1  UNL1        0.0795
     31 C           3.4145    1.7538   29.5827 C.3     1  UNL1        0.0264
     32 C           4.3310    1.3631   30.7040 C.3     1  UNL1        0.0729
     33 C           5.0328   -0.3212   32.5535 C.3     1  UNL1        0.0993
     34 N           6.4163   -5.3270   32.3871 N.pl3   1  UNL1       -0.3426
     35 C           6.7713   -3.8759   32.2516 C.ar    1  UNL1        0.1251
     36 C           5.7245   -2.8241   32.4703 C.ar    1  UNL1        0.0310
     37 C           6.0796   -1.3730   32.3348 C.ar    1  UNL1       -0.0018
     38 C           7.4815   -0.9738   31.9807 C.ar    1  UNL1        0.0179
     39 C           8.5283   -2.0257   31.7620 C.ar    1  UNL1        0.1000
     40 N           8.1732   -3.4767   31.8975 N.ar    1  UNL1       -0.2296
     41 H           5.4962   -5.5891   32.6195 H       1  UNL1        0.1437
     42 H           7.1034   -6.0174   32.2435 H       1  UNL1        0.1437
@<TRIPOS>BOND
     1    34    35    1
     2    35    36   ar
     3    36    37   ar
     4    37    33    1
     5    33    27    1
     6    27    28    1
     7    28    29    1
     8    29    30    1
     9    30     1    1
    10     1     2    2
    11     1     3   am
    12     3     4    1
    13     4     5    1
    14     5     6    1
    15     6     9    1
    16     9    10   ar
    17    10    11    2
    18    10    12   ar
    19    12    20    1
    20    20    21    1
    21    21    22    1
    22    22    23    1
    23    23    24    1
    24    23    25    1
    25    23    26    1
    26    12    13   ar
    27    13    14   ar
    28    14    15   ar
    29    15    16    1
    30    15    17   ar
    31    17    18   ar
    32    18    19   ar
    33     6     7    1
    34     7     8    1
    35    30    31    1
    36    31    32    1
    37    37    38   ar
    38    38    39   ar
    39    39    40   ar
    40    40    35   ar
    41    32    27    1
    42     8     3    1
    43    19     9   ar
    44    19    13   ar
    45    34    41    1
    46    34    42    1
@<TRIPOS>MOLECULE
*****
 42 46 0 0 0
SMALL
GASTEIGER

@<TRIPOS>ATOM
      1 C           3.6614   -1.9270   19.9906 C.2     1  UNL1        0.2252
      2 O           3.5454   -2.4836   18.6026 O.2     1  UNL1       -0.2749
      3 N           2.6948   -0.8816   20.4626 N.am    1  UNL1       -0.2794
      4 C           1.6122   -0.3929   19.5466 C.3     1  UNL1        0.0953
      5 C           0.6455    0.6525   20.0186 C.3     1  UNL1        0.0442
      6 C           0.7614    1.2091   21.4067 C.3     1  UNL1        0.0933
      7 C           1.8440    0.7204   22.3227 C.3     1  UNL1        0.0442
      8 C           2.8107   -0.3250   21.8507 C.3     1  UNL1        0.0953
      9 N          -0.2052    2.2545   21.8787 N.ar    1  UNL1       -0.2817
     10 C          -0.9490    3.2244   21.0092 C.ar    1  UNL1        0.3315
     11 O          -0.8568    3.3193   19.5151 O.2     1  UNL1       -0.2463
     12 N          -1.8013    4.0828   21.8963 N.ar    1  UNL1       -0.2799
     13 C          -1.5842    3.6434   23.3140 C.ar    1  UNL1        0.0819
     14 C          -2.1573    4.1262   24.6133 C.ar    1  UNL1        0.0484
     15 C          -1.7440    3.4791   25.9018 C.ar    1  UNL1        0.1417
     16 F          -2.3171    3.9619   27.2013 F       1  UNL1       -0.2041
     17 C          -0.7575    2.3491   25.8910 C.ar    1  UNL1        0.0312
     18 C          -0.1844    1.8663   24.5916 C.ar    1  UNL1        0.0211
     19 C          -0.5978    2.5134   23.3031 C.ar    1  UNL1        0.0798
     20 C          -2.7109    5.1868   21.4449 C.3     1  UNL1        0.1109
     21 C          -3.9857    4.8609   20.7245 C.3     1  UNL1        0.0334
     22 C          -5.2198    4.5140   21.5035 C.3     1  UNL1        0.1053
     23 C          -5.1543    3.4851   22.5930 C.3     1  UNL1        0.3978
     24 F          -5.0889    2.4561   23.6824 F       1  UNL1       -0.1700
     25 F          -4.6834    2.4639   21.6002 F       1  UNL1       -0.1700
     26 F          -5.6253    4.5062   23.5857 F       1  UNL1       -0.1700
     27 N           6.9092   -3.3931   22.7387 N.3     1  UNL1       -0.2689
     28 C           7.2209   -2.3676   21.6893 C.3     1  UNL1        0.0729
     29 C           6.1383   -1.8789   20.7732 C.3     1  UNL1        0.0264
     30 C           4.7440   -2.4157   20.9067 C.3     1  UNL1        0.0795
     31 C           4.4323   -3.4412   21.9560 C.3     1  UNL1        0.0264
     32 C           5.5149   -3.9299   22.8721 C.3     1  UNL1        0.0729
     33 C           7.9918   -3.8818   23.6548 C.3     1  UNL1        0.0993
     34 N           5.8362   -5.7896   27.9807 N.pl3   1  UNL1       -0.3426
     35 C           6.6528   -5.9906   26.7385 C.ar    1  UNL1        0.1251
     36 C           6.9141   -4.8357   25.8177 C.ar    1  UNL1        0.0310
     37 C           7.7306   -5.0367   24.5755 C.ar    1  UNL1       -0.0018
     38 C           8.2858   -6.3927   24.2542 C.ar    1  UNL1        0.0179
     39 C           8.0245   -7.5475   25.1751 C.ar    1  UNL1        0.1000
     40 N           7.2080   -7.3465   26.4172 N.ar    1  UNL1       -0.2296
     41 H           5.4718   -4.8997   28.1917 H       1  UNL1        0.1437
     42 H           5.6648   -6.5476   28.5851 H       1  UNL1        0.1437
@<TRIPOS>BOND
     1    34    35    1
     2    35    36   ar
     3    36    37   ar
     4    37    33    1
     5    33    27    1
     6    27    28    1
     7    28    29    1
     8    29    30    1
     9    30     1    1
    10     1     2    2
    11     1     3   am
    12     3     4    1
    13     4     5    1
    14     5     6    1
    15     6     9    1
    16     9    10   ar
    17    10    11    2
    18    10    12   ar
    19    12    20    1
    20    20    21    1
    21    21    22    1
    22    22    23    1
    23    23    24    1
    24    23    25    1
    25    23    26    1
    26    12    13   ar
    27    13    14   ar
    28    14    15   ar
    29    15    16    1
    30    15    17   ar
    31    17    18   ar
    32    18    19   ar
    33     6     7    1
    34     7     8    1
    35    30    31    1
    36    31    32    1
    37    37    38   ar
    38    38    39   ar
    39    39    40   ar
    40    40    35   ar
    41    32    27    1
    42     8     3    1
    43    19     9   ar
    44    19    13   ar
    45    34    41    1
    46    34    42    1
