@<TRIPOS>MOLECULE
*****
 21 22 0 0 0
SMALL
GASTEIGER

@<TRIPOS>ATOM
      1 N          -8.9235  -17.3760   22.6637 N.pl3   1  UNL1       -0.2558
      2 H          -9.6451  -16.7799   22.3583 H       1  UNL1        0.1688
      3 N          -7.6984  -16.8006   23.3102 N.ar    1  UNL1       -0.1623
      4 N          -6.3518  -16.6470   22.6674 N.ar    1  UNL1       -0.0459
      5 N          -5.4260  -16.0292   23.6730 N.ar    1  UNL1       -0.1273
      6 C          -6.2004  -15.8009   24.9372 C.ar    1  UNL1        0.1236
      7 C          -5.8082  -15.2206   26.2636 C.ar    1  UNL1        0.0226
      8 C          -6.8203  -15.1169   27.3657 C.ar    1  UNL1        0.0017
      9 C          -8.2248  -15.5937   27.1414 C.ar    1  UNL1        0.0017
     10 C          -8.6170  -16.1740   25.8151 C.ar    1  UNL1        0.0223
     11 C          -7.6048  -16.2777   24.7130 C.ar    1  UNL1        0.1193
     12 C          -9.0492  -18.8598   22.4823 C.3     1  UNL1        0.1066
     13 C          -9.4246  -19.7284   23.6462 C.3     1  UNL1        0.0228
     14 C         -10.8650  -19.8763   24.0376 C.3     1  UNL1        0.0018
     15 C         -11.6312  -18.6889   24.5407 C.3     1  UNL1        0.0001
     16 C         -12.8198  -18.1848   23.7771 C.3     1  UNL1        0.0004
     17 C         -12.6243  -17.2798   22.5969 C.3     1  UNL1        0.0059
     18 C         -12.3688  -17.8631   21.2388 C.3     1  UNL1        0.0417
     19 O         -12.4613  -15.8821   19.5604 O.co2   1  UNL1       -0.5492
     20 C         -11.7169  -17.0300   20.1754 C.2     1  UNL1        0.0503
     21 O         -10.3204  -17.3447   19.7269 O.co2   1  UNL1       -0.5492
@<TRIPOS>UNITY_ATOM_ATTR
19 1
charge -1
@<TRIPOS>BOND
     1    19    20   ar
     2    20    21   ar
     3    20    18    1
     4    18    17    1
     5    17    16    1
     6    16    15    1
     7    15    14    1
     8    14    13    1
     9    13    12    1
    10    12     1    1
    11     1     3    1
    12     3     4   ar
    13     4     5   ar
    14     5     6   ar
    15     6     7   ar
    16     7     8   ar
    17     8     9   ar
    18     9    10   ar
    19    10    11   ar
    20    11     3   ar
    21    11     6   ar
    22     1     2    1
@<TRIPOS>MOLECULE
*****
 21 22 0 0 0
SMALL
GASTEIGER

@<TRIPOS>ATOM
      1 N         -10.0950  -16.1102   22.9592 N.pl3   1  UNL1       -0.2558
      2 H         -10.7261  -16.4105   23.6525 H       1  UNL1        0.1688
      3 N          -8.6610  -15.8480   23.3129 N.ar    1  UNL1       -0.1623
      4 N          -7.5280  -15.6913   22.3426 N.ar    1  UNL1       -0.0459
      5 N          -6.2752  -15.4429   23.1291 N.ar    1  UNL1       -0.1273
      6 C          -6.6339  -15.4459   24.5856 C.ar    1  UNL1        0.1236
      7 C          -5.8084  -15.2531   25.8230 C.ar    1  UNL1        0.0226
      8 C          -6.4575  -15.3106   27.1741 C.ar    1  UNL1        0.0017
      9 C          -7.9321  -15.5609   27.2877 C.ar    1  UNL1        0.0017
     10 C          -8.7576  -15.7538   26.0502 C.ar    1  UNL1        0.0223
     11 C          -8.1085  -15.6963   24.6992 C.ar    1  UNL1        0.1193
     12 C         -10.5673  -15.9150   21.5488 C.3     1  UNL1        0.1066
     13 C         -11.5482  -16.8767   20.9465 C.3     1  UNL1        0.0228
     14 C         -11.2272  -17.5631   19.6520 C.3     1  UNL1        0.0018
     15 C         -10.6798  -18.9596   19.6593 C.3     1  UNL1        0.0001
     16 C         -10.0264  -19.5027   20.8956 C.3     1  UNL1        0.0004
     17 C         -10.8657  -20.0908   21.9908 C.3     1  UNL1        0.0059
     18 C         -10.3026  -20.2313   23.3740 C.3     1  UNL1        0.0417
     19 O         -11.8026  -18.2965   24.2437 O.co2   1  UNL1       -0.5492
     20 C         -10.6249  -19.2082   24.4224 C.2     1  UNL1        0.0503
     21 O          -9.7695  -19.0967   25.6497 O.co2   1  UNL1       -0.5492
@<TRIPOS>UNITY_ATOM_ATTR
19 1
charge -1
@<TRIPOS>BOND
     1    19    20   ar
     2    20    21   ar
     3    20    18    1
     4    18    17    1
     5    17    16    1
     6    16    15    1
     7    15    14    1
     8    14    13    1
     9    13    12    1
    10    12     1    1
    11     1     3    1
    12     3     4   ar
    13     4     5   ar
    14     5     6   ar
    15     6     7   ar
    16     7     8   ar
    17     8     9   ar
    18     9    10   ar
    19    10    11   ar
    20    11     3   ar
    21    11     6   ar
    22     1     2    1
@<TRIPOS>MOLECULE
*****
 21 22 0 0 0
SMALL
GASTEIGER

@<TRIPOS>ATOM
      1 N          -9.2920  -18.8621   19.8627 N.pl3   1  UNL1       -0.2558
      2 H          -9.2555  -19.1258   18.9148 H       1  UNL1        0.1688
      3 N         -10.5582  -18.2982   20.4360 N.ar    1  UNL1       -0.1623
      4 N         -11.5427  -17.4280   19.7125 N.ar    1  UNL1       -0.0459
      5 N         -12.6551  -17.0974   20.6629 N.ar    1  UNL1       -0.1273
      6 C         -12.3581  -17.7633   21.9738 C.ar    1  UNL1        0.1236
      7 C         -13.1003  -17.7898   23.2770 C.ar    1  UNL1        0.0226
      8 C         -12.5465  -18.5584   24.4400 C.ar    1  UNL1        0.0017
      9 C         -11.2505  -19.3005   24.2998 C.ar    1  UNL1        0.0017
     10 C         -10.5083  -19.2740   22.9965 C.ar    1  UNL1        0.0223
     11 C         -11.0621  -18.5054   21.8336 C.ar    1  UNL1        0.1193
     12 C          -8.0814  -19.0244   20.7335 C.3     1  UNL1        0.1066
     13 C          -6.8458  -19.6754   20.1864 C.3     1  UNL1        0.0228
     14 C          -5.7740  -20.1538   21.1203 C.3     1  UNL1        0.0018
     15 C          -5.2154  -19.2266   22.1587 C.3     1  UNL1        0.0001
     16 C          -3.7453  -19.2326   22.4568 C.3     1  UNL1        0.0004
     17 C          -2.7789  -19.7888   21.4534 C.3     1  UNL1        0.0059
     18 C          -1.9044  -18.8627   20.6612 C.3     1  UNL1        0.0417
     19 O          -3.8322  -17.9574   19.1731 O.co2   1  UNL1       -0.5492
     20 C          -2.3861  -18.3141   19.3508 C.2     1  UNL1        0.0503
     21 O          -1.4217  -18.1224   18.2179 O.co2   1  UNL1       -0.5492
@<TRIPOS>UNITY_ATOM_ATTR
19 1
charge -1
@<TRIPOS>BOND
     1    19    20   ar
     2    20    21   ar
     3    20    18    1
     4    18    17    1
     5    17    16    1
     6    16    15    1
     7    15    14    1
     8    14    13    1
     9    13    12    1
    10    12     1    1
    11     1     3    1
    12     3     4   ar
    13     4     5   ar
    14     5     6   ar
    15     6     7   ar
    16     7     8   ar
    17     8     9   ar
    18     9    10   ar
    19    10    11   ar
    20    11     3   ar
    21    11     6   ar
    22     1     2    1
@<TRIPOS>MOLECULE
*****
 21 22 0 0 0
SMALL
GASTEIGER

@<TRIPOS>ATOM
      1 N          -7.6858  -15.2053   22.6731 N.pl3   1  UNL1       -0.2558
      2 H          -7.7992  -14.3084   22.2834 H       1  UNL1        0.1688
      3 N          -8.3303  -16.3930   22.0219 N.ar    1  UNL1       -0.1623
      4 N          -7.6229  -17.4671   21.2500 N.ar    1  UNL1       -0.0459
      5 N          -8.6508  -18.4529   20.7792 N.ar    1  UNL1       -0.1273
      6 C          -9.9934  -17.9881   21.2602 C.ar    1  UNL1        0.1236
      7 C         -11.3707  -18.5596   21.0981 C.ar    1  UNL1        0.0226
      8 C         -12.5500  -17.8579   21.7039 C.ar    1  UNL1        0.0017
      9 C         -12.3519  -16.5848   22.4719 C.ar    1  UNL1        0.0017
     10 C         -10.9745  -16.0133   22.6341 C.ar    1  UNL1        0.0223
     11 C          -9.7953  -16.7149   22.0282 C.ar    1  UNL1        0.1193
     12 C          -6.8685  -15.3843   23.9182 C.3     1  UNL1        0.1066
     13 C          -5.3707  -15.3916   23.8376 C.3     1  UNL1        0.0228
     14 C          -4.6130  -16.6640   24.0757 C.3     1  UNL1        0.0018
     15 C          -3.8812  -17.3239   22.9447 C.3     1  UNL1        0.0001
     16 C          -4.0132  -18.8023   22.7272 C.3     1  UNL1        0.0004
     17 C          -3.0293  -19.5226   21.8537 C.3     1  UNL1        0.0059
     18 C          -3.1766  -19.4763   20.3617 C.3     1  UNL1        0.0417
     19 O          -3.2258  -17.2608   19.0055 O.co2   1  UNL1       -0.5492
     20 C          -2.4617  -18.4217   19.5699 C.2     1  UNL1        0.0503
     21 O          -0.9828  -18.5280   19.3427 O.co2   1  UNL1       -0.5492
@<TRIPOS>UNITY_ATOM_ATTR
19 1
charge -1
@<TRIPOS>BOND
     1    19    20   ar
     2    20    21   ar
     3    20    18    1
     4    18    17    1
     5    17    16    1
     6    16    15    1
     7    15    14    1
     8    14    13    1
     9    13    12    1
    10    12     1    1
    11     1     3    1
    12     3     4   ar
    13     4     5   ar
    14     5     6   ar
    15     6     7   ar
    16     7     8   ar
    17     8     9   ar
    18     9    10   ar
    19    10    11   ar
    20    11     3   ar
    21    11     6   ar
    22     1     2    1
@<TRIPOS>MOLECULE
*****
 21 22 0 0 0
SMALL
GASTEIGER

@<TRIPOS>ATOM
      1 N         -10.2775  -16.6226   23.3365 N.pl3   1  UNL1       -0.2558
      2 H         -10.8910  -16.1149   22.7577 H       1  UNL1        0.1688
      3 N          -8.8496  -16.1865   23.4812 N.ar    1  UNL1       -0.1623
      4 N          -7.8987  -15.8947   22.3584 N.ar    1  UNL1       -0.0459
      5 N          -6.5833  -15.4936   22.9574 N.ar    1  UNL1       -0.1273
      6 C          -6.7212  -15.5374   24.4504 C.ar    1  UNL1        0.1236
      7 C          -5.7524  -15.2427   25.5569 C.ar    1  UNL1        0.0226
      8 C          -6.1842  -15.3763   26.9872 C.ar    1  UNL1        0.0017
      9 C          -7.5848  -15.8045   27.3109 C.ar    1  UNL1        0.0017
     10 C          -8.5536  -16.0992   26.2044 C.ar    1  UNL1        0.0223
     11 C          -8.1219  -15.9657   24.7742 C.ar    1  UNL1        0.1193
     12 C         -10.7707  -17.8322   24.0739 C.3     1  UNL1        0.1066
     13 C         -11.4727  -18.9294   23.3301 C.3     1  UNL1        0.0228
     14 C         -10.6770  -20.0143   22.6670 C.3     1  UNL1        0.0018
     15 C          -9.7558  -19.6812   21.5311 C.3     1  UNL1        0.0001
     16 C         -10.2422  -19.7846   20.1158 C.3     1  UNL1        0.0004
     17 C         -10.9916  -18.6431   19.4951 C.3     1  UNL1        0.0059
     18 C         -10.7234  -17.2373   19.9442 C.3     1  UNL1        0.0417
     19 O         -12.5765  -16.1801   21.4269 O.co2   1  UNL1       -0.5492
     20 C         -11.8607  -16.2738   20.1120 C.2     1  UNL1        0.0503
     21 O         -12.2822  -15.4038   18.9650 O.co2   1  UNL1       -0.5492
@<TRIPOS>UNITY_ATOM_ATTR
19 1
charge -1
@<TRIPOS>BOND
     1    19    20   ar
     2    20    21   ar
     3    20    18    1
     4    18    17    1
     5    17    16    1
     6    16    15    1
     7    15    14    1
     8    14    13    1
     9    13    12    1
    10    12     1    1
    11     1     3    1
    12     3     4   ar
    13     4     5   ar
    14     5     6   ar
    15     6     7   ar
    16     7     8   ar
    17     8     9   ar
    18     9    10   ar
    19    10    11   ar
    20    11     3   ar
    21    11     6   ar
    22     1     2    1
@<TRIPOS>MOLECULE
*****
 21 22 0 0 0
SMALL
GASTEIGER

@<TRIPOS>ATOM
      1 N          -6.8615  -18.9002   19.8534 N.pl3   1  UNL1       -0.2558
      2 H          -6.7934  -18.3235   19.0584 H       1  UNL1        0.1688
      3 N          -5.6829  -19.0598   20.7674 N.ar    1  UNL1       -0.1623
      4 N          -5.7354  -19.4593   22.2123 N.ar    1  UNL1       -0.0459
      5 N          -4.3298  -19.4944   22.7348 N.ar    1  UNL1       -0.1273
      6 C          -3.4086  -19.1165   21.6129 C.ar    1  UNL1        0.1236
      7 C          -1.9164  -18.9823   21.5414 C.ar    1  UNL1        0.0226
      8 C          -1.2604  -18.5794   20.2540 C.ar    1  UNL1        0.0017
      9 C          -2.0967  -18.3109   19.0381 C.ar    1  UNL1        0.0017
     10 C          -3.5889  -18.4451   19.1096 C.ar    1  UNL1        0.0223
     11 C          -4.2449  -18.8479   20.3970 C.ar    1  UNL1        0.1193
     12 C          -8.1441  -19.6192   20.1507 C.3     1  UNL1        0.1066
     13 C          -9.3810  -19.3031   19.3633 C.3     1  UNL1        0.0228
     14 C         -10.7026  -19.1769   20.0614 C.3     1  UNL1        0.0018
     15 C         -10.9971  -20.0190   21.2673 C.3     1  UNL1        0.0001
     16 C         -10.8798  -19.4285   22.6413 C.3     1  UNL1        0.0004
     17 C         -11.1279  -17.9643   22.8520 C.3     1  UNL1        0.0059
     18 C          -9.9733  -17.0315   23.0681 C.3     1  UNL1        0.0417
     19 O          -7.8058  -16.5170   21.7313 O.co2   1  UNL1       -0.5492
     20 C          -9.2922  -16.3963   21.8923 C.2     1  UNL1        0.0503
     21 O         -10.0976  -15.6403   20.8774 O.co2   1  UNL1       -0.5492
@<TRIPOS>UNITY_ATOM_ATTR
19 1
charge -1
@<TRIPOS>BOND
     1    19    20   ar
     2    20    21   ar
     3    20    18    1
     4    18    17    1
     5    17    16    1
     6    16    15    1
     7    15    14    1
     8    14    13    1
     9    13    12    1
    10    12     1    1
    11     1     3    1
    12     3     4   ar
    13     4     5   ar
    14     5     6   ar
    15     6     7   ar
    16     7     8   ar
    17     8     9   ar
    18     9    10   ar
    19    10    11   ar
    20    11     3   ar
    21    11     6   ar
    22     1     2    1
@<TRIPOS>MOLECULE
*****
 21 22 0 0 0
SMALL
GASTEIGER

@<TRIPOS>ATOM
      1 N          -6.8039  -18.4953   20.5962 N.pl3   1  UNL1       -0.2558
      2 H          -7.0520  -18.4857   19.6435 H       1  UNL1        0.1688
      3 N          -7.7184  -17.8834   21.6156 N.ar    1  UNL1       -0.1623
      4 N          -8.0184  -16.4215   21.7663 N.ar    1  UNL1       -0.0459
      5 N          -8.9789  -16.2606   22.9072 N.ar    1  UNL1       -0.1273
      6 C          -9.2726  -17.6231   23.4615 C.ar    1  UNL1        0.1236
      7 C         -10.1487  -18.0801   24.5900 C.ar    1  UNL1        0.0226
      8 C         -10.2459  -19.5400   24.9202 C.ar    1  UNL1        0.0017
      9 C          -9.4669  -20.5430   24.1220 C.ar    1  UNL1        0.0017
     10 C          -8.5907  -20.0860   22.9935 C.ar    1  UNL1        0.0223
     11 C          -8.4936  -18.6261   22.6633 C.ar    1  UNL1        0.1193
     12 C          -5.5113  -19.1219   21.0283 C.3     1  UNL1        0.1066
     13 C          -4.7675  -20.0282   20.0927 C.3     1  UNL1        0.0228
     14 C          -3.3618  -19.6971   19.6872 C.3     1  UNL1        0.0018
     15 C          -3.0203  -18.3101   19.2293 C.3     1  UNL1        0.0001
     16 C          -1.5867  -17.8734   19.1642 C.3     1  UNL1        0.0004
     17 C          -0.9688  -17.1527   20.3256 C.3     1  UNL1        0.0059
     18 C          -1.8274  -16.3326   21.2422 C.3     1  UNL1        0.0417
     19 O          -3.8614  -16.3441   22.8585 O.co2   1  UNL1       -0.5492
     20 C          -2.6254  -17.0025   22.3213 C.2     1  UNL1        0.0503
     21 O          -2.1872  -18.3308   22.8633 O.co2   1  UNL1       -0.5492
@<TRIPOS>UNITY_ATOM_ATTR
19 1
charge -1
@<TRIPOS>BOND
     1    19    20   ar
     2    20    21   ar
     3    20    18    1
     4    18    17    1
     5    17    16    1
     6    16    15    1
     7    15    14    1
     8    14    13    1
     9    13    12    1
    10    12     1    1
    11     1     3    1
    12     3     4   ar
    13     4     5   ar
    14     5     6   ar
    15     6     7   ar
    16     7     8   ar
    17     8     9   ar
    18     9    10   ar
    19    10    11   ar
    20    11     3   ar
    21    11     6   ar
    22     1     2    1
@<TRIPOS>MOLECULE
*****
 21 22 0 0 0
SMALL
GASTEIGER

@<TRIPOS>ATOM
      1 N          -9.7946  -16.3328   22.8091 N.pl3   1  UNL1       -0.2558
      2 H         -10.3125  -15.7425   22.2153 H       1  UNL1        0.1688
      3 N          -8.4288  -15.9200   23.2718 N.ar    1  UNL1       -0.1623
      4 N          -7.2909  -15.4948   22.3918 N.ar    1  UNL1       -0.0459
      5 N          -6.1199  -15.1720   23.2719 N.ar    1  UNL1       -0.1273
      6 C          -6.5342  -15.3975   24.6959 C.ar    1  UNL1        0.1236
      7 C          -5.7963  -15.2417   25.9925 C.ar    1  UNL1        0.0226
      8 C          -6.4855  -15.5481   27.2890 C.ar    1  UNL1        0.0017
      9 C          -7.9125  -16.0104   27.2890 C.ar    1  UNL1        0.0017
     10 C          -8.6503  -16.1663   25.9923 C.ar    1  UNL1        0.0223
     11 C          -7.9611  -15.8598   24.6958 C.ar    1  UNL1        0.1193
     12 C         -10.3715  -17.6451   23.2511 C.3     1  UNL1        0.1066
     13 C         -10.0308  -18.9025   22.5077 C.3     1  UNL1        0.0228
     14 C          -8.6704  -19.5165   22.6565 C.3     1  UNL1        0.0018
     15 C          -7.5516  -19.0886   21.7536 C.3     1  UNL1        0.0001
     16 C          -6.2047  -19.7388   21.8684 C.3     1  UNL1        0.0004
     17 C          -5.6202  -20.4657   20.6936 C.3     1  UNL1        0.0059
     18 C          -4.3129  -20.0186   20.1098 C.3     1  UNL1        0.0417
     19 O          -3.3853  -17.9518   21.3818 O.co2   1  UNL1       -0.5492
     20 C          -3.2716  -19.3957   20.9918 C.2     1  UNL1        0.0503
     21 O          -2.1167  -20.2169   21.4838 O.co2   1  UNL1       -0.5492
@<TRIPOS>UNITY_ATOM_ATTR
19 1
charge -1
@<TRIPOS>BOND
     1    19    20   ar
     2    20    21   ar
     3    20    18    1
     4    18    17    1
     5    17    16    1
     6    16    15    1
     7    15    14    1
     8    14    13    1
     9    13    12    1
    10    12     1    1
    11     1     3    1
    12     3     4   ar
    13     4     5   ar
    14     5     6   ar
    15     6     7   ar
    16     7     8   ar
    17     8     9   ar
    18     9    10   ar
    19    10    11   ar
    20    11     3   ar
    21    11     6   ar
    22     1     2    1
@<TRIPOS>MOLECULE
*****
 21 22 0 0 0
SMALL
GASTEIGER

@<TRIPOS>ATOM
      1 N          -8.0780  -17.6224   22.7653 N.pl3   1  UNL1       -0.2558
      2 H          -8.7314  -18.1125   22.2157 H       1  UNL1        0.1688
      3 N          -6.6086  -17.8305   22.5473 N.ar    1  UNL1       -0.1623
      4 N          -5.5047  -16.9936   23.1226 N.ar    1  UNL1       -0.0459
      5 N          -4.1990  -17.5579   22.6466 N.ar    1  UNL1       -0.1273
      6 C          -4.4959  -18.7437   21.7771 C.ar    1  UNL1        0.1236
      7 C          -3.6026  -19.6917   21.0334 C.ar    1  UNL1        0.0226
      8 C          -4.1985  -20.8082   20.2283 C.ar    1  UNL1        0.0017
      9 C          -5.6878  -20.9766   20.1669 C.ar    1  UNL1        0.0017
     10 C          -6.5811  -20.0286   20.9107 C.ar    1  UNL1        0.0223
     11 C          -5.9851  -18.9121   21.7158 C.ar    1  UNL1        0.1193
     12 C          -8.5518  -16.6675   23.8207 C.3     1  UNL1        0.1066
     13 C          -9.3912  -17.1650   24.9600 C.3     1  UNL1        0.0228
     14 C          -9.9518  -18.5559   24.9269 C.3     1  UNL1        0.0018
     15 C         -11.3938  -18.7751   24.5771 C.3     1  UNL1        0.0001
     16 C         -11.8385  -18.6989   23.1464 C.3     1  UNL1        0.0004
     17 C         -12.7576  -17.5989   22.7043 C.3     1  UNL1        0.0059
     18 C         -12.1947  -16.2693   22.2981 C.3     1  UNL1        0.0417
     19 O         -10.0631  -16.0163   20.8345 O.co2   1  UNL1       -0.5492
     20 C         -11.5559  -16.1053   20.9509 C.2     1  UNL1        0.0503
     21 O         -12.4100  -16.0303   19.7199 O.co2   1  UNL1       -0.5492
@<TRIPOS>UNITY_ATOM_ATTR
19 1
charge -1
@<TRIPOS>BOND
     1    19    20   ar
     2    20    21   ar
     3    20    18    1
     4    18    17    1
     5    17    16    1
     6    16    15    1
     7    15    14    1
     8    14    13    1
     9    13    12    1
    10    12     1    1
    11     1     3    1
    12     3     4   ar
    13     4     5   ar
    14     5     6   ar
    15     6     7   ar
    16     7     8   ar
    17     8     9   ar
    18     9    10   ar
    19    10    11   ar
    20    11     3   ar
    21    11     6   ar
    22     1     2    1
