@<TRIPOS>MOLECULE
*****
 49 54 0 0 0
SMALL
GASTEIGER

@<TRIPOS>ATOM
      1 O           3.9121   -3.0440   33.6951 O.2     1  UNL1       -0.2863
      2 C           4.5444   -1.8152   33.1116 C.2     1  UNL1        0.2034
      3 C           4.0146   -0.4579   33.4678 C.ar    1  UNL1        0.0949
      4 C           3.2885    0.3575   32.4392 C.ar    1  UNL1        0.0055
      5 C           2.7587    1.7148   32.7954 C.ar    1  UNL1       -0.0002
      6 C           2.9550    2.2569   34.1802 C.ar    1  UNL1        0.0746
      7 N           3.6811    1.4416   35.2088 N.ar    1  UNL1       -0.2901
      8 C           4.2109    0.0842   34.8526 C.ar    1  UNL1        0.2642
      9 O           4.9370   -0.7311   35.8812 O.2     1  UNL1       -0.2669
     10 C           2.0326    2.5301   31.7668 C.3     1  UNL1        0.0543
     11 C           1.5416    1.8822   30.5062 C.ar    1  UNL1       -0.0133
     12 C           0.1452    1.3388   30.4369 C.ar    1  UNL1        0.0259
     13 C          -0.3458    0.6909   29.1763 C.ar    1  UNL1        0.1421
     14 F          -1.7421    0.1475   29.1071 F       1  UNL1       -0.2041
     15 C           0.5595    0.5865   27.9849 C.ar    1  UNL1        0.0592
     16 C           1.9559    1.1299   28.0541 C.ar    1  UNL1        0.1421
     17 F           2.8613    1.0255   26.8627 F       1  UNL1       -0.2041
     18 C           2.4470    1.7778   29.3147 C.ar    1  UNL1        0.0259
     19 C           3.8774    1.9836   36.5936 C.3     1  UNL1        0.1380
     20 C           2.7862    1.8478   37.6138 C.ar    1  UNL1        0.0280
     21 C           2.6636    0.5871   38.4174 C.ar    1  UNL1       -0.0002
     22 C           1.5724    0.4512   39.4377 C.ar    1  UNL1       -0.0001
     23 C           0.6039    1.5760   39.6544 C.ar    1  UNL1        0.0023
     24 C           0.7266    2.8367   38.8507 C.ar    1  UNL1        0.0294
     25 C           1.8178    2.9725   37.8305 C.ar    1  UNL1        0.1380
     26 F           1.9404    4.2332   37.0270 F       1  UNL1       -0.2044
     27 C           5.7065   -1.9438   32.1720 C.2     1  UNL1        0.0835
     28 C           6.4262   -3.2537   32.0441 C.2     1  UNL1        0.1910
     29 O           5.9838   -4.4349   32.8559 O.2     1  UNL1       -0.5018
     30 H           5.2579   -4.3546   33.4429 H       1  UNL1        0.2924
     31 C           7.5883   -3.3823   31.1045 C.2     1  UNL1        0.2831
     32 O           8.9790   -3.5287   31.6472 O.2     1  UNL1       -0.2666
     33 N           7.3597   -3.3646   29.6220 N.am    1  UNL1       -0.2701
     34 C           8.5218   -3.4932   28.6824 C.3     1  UNL1        0.1152
     35 C           8.2931   -3.4754   27.2001 C.3     1  UNL1        0.1123
     36 N           6.9024   -3.3291   26.6574 N.pl3   1  UNL1       -0.3041
     37 C           5.7404   -3.2005   27.5970 C.3     1  UNL1        0.1123
     38 C           5.9690   -3.2182   29.0794 C.3     1  UNL1        0.1152
     39 C           6.6738   -3.3113   25.1749 C.ar    1  UNL1        0.0480
     40 C           7.4563   -4.2303   24.2844 C.ar    1  UNL1        0.0160
     41 C           7.2277   -4.2125   22.8019 C.ar    1  UNL1        0.0188
     42 C           6.2166   -3.2758   22.2102 C.ar    1  UNL1        0.0642
     43 C           5.4341   -2.3568   23.1009 C.ar    1  UNL1        0.0188
     44 C           5.6627   -2.3746   24.5832 C.ar    1  UNL1        0.0160
     45 N           5.9880   -3.2580   20.7278 N.ar    1  UNL1       -0.3036
     46 C           6.8230   -2.5312   19.7156 C.ar    1  UNL1        0.0802
     47 C           6.2353   -2.7879   18.3596 C.ar    1  UNL1        0.0205
     48 C           5.0371   -3.6734   18.5338 C.ar    1  UNL1        0.0205
     49 C           4.8843   -3.9639   19.9975 C.ar    1  UNL1        0.0802
@<TRIPOS>BOND
     1     1     2    2
     2     2    27    1
     3    27    28    2
     4    28    29    1
     5    28    31    1
     6    31    32    2
     7    31    33   am
     8    33    34    1
     9    34    35    1
    10    35    36    1
    11    36    39    1
    12    39    40   ar
    13    40    41   ar
    14    41    42   ar
    15    42    45    1
    16    45    46   ar
    17    46    47   ar
    18    47    48   ar
    19    48    49   ar
    20    42    43   ar
    21    43    44   ar
    22    36    37    1
    23    37    38    1
    24     2     3    1
    25     3     4   ar
    26     4     5   ar
    27     5    10    1
    28    10    11    1
    29    11    12   ar
    30    12    13   ar
    31    13    14    1
    32    13    15   ar
    33    15    16   ar
    34    16    17    1
    35    16    18   ar
    36     5     6   ar
    37     6     7   ar
    38     7    19    1
    39    19    20    1
    40    20    21   ar
    41    21    22   ar
    42    22    23   ar
    43    23    24   ar
    44    24    25   ar
    45    25    26    1
    46     7     8   ar
    47     8     9    2
    48    38    33    1
    49     8     3   ar
    50    44    39   ar
    51    18    11   ar
    52    25    20   ar
    53    49    45   ar
    54    29    30    1
@<TRIPOS>MOLECULE
*****
 49 54 0 0 0
SMALL
GASTEIGER

@<TRIPOS>ATOM
      1 O           7.8863   -4.1669   24.3858 O.2     1  UNL1       -0.2863
      2 C           6.6994   -3.7019   25.1763 C.2     1  UNL1        0.2034
      3 C           5.7011   -2.7716   24.5534 C.ar    1  UNL1        0.0949
      4 C           5.2645   -1.5388   25.2881 C.ar    1  UNL1        0.0055
      5 C           4.2662   -0.6086   24.6651 C.ar    1  UNL1       -0.0002
      6 C           3.7045   -0.9111   23.3076 C.ar    1  UNL1        0.0746
      7 N           4.1410   -2.1439   22.5730 N.ar    1  UNL1       -0.2901
      8 C           5.1393   -3.0742   23.1959 C.ar    1  UNL1        0.2642
      9 O           5.5758   -4.3069   22.4613 O.2     1  UNL1       -0.2669
     10 C           3.8297    0.6242   25.3998 C.3     1  UNL1        0.0543
     11 C           2.7167    0.5453   26.4022 C.ar    1  UNL1       -0.0133
     12 C           2.9393   -0.1402   27.7177 C.ar    1  UNL1        0.0259
     13 C           1.8263   -0.2191   28.7202 C.ar    1  UNL1        0.1421
     14 F           2.0489   -0.9046   30.0356 F       1  UNL1       -0.2041
     15 C           0.4906    0.3874   28.4072 C.ar    1  UNL1        0.0592
     16 C           0.2679    1.0730   27.0916 C.ar    1  UNL1        0.1421
     17 F          -1.0677    1.6796   26.7786 F       1  UNL1       -0.2041
     18 C           1.3810    1.1519   26.0892 C.ar    1  UNL1        0.0259
     19 C           3.5792   -2.4464   21.2155 C.3     1  UNL1        0.1380
     20 C           3.1406   -1.3269   20.3188 C.ar    1  UNL1        0.0280
     21 C           1.6867   -0.9718   20.2188 C.ar    1  UNL1       -0.0002
     22 C           1.2480    0.1478   19.3220 C.ar    1  UNL1       -0.0001
     23 C           2.2632    0.9123   18.5253 C.ar    1  UNL1        0.0023
     24 C           3.7172    0.5572   18.6253 C.ar    1  UNL1        0.0294
     25 C           4.1558   -0.5624   19.5220 C.ar    1  UNL1        0.1380
     26 F           5.6097   -0.9175   19.6220 F       1  UNL1       -0.2044
     27 C           6.5107   -4.1671   26.5898 C.2     1  UNL1        0.0835
     28 C           7.5736   -3.9023   27.6147 C.2     1  UNL1        0.1910
     29 O           8.8250   -3.1723   27.2261 O.2     1  UNL1       -0.5018
     30 H           8.9428   -2.8817   26.3431 H       1  UNL1        0.2924
     31 C           7.3849   -4.3675   29.0282 C.2     1  UNL1        0.2831
     32 O           7.8185   -5.7467   29.4281 O.2     1  UNL1       -0.2666
     33 N           6.7627   -3.4535   30.0419 N.am    1  UNL1       -0.2701
     34 C           6.5741   -3.9188   31.4554 C.3     1  UNL1        0.1152
     35 C           5.9518   -3.0048   32.4690 C.3     1  UNL1        0.1123
     36 N           5.5183   -1.6256   32.0691 N.pl3   1  UNL1       -0.3041
     37 C           5.7069   -1.1604   30.6557 C.3     1  UNL1        0.1123
     38 C           6.3291   -2.0744   29.6421 C.3     1  UNL1        0.1152
     39 C           4.8960   -0.7116   33.0829 C.ar    1  UNL1        0.0480
     40 C           5.2523   -0.8472   34.5336 C.ar    1  UNL1        0.0160
     41 C           4.6301    0.0668   35.5473 C.ar    1  UNL1        0.0188
     42 C           3.6515    1.1163   35.1102 C.ar    1  UNL1        0.0642
     43 C           3.2952    1.2518   33.6594 C.ar    1  UNL1        0.0188
     44 C           3.9175    0.3378   32.6458 C.ar    1  UNL1        0.0160
     45 N           3.0293    2.0302   36.1238 N.ar    1  UNL1       -0.3036
     46 C           2.3591    3.3409   35.8354 C.ar    1  UNL1        0.0802
     47 C           1.8836    3.9147   37.1371 C.ar    1  UNL1        0.0205
     48 C           2.2599    2.9587   38.2301 C.ar    1  UNL1        0.0205
     49 C           2.9680    1.7941   37.6038 C.ar    1  UNL1        0.0802
@<TRIPOS>BOND
     1     1     2    2
     2     2    27    1
     3    27    28    2
     4    28    29    1
     5    28    31    1
     6    31    32    2
     7    31    33   am
     8    33    34    1
     9    34    35    1
    10    35    36    1
    11    36    39    1
    12    39    40   ar
    13    40    41   ar
    14    41    42   ar
    15    42    45    1
    16    45    46   ar
    17    46    47   ar
    18    47    48   ar
    19    48    49   ar
    20    42    43   ar
    21    43    44   ar
    22    36    37    1
    23    37    38    1
    24     2     3    1
    25     3     4   ar
    26     4     5   ar
    27     5    10    1
    28    10    11    1
    29    11    12   ar
    30    12    13   ar
    31    13    14    1
    32    13    15   ar
    33    15    16   ar
    34    16    17    1
    35    16    18   ar
    36     5     6   ar
    37     6     7   ar
    38     7    19    1
    39    19    20    1
    40    20    21   ar
    41    21    22   ar
    42    22    23   ar
    43    23    24   ar
    44    24    25   ar
    45    25    26    1
    46     7     8   ar
    47     8     9    2
    48    38    33    1
    49     8     3   ar
    50    44    39   ar
    51    18    11   ar
    52    25    20   ar
    53    49    45   ar
    54    29    30    1
@<TRIPOS>MOLECULE
*****
 49 54 0 0 0
SMALL
GASTEIGER

@<TRIPOS>ATOM
      1 O           4.1495   -2.4045   33.5632 O.2     1  UNL1       -0.2863
      2 C           4.4744   -1.0918   32.9141 C.2     1  UNL1        0.2034
      3 C           3.7380    0.1495   33.3227 C.ar    1  UNL1        0.0949
      4 C           2.7916    0.8099   32.3644 C.ar    1  UNL1        0.0055
      5 C           2.0553    2.0512   32.7731 C.ar    1  UNL1       -0.0002
      6 C           2.2653    2.6321   34.1399 C.ar    1  UNL1        0.0746
      7 N           3.2117    1.9718   35.0982 N.ar    1  UNL1       -0.2901
      8 C           3.9481    0.7305   34.6896 C.ar    1  UNL1        0.2642
      9 O           4.8945    0.0702   35.6478 O.2     1  UNL1       -0.2669
     10 C           1.1089    2.7115   31.8148 C.3     1  UNL1        0.0543
     11 C           0.9488    2.1694   30.4254 C.ar    1  UNL1       -0.0133
     12 C           1.8860    2.6043   29.3380 C.ar    1  UNL1        0.0259
     13 C           1.7260    2.0622   27.9486 C.ar    1  UNL1        0.1421
     14 F           2.6632    2.4972   26.8612 F       1  UNL1       -0.2041
     15 C           0.6286    1.0852   27.6465 C.ar    1  UNL1        0.0592
     16 C          -0.3087    0.6503   28.7339 C.ar    1  UNL1        0.1421
     17 F          -1.4060   -0.3267   28.4318 F       1  UNL1       -0.2041
     18 C          -0.1486    1.1923   30.1233 C.ar    1  UNL1        0.0259
     19 C           3.4218    2.5528   36.4651 C.3     1  UNL1        0.1380
     20 C           2.4811    2.2052   37.5804 C.ar    1  UNL1        0.0280
     21 C           2.5971    0.8803   38.2740 C.ar    1  UNL1       -0.0002
     22 C           1.6564    0.5326   39.3894 C.ar    1  UNL1       -0.0001
     23 C           0.5995    1.5100   39.8112 C.ar    1  UNL1        0.0023
     24 C           0.4835    2.8349   39.1176 C.ar    1  UNL1        0.0294
     25 C           1.4242    3.1825   38.0022 C.ar    1  UNL1        0.1380
     26 F           1.3081    4.5075   37.3087 F       1  UNL1       -0.2044
     27 C           5.5355   -1.0203   31.8564 C.2     1  UNL1        0.0835
     28 C           6.1955   -2.2766   31.3700 C.2     1  UNL1        0.1910
     29 O           5.7942   -3.6041   31.9414 O.2     1  UNL1       -0.5018
     30 H           5.1313   -3.6487   32.6021 H       1  UNL1        0.2924
     31 C           7.2566   -2.2051   30.3123 C.2     1  UNL1        0.2831
     32 O           8.7037   -2.3089   30.6935 O.2     1  UNL1       -0.2666
     33 N           6.8708   -2.0300   28.8734 N.am    1  UNL1       -0.2701
     34 C           7.9320   -1.9586   27.8157 C.3     1  UNL1        0.1152
     35 C           7.5461   -1.7834   26.3768 C.3     1  UNL1        0.1123
     36 N           6.0990   -1.6797   25.9957 N.pl3   1  UNL1       -0.3041
     37 C           5.0379   -1.7511   27.0534 C.3     1  UNL1        0.1123
     38 C           5.4237   -1.9263   28.4922 C.3     1  UNL1        0.1152
     39 C           5.7132   -1.5046   24.5567 C.ar    1  UNL1        0.0480
     40 C           4.3304   -1.8662   24.1016 C.ar    1  UNL1        0.0160
     41 C           3.9446   -1.6911   22.6627 C.ar    1  UNL1        0.0188
     42 C           4.9415   -1.1542   21.6789 C.ar    1  UNL1        0.0642
     43 C           6.3243   -0.7926   22.1340 C.ar    1  UNL1        0.0188
     44 C           6.7101   -0.9677   23.5729 C.ar    1  UNL1        0.0160
     45 N           4.5557   -0.9791   20.2400 N.ar    1  UNL1       -0.3036
     46 C           4.5078    0.3202   19.4919 C.ar    1  UNL1        0.0802
     47 C           4.0726    0.0298   18.0861 C.ar    1  UNL1        0.0205
     48 C           3.8515   -1.4489   17.9654 C.ar    1  UNL1        0.0205
     49 C           4.1501   -2.0724   19.2966 C.ar    1  UNL1        0.0802
@<TRIPOS>BOND
     1     1     2    2
     2     2    27    1
     3    27    28    2
     4    28    29    1
     5    28    31    1
     6    31    32    2
     7    31    33   am
     8    33    34    1
     9    34    35    1
    10    35    36    1
    11    36    39    1
    12    39    40   ar
    13    40    41   ar
    14    41    42   ar
    15    42    45    1
    16    45    46   ar
    17    46    47   ar
    18    47    48   ar
    19    48    49   ar
    20    42    43   ar
    21    43    44   ar
    22    36    37    1
    23    37    38    1
    24     2     3    1
    25     3     4   ar
    26     4     5   ar
    27     5    10    1
    28    10    11    1
    29    11    12   ar
    30    12    13   ar
    31    13    14    1
    32    13    15   ar
    33    15    16   ar
    34    16    17    1
    35    16    18   ar
    36     5     6   ar
    37     6     7   ar
    38     7    19    1
    39    19    20    1
    40    20    21   ar
    41    21    22   ar
    42    22    23   ar
    43    23    24   ar
    44    24    25   ar
    45    25    26    1
    46     7     8   ar
    47     8     9    2
    48    38    33    1
    49     8     3   ar
    50    44    39   ar
    51    18    11   ar
    52    25    20   ar
    53    49    45   ar
    54    29    30    1
@<TRIPOS>MOLECULE
*****
 49 54 0 0 0
SMALL
GASTEIGER

@<TRIPOS>ATOM
      1 O           7.8390   -4.1945   23.6956 O.2     1  UNL1       -0.2863
      2 C           6.6576   -3.8537   24.5548 C.2     1  UNL1        0.2034
      3 C           5.6372   -2.8672   24.0697 C.ar    1  UNL1        0.0949
      4 C           5.3144   -1.6556   24.8932 C.ar    1  UNL1        0.0055
      5 C           4.2939   -0.6691   24.4081 C.ar    1  UNL1       -0.0002
      6 C           3.5962   -0.8941   23.0995 C.ar    1  UNL1        0.0746
      7 N           3.9188   -2.1055   22.2759 N.ar    1  UNL1       -0.2901
      8 C           4.9394   -3.0921   22.7610 C.ar    1  UNL1        0.2642
      9 O           5.2621   -4.3036   21.9375 O.2     1  UNL1       -0.2669
     10 C           3.9713    0.5423   25.2316 C.3     1  UNL1        0.0543
     11 C           2.8793    0.4822   26.2582 C.ar    1  UNL1       -0.0133
     12 C           1.5564    1.1343   25.9852 C.ar    1  UNL1        0.0259
     13 C           0.4645    1.0742   27.0118 C.ar    1  UNL1        0.1421
     14 F          -0.8585    1.7263   26.7388 F       1  UNL1       -0.2041
     15 C           0.6954    0.3620   28.3116 C.ar    1  UNL1        0.0592
     16 C           2.0184   -0.2902   28.5847 C.ar    1  UNL1        0.1421
     17 F           2.2493   -1.0024   29.8844 F       1  UNL1       -0.2041
     18 C           3.1103   -0.2301   27.5580 C.ar    1  UNL1        0.0259
     19 C           3.2211   -2.3305   20.9673 C.3     1  UNL1        0.1380
     20 C           3.7079   -1.6381   19.7290 C.ar    1  UNL1        0.0280
     21 C           5.0901   -1.9086   19.2128 C.ar    1  UNL1       -0.0002
     22 C           5.5770   -1.2161   17.9744 C.ar    1  UNL1       -0.0001
     23 C           4.6818   -0.2532   17.2523 C.ar    1  UNL1        0.0023
     24 C           3.2996    0.0172   17.7686 C.ar    1  UNL1        0.0294
     25 C           2.8127   -0.6752   19.0069 C.ar    1  UNL1        0.1380
     26 F           1.4306   -0.4047   19.5232 F       1  UNL1       -0.2044
     27 C           6.4968   -4.4993   25.8991 C.2     1  UNL1        0.0835
     28 C           7.6535   -4.5436   26.8531 C.2     1  UNL1        0.1910
     29 O           8.9711   -3.9423   26.4628 O.2     1  UNL1       -0.5018
     30 H           9.0715   -3.5390   25.6230 H       1  UNL1        0.2924
     31 C           7.4926   -5.1893   28.1974 C.2     1  UNL1        0.2831
     32 O           7.6505   -6.6741   28.3401 O.2     1  UNL1       -0.2666
     33 N           7.1739   -4.3501   29.3992 N.am    1  UNL1       -0.2701
     34 C           7.0130   -4.9957   30.7435 C.3     1  UNL1        0.1152
     35 C           6.6943   -4.1565   31.9452 C.3     1  UNL1        0.1123
     36 N           6.5364   -2.6717   31.8026 N.pl3   1  UNL1       -0.3041
     37 C           6.6973   -2.0260   30.4583 C.3     1  UNL1        0.1123
     38 C           7.0160   -2.8652   29.2566 C.3     1  UNL1        0.1152
     39 C           6.2177   -1.8324   33.0044 C.ar    1  UNL1        0.0480
     40 C           4.8517   -1.8937   33.6210 C.ar    1  UNL1        0.0160
     41 C           4.5330   -1.0545   34.8228 C.ar    1  UNL1        0.0188
     42 C           5.5803   -0.1541   35.4079 C.ar    1  UNL1        0.0642
     43 C           6.9464   -0.0928   34.7912 C.ar    1  UNL1        0.0188
     44 C           7.2650   -0.9320   33.5895 C.ar    1  UNL1        0.0160
     45 N           5.2616    0.6851   36.6096 N.ar    1  UNL1       -0.3036
     46 C           6.2261    1.5585   37.3560 C.ar    1  UNL1        0.0802
     47 C           5.4831    2.2115   38.4836 C.ar    1  UNL1        0.0205
     48 C           4.0594    1.7416   38.4342 C.ar    1  UNL1        0.0205
     49 C           3.9226    0.7983   37.2760 C.ar    1  UNL1        0.0802
@<TRIPOS>BOND
     1     1     2    2
     2     2    27    1
     3    27    28    2
     4    28    29    1
     5    28    31    1
     6    31    32    2
     7    31    33   am
     8    33    34    1
     9    34    35    1
    10    35    36    1
    11    36    39    1
    12    39    40   ar
    13    40    41   ar
    14    41    42   ar
    15    42    45    1
    16    45    46   ar
    17    46    47   ar
    18    47    48   ar
    19    48    49   ar
    20    42    43   ar
    21    43    44   ar
    22    36    37    1
    23    37    38    1
    24     2     3    1
    25     3     4   ar
    26     4     5   ar
    27     5    10    1
    28    10    11    1
    29    11    12   ar
    30    12    13   ar
    31    13    14    1
    32    13    15   ar
    33    15    16   ar
    34    16    17    1
    35    16    18   ar
    36     5     6   ar
    37     6     7   ar
    38     7    19    1
    39    19    20    1
    40    20    21   ar
    41    21    22   ar
    42    22    23   ar
    43    23    24   ar
    44    24    25   ar
    45    25    26    1
    46     7     8   ar
    47     8     9    2
    48    38    33    1
    49     8     3   ar
    50    44    39   ar
    51    18    11   ar
    52    25    20   ar
    53    49    45   ar
    54    29    30    1
@<TRIPOS>MOLECULE
*****
 49 54 0 0 0
SMALL
GASTEIGER

@<TRIPOS>ATOM
      1 O           7.4684   -3.2608   24.0768 O.2     1  UNL1       -0.2863
      2 C           6.2900   -3.0009   24.9678 C.2     1  UNL1        0.2034
      3 C           5.2066   -2.0633   24.5241 C.ar    1  UNL1        0.0949
      4 C           4.5990   -2.2107   23.1605 C.ar    1  UNL1        0.0055
      5 C           3.5155   -1.2730   22.7168 C.ar    1  UNL1       -0.0002
      6 C           3.0396   -0.1879   23.6366 C.ar    1  UNL1        0.0746
      7 N           3.6472   -0.0404   25.0001 N.ar    1  UNL1       -0.2901
      8 C           4.7307   -0.9781   25.4439 C.ar    1  UNL1        0.2642
      9 O           5.3382   -0.8307   26.8073 O.2     1  UNL1       -0.2669
     10 C           2.9080   -1.4205   21.3534 C.3     1  UNL1        0.0543
     11 C           3.7563   -1.8632   20.1982 C.ar    1  UNL1       -0.0133
     12 C           3.7911   -3.3101   19.8044 C.ar    1  UNL1        0.0259
     13 C           4.6394   -3.7528   18.6492 C.ar    1  UNL1        0.1421
     14 F           4.6742   -5.1997   18.2553 F       1  UNL1       -0.2041
     15 C           5.4529   -2.7486   17.8878 C.ar    1  UNL1        0.0592
     16 C           5.4181   -1.3016   18.2816 C.ar    1  UNL1        0.1421
     17 F           6.2316   -0.2973   17.5203 F       1  UNL1       -0.2041
     18 C           4.5698   -0.8589   19.4368 C.ar    1  UNL1        0.0259
     19 C           3.1713    1.0447   25.9199 C.3     1  UNL1        0.1380
     20 C           1.9695    0.8182   26.7885 C.ar    1  UNL1        0.0280
     21 C           2.1096    0.0740   28.0833 C.ar    1  UNL1       -0.0002
     22 C           0.9078   -0.1525   28.9519 C.ar    1  UNL1       -0.0001
     23 C          -0.4340    0.3651   28.5257 C.ar    1  UNL1        0.0023
     24 C          -0.5740    1.1093   27.2308 C.ar    1  UNL1        0.0294
     25 C           0.6278    1.3358   26.3623 C.ar    1  UNL1        0.1380
     26 F           0.4877    2.0800   25.0675 F       1  UNL1       -0.2044
     27 C           6.1950   -3.6787   26.3025 C.2     1  UNL1        0.0835
     28 C           7.4433   -4.0159   27.0630 C.2     1  UNL1        0.1910
     29 O           8.7865   -3.6753   26.4886 O.2     1  UNL1       -0.5018
     30 H           8.8458   -3.2519   25.6548 H       1  UNL1        0.2924
     31 C           7.3484   -4.6937   28.3977 C.2     1  UNL1        0.2831
     32 O           7.5489   -6.1766   28.5018 O.2     1  UNL1       -0.2666
     33 N           7.0528   -3.8887   29.6284 N.am    1  UNL1       -0.2701
     34 C           6.9579   -4.5665   30.9631 C.3     1  UNL1        0.1152
     35 C           6.6623   -3.7614   32.1937 C.3     1  UNL1        0.1123
     36 N           6.4617   -2.2785   32.0896 N.pl3   1  UNL1       -0.3041
     37 C           6.5567   -1.6007   30.7549 C.3     1  UNL1        0.1123
     38 C           6.8522   -2.4058   29.5243 C.3     1  UNL1        0.1152
     39 C           6.1662   -1.4734   33.3203 C.ar    1  UNL1        0.0480
     40 C           4.8347   -1.6022   33.9989 C.ar    1  UNL1        0.0160
     41 C           4.5392   -0.7971   35.2297 C.ar    1  UNL1        0.0188
     42 C           5.5752    0.1367   35.7817 C.ar    1  UNL1        0.0642
     43 C           6.9067    0.2654   35.1030 C.ar    1  UNL1        0.0188
     44 C           7.2022   -0.5396   33.8724 C.ar    1  UNL1        0.0160
     45 N           5.2797    0.9418   37.0123 N.ar    1  UNL1       -0.3036
     46 C           6.2534    1.8096   37.7531 C.ar    1  UNL1        0.0802
     47 C           5.5341    2.4245   38.9169 C.ar    1  UNL1        0.0205
     48 C           4.1158    1.9367   38.8954 C.ar    1  UNL1        0.0205
     49 C           3.9585    1.0204   37.7183 C.ar    1  UNL1        0.0802
@<TRIPOS>BOND
     1     1     2    2
     2     2    27    1
     3    27    28    2
     4    28    29    1
     5    28    31    1
     6    31    32    2
     7    31    33   am
     8    33    34    1
     9    34    35    1
    10    35    36    1
    11    36    39    1
    12    39    40   ar
    13    40    41   ar
    14    41    42   ar
    15    42    45    1
    16    45    46   ar
    17    46    47   ar
    18    47    48   ar
    19    48    49   ar
    20    42    43   ar
    21    43    44   ar
    22    36    37    1
    23    37    38    1
    24     2     3    1
    25     3     4   ar
    26     4     5   ar
    27     5    10    1
    28    10    11    1
    29    11    12   ar
    30    12    13   ar
    31    13    14    1
    32    13    15   ar
    33    15    16   ar
    34    16    17    1
    35    16    18   ar
    36     5     6   ar
    37     6     7   ar
    38     7    19    1
    39    19    20    1
    40    20    21   ar
    41    21    22   ar
    42    22    23   ar
    43    23    24   ar
    44    24    25   ar
    45    25    26    1
    46     7     8   ar
    47     8     9    2
    48    38    33    1
    49     8     3   ar
    50    44    39   ar
    51    18    11   ar
    52    25    20   ar
    53    49    45   ar
    54    29    30    1
@<TRIPOS>MOLECULE
*****
 49 54 0 0 0
SMALL
GASTEIGER

@<TRIPOS>ATOM
      1 O           4.2018    2.7265   23.6974 O.2     1  UNL1       -0.2863
      2 C           2.7434    2.4464   23.4865 C.2     1  UNL1        0.2034
      3 C           2.2543    1.9858   22.1454 C.ar    1  UNL1        0.0949
      4 C           2.3502    0.5368   21.7693 C.ar    1  UNL1        0.0055
      5 C           1.8612    0.0761   20.4282 C.ar    1  UNL1       -0.0002
      6 C           1.2763    1.0644   19.4632 C.ar    1  UNL1        0.0746
      7 N           1.1804    2.5132   19.8392 N.ar    1  UNL1       -0.2901
      8 C           1.6694    2.9740   21.1804 C.ar    1  UNL1        0.2642
      9 O           1.5736    4.4229   21.5565 O.2     1  UNL1       -0.2669
     10 C           1.9570   -1.3728   20.0521 C.3     1  UNL1        0.0543
     11 C           3.2177   -1.9068   19.4394 C.ar    1  UNL1       -0.0133
     12 C           4.2735   -0.9600   18.9506 C.ar    1  UNL1        0.0259
     13 C           5.5342   -1.4940   18.3378 C.ar    1  UNL1        0.1421
     14 F           6.5900   -0.5473   17.8490 F       1  UNL1       -0.2041
     15 C           5.7391   -2.9747   18.2138 C.ar    1  UNL1        0.0592
     16 C           4.6833   -3.9216   18.7026 C.ar    1  UNL1        0.1421
     17 F           4.8882   -5.4023   18.5786 F       1  UNL1       -0.2041
     18 C           3.4226   -3.3876   19.3154 C.ar    1  UNL1        0.0259
     19 C           0.5955    3.5015   18.8742 C.3     1  UNL1        0.1380
     20 C          -0.8931    3.6421   18.7547 C.ar    1  UNL1        0.0280
     21 C          -1.7620    3.4726   19.9655 C.ar    1  UNL1       -0.0002
     22 C          -3.2507    3.6132   19.8460 C.ar    1  UNL1       -0.0001
     23 C          -3.8703    3.9234   18.5157 C.ar    1  UNL1        0.0023
     24 C          -3.0013    4.0930   17.3048 C.ar    1  UNL1        0.0294
     25 C          -1.5127    3.9523   17.4243 C.ar    1  UNL1        0.1380
     26 F          -0.6438    4.1219   16.2135 F       1  UNL1       -0.2044
     27 C           1.7740    2.6270   24.6168 C.2     1  UNL1        0.0835
     28 C           1.3938    1.4556   25.4733 C.2     1  UNL1        0.1910
     29 O           1.9831    0.1037   25.1994 O.2     1  UNL1       -0.5018
     30 H           2.5887   -0.0091   24.4933 H       1  UNL1        0.2924
     31 C           0.4244    1.6362   26.6035 C.2     1  UNL1        0.2831
     32 O          -1.0395    1.7960   26.3178 O.2     1  UNL1       -0.2666
     33 N           0.9188    1.6569   28.0196 N.am    1  UNL1       -0.2701
     34 C          -0.0507    1.8375   29.1499 C.3     1  UNL1        0.1152
     35 C           0.4437    1.8582   30.5659 C.3     1  UNL1        0.1123
     36 N           1.9076    1.6984   30.8516 N.pl3   1  UNL1       -0.3041
     37 C           2.8770    1.5179   29.7213 C.3     1  UNL1        0.1123
     38 C           2.3826    1.4971   28.3053 C.3     1  UNL1        0.1152
     39 C           2.4020    1.7192   32.2677 C.ar    1  UNL1        0.0480
     40 C           1.8466    2.7159   33.2414 C.ar    1  UNL1        0.0160
     41 C           2.3410    2.7366   34.6575 C.ar    1  UNL1        0.0188
     42 C           3.3908    1.7607   35.0998 C.ar    1  UNL1        0.0642
     43 C           3.9461    0.7640   34.1259 C.ar    1  UNL1        0.0188
     44 C           3.4517    0.7433   32.7099 C.ar    1  UNL1        0.0160
     45 N           3.8852    1.7814   36.5158 N.ar    1  UNL1       -0.3036
     46 C           5.2360    2.2481   36.9713 C.ar    1  UNL1        0.0802
     47 C           5.3013    2.0942   38.4619 C.ar    1  UNL1        0.0205
     48 C           3.9907    1.5324   38.9277 C.ar    1  UNL1        0.0205
     49 C           3.1155    1.3391   37.7249 C.ar    1  UNL1        0.0802
@<TRIPOS>BOND
     1     1     2    2
     2     2    27    1
     3    27    28    2
     4    28    29    1
     5    28    31    1
     6    31    32    2
     7    31    33   am
     8    33    34    1
     9    34    35    1
    10    35    36    1
    11    36    39    1
    12    39    40   ar
    13    40    41   ar
    14    41    42   ar
    15    42    45    1
    16    45    46   ar
    17    46    47   ar
    18    47    48   ar
    19    48    49   ar
    20    42    43   ar
    21    43    44   ar
    22    36    37    1
    23    37    38    1
    24     2     3    1
    25     3     4   ar
    26     4     5   ar
    27     5    10    1
    28    10    11    1
    29    11    12   ar
    30    12    13   ar
    31    13    14    1
    32    13    15   ar
    33    15    16   ar
    34    16    17    1
    35    16    18   ar
    36     5     6   ar
    37     6     7   ar
    38     7    19    1
    39    19    20    1
    40    20    21   ar
    41    21    22   ar
    42    22    23   ar
    43    23    24   ar
    44    24    25   ar
    45    25    26    1
    46     7     8   ar
    47     8     9    2
    48    38    33    1
    49     8     3   ar
    50    44    39   ar
    51    18    11   ar
    52    25    20   ar
    53    49    45   ar
    54    29    30    1
@<TRIPOS>MOLECULE
*****
 49 54 0 0 0
SMALL
GASTEIGER

@<TRIPOS>ATOM
      1 O           4.7830   -5.3085   19.6871 O.2     1  UNL1       -0.2863
      2 C           4.5139   -3.9459   20.2536 C.2     1  UNL1        0.2034
      3 C           5.1067   -3.5522   21.5740 C.ar    1  UNL1        0.0949
      4 C           4.2784   -2.8009   22.5738 C.ar    1  UNL1        0.0055
      5 C           4.8712   -2.4072   23.8943 C.ar    1  UNL1       -0.0002
      6 C           6.2922   -2.7648   24.2150 C.ar    1  UNL1        0.0746
      7 N           7.1205   -3.5161   23.2152 N.ar    1  UNL1       -0.2901
      8 C           6.5277   -3.9098   21.8947 C.ar    1  UNL1        0.2642
      9 O           7.3559   -4.6612   20.8950 O.2     1  UNL1       -0.2669
     10 C           4.0430   -1.6559   24.8940 C.3     1  UNL1        0.0543
     11 C           3.6324   -0.2403   24.6153 C.ar    1  UNL1       -0.0133
     12 C           2.4326    0.3416   25.3021 C.ar    1  UNL1        0.0259
     13 C           2.0220    1.7571   25.0234 C.ar    1  UNL1        0.1421
     14 F           0.8221    2.3390   25.7102 F       1  UNL1       -0.2041
     15 C           2.8112    2.5908   24.0580 C.ar    1  UNL1        0.0592
     16 C           4.0111    2.0089   23.3712 C.ar    1  UNL1        0.1421
     17 F           4.8004    2.8425   22.4058 F       1  UNL1       -0.2041
     18 C           4.4217    0.5933   23.6499 C.ar    1  UNL1        0.0259
     19 C           8.5415   -3.8737   23.5359 C.3     1  UNL1        0.1380
     20 C           8.8576   -5.1968   24.1679 C.ar    1  UNL1        0.0280
     21 C           9.2053   -6.3751   23.3071 C.ar    1  UNL1       -0.0002
     22 C           9.5214   -7.6983   23.9391 C.ar    1  UNL1       -0.0001
     23 C           9.4898   -7.8432   25.4317 C.ar    1  UNL1        0.0023
     24 C           9.1421   -6.6649   26.2924 C.ar    1  UNL1        0.0294
     25 C           8.8260   -5.3417   25.6605 C.ar    1  UNL1        0.1380
     26 F           8.4783   -4.1635   26.5212 F       1  UNL1       -0.2044
     27 C           3.6520   -2.9770   19.4997 C.2     1  UNL1        0.0835
     28 C           4.2300   -1.6819   19.0112 C.2     1  UNL1        0.1910
     29 O           5.6698   -1.3557   19.2766 O.2     1  UNL1       -0.5018
     30 H           6.2082   -1.9609   19.7475 H       1  UNL1        0.2924
     31 C           3.3681   -0.7130   18.2573 C.2     1  UNL1        0.2831
     32 O           3.5373   -0.5545   16.7753 O.2     1  UNL1       -0.2666
     33 N           2.3370    0.0975   18.9854 N.am    1  UNL1       -0.2701
     34 C           1.4751    1.0664   18.2315 C.3     1  UNL1        0.1152
     35 C           0.4441    1.8767   18.9596 C.3     1  UNL1        0.1123
     36 N           0.2749    1.7182   20.4416 N.pl3   1  UNL1       -0.3041
     37 C           1.1368    0.7494   21.1955 C.3     1  UNL1        0.1123
     38 C           2.1678   -0.0610   20.4674 C.3     1  UNL1        0.1152
     39 C          -0.7562    2.5287   21.1697 C.ar    1  UNL1        0.0480
     40 C          -1.9579    3.0466   20.4365 C.ar    1  UNL1        0.0160
     41 C          -2.9890    3.8571   21.1646 C.ar    1  UNL1        0.0188
     42 C          -2.8183    4.1496   22.6259 C.ar    1  UNL1        0.0642
     43 C          -1.6165    3.6316   23.3590 C.ar    1  UNL1        0.0188
     44 C          -0.5855    2.8212   22.6310 C.ar    1  UNL1        0.0160
     45 N          -3.8494    4.9600   23.3540 N.ar    1  UNL1       -0.3036
     46 C          -4.2469    6.3711   23.0367 C.ar    1  UNL1        0.0802
     47 C          -5.3072    6.7848   24.0138 C.ar    1  UNL1        0.0205
     48 C          -5.5648    5.6293   24.9350 C.ar    1  UNL1        0.0205
     49 C          -4.6639    4.5015   24.5272 C.ar    1  UNL1        0.0802
@<TRIPOS>BOND
     1     1     2    2
     2     2    27    1
     3    27    28    2
     4    28    29    1
     5    28    31    1
     6    31    32    2
     7    31    33   am
     8    33    34    1
     9    34    35    1
    10    35    36    1
    11    36    39    1
    12    39    40   ar
    13    40    41   ar
    14    41    42   ar
    15    42    45    1
    16    45    46   ar
    17    46    47   ar
    18    47    48   ar
    19    48    49   ar
    20    42    43   ar
    21    43    44   ar
    22    36    37    1
    23    37    38    1
    24     2     3    1
    25     3     4   ar
    26     4     5   ar
    27     5    10    1
    28    10    11    1
    29    11    12   ar
    30    12    13   ar
    31    13    14    1
    32    13    15   ar
    33    15    16   ar
    34    16    17    1
    35    16    18   ar
    36     5     6   ar
    37     6     7   ar
    38     7    19    1
    39    19    20    1
    40    20    21   ar
    41    21    22   ar
    42    22    23   ar
    43    23    24   ar
    44    24    25   ar
    45    25    26    1
    46     7     8   ar
    47     8     9    2
    48    38    33    1
    49     8     3   ar
    50    44    39   ar
    51    18    11   ar
    52    25    20   ar
    53    49    45   ar
    54    29    30    1
@<TRIPOS>MOLECULE
*****
 49 54 0 0 0
SMALL
GASTEIGER

@<TRIPOS>ATOM
      1 O           3.3695   -1.7124   28.1302 O.2     1  UNL1       -0.2863
      2 C           3.7034   -0.8098   26.9796 C.2     1  UNL1        0.2034
      3 C           4.3317   -1.3753   25.7405 C.ar    1  UNL1        0.0949
      4 C           3.6217   -1.2680   24.4235 C.ar    1  UNL1        0.0055
      5 C           4.2500   -1.8335   23.1845 C.ar    1  UNL1       -0.0002
      6 C           5.5883   -2.5064   23.2623 C.ar    1  UNL1        0.0746
      7 N           6.2984   -2.6137   24.5792 N.ar    1  UNL1       -0.2901
      8 C           5.6701   -2.0482   25.8184 C.ar    1  UNL1        0.2642
      9 O           6.3801   -2.1555   27.1352 O.2     1  UNL1       -0.2669
     10 C           3.5399   -1.7262   21.8676 C.3     1  UNL1        0.0543
     11 C           4.2327   -2.1471   20.6055 C.ar    1  UNL1       -0.0133
     12 C           5.0277   -1.1486   19.8175 C.ar    1  UNL1        0.0259
     13 C           5.7204   -1.5695   18.5554 C.ar    1  UNL1        0.1421
     14 F           6.5154   -0.5710   17.7674 F       1  UNL1       -0.2041
     15 C           5.6182   -2.9888   18.0812 C.ar    1  UNL1        0.0592
     16 C           4.8232   -3.9874   18.8692 C.ar    1  UNL1        0.1421
     17 F           4.7210   -5.4068   18.3951 F       1  UNL1       -0.2041
     18 C           4.1304   -3.5665   20.1313 C.ar    1  UNL1        0.0259
     19 C           7.6368   -3.2866   24.6570 C.3     1  UNL1        0.1380
     20 C           7.7194   -4.7750   24.8237 C.ar    1  UNL1        0.0280
     21 C           7.2202   -5.4173   26.0839 C.ar    1  UNL1       -0.0002
     22 C           7.3028   -6.9058   26.2507 C.ar    1  UNL1       -0.0001
     23 C           7.8845   -7.7518   25.1571 C.ar    1  UNL1        0.0023
     24 C           8.3837   -7.1094   23.8969 C.ar    1  UNL1        0.0294
     25 C           8.3011   -5.6210   23.7302 C.ar    1  UNL1        0.1380
     26 F           8.8002   -4.9787   22.4699 F       1  UNL1       -0.2044
     27 C           3.4090    0.6583   27.0681 C.2     1  UNL1        0.0835
     28 C           2.4459    1.1694   28.0984 C.2     1  UNL1        0.1910
     29 O           1.7772    0.2123   29.0400 O.2     1  UNL1       -0.5018
     30 H           1.9612   -0.7048   28.9847 H       1  UNL1        0.2924
     31 C           2.1515    2.6375   28.1869 C.2     1  UNL1        0.2831
     32 O           3.1823    3.5772   28.7387 O.2     1  UNL1       -0.2666
     33 N           0.8263    3.1660   27.7236 N.am    1  UNL1       -0.2701
     34 C           0.5320    4.6342   27.8121 C.3     1  UNL1        0.1152
     35 C          -0.7932    5.1626   27.3488 C.3     1  UNL1        0.1123
     36 N          -1.8240    4.2229   26.7970 N.pl3   1  UNL1       -0.3041
     37 C          -1.5296    2.7548   26.7084 C.3     1  UNL1        0.1123
     38 C          -0.2044    2.2263   27.1717 C.3     1  UNL1        0.1152
     39 C          -3.1492    4.7514   26.3336 C.ar    1  UNL1        0.0480
     40 C          -3.4885    6.1995   26.5280 C.ar    1  UNL1        0.0160
     41 C          -4.8137    6.7280   26.0646 C.ar    1  UNL1        0.0188
     42 C          -5.7995    5.8084   25.4070 C.ar    1  UNL1        0.0642
     43 C          -5.4601    4.3602   25.2127 C.ar    1  UNL1        0.0188
     44 C          -4.1349    3.8318   25.6760 C.ar    1  UNL1        0.0160
     45 N          -7.1247    6.3368   24.9437 N.ar    1  UNL1       -0.3036
     46 C          -8.3589    6.4812   25.7839 C.ar    1  UNL1        0.0802
     47 C          -9.4453    7.0473   24.9184 C.ar    1  UNL1        0.0205
     48 C          -8.8825    7.2527   23.5431 C.ar    1  UNL1        0.0205
     49 C          -7.4483    6.8136   23.5589 C.ar    1  UNL1        0.0802
@<TRIPOS>BOND
     1     1     2    2
     2     2    27    1
     3    27    28    2
     4    28    29    1
     5    28    31    1
     6    31    32    2
     7    31    33   am
     8    33    34    1
     9    34    35    1
    10    35    36    1
    11    36    39    1
    12    39    40   ar
    13    40    41   ar
    14    41    42   ar
    15    42    45    1
    16    45    46   ar
    17    46    47   ar
    18    47    48   ar
    19    48    49   ar
    20    42    43   ar
    21    43    44   ar
    22    36    37    1
    23    37    38    1
    24     2     3    1
    25     3     4   ar
    26     4     5   ar
    27     5    10    1
    28    10    11    1
    29    11    12   ar
    30    12    13   ar
    31    13    14    1
    32    13    15   ar
    33    15    16   ar
    34    16    17    1
    35    16    18   ar
    36     5     6   ar
    37     6     7   ar
    38     7    19    1
    39    19    20    1
    40    20    21   ar
    41    21    22   ar
    42    22    23   ar
    43    23    24   ar
    44    24    25   ar
    45    25    26    1
    46     7     8   ar
    47     8     9    2
    48    38    33    1
    49     8     3   ar
    50    44    39   ar
    51    18    11   ar
    52    25    20   ar
    53    49    45   ar
    54    29    30    1
@<TRIPOS>MOLECULE
*****
 49 54 0 0 0
SMALL
GASTEIGER

@<TRIPOS>ATOM
      1 O           3.9564   -2.3115   33.6385 O.2     1  UNL1       -0.2863
      2 C           4.8190   -1.1481   33.2482 C.2     1  UNL1        0.2034
      3 C           4.5613    0.2074   33.8366 C.ar    1  UNL1        0.0949
      4 C           4.3335    1.3851   32.9359 C.ar    1  UNL1        0.0055
      5 C           4.0758    2.7405   33.5243 C.ar    1  UNL1       -0.0002
      6 C           4.0458    2.9184   35.0134 C.ar    1  UNL1        0.0746
      7 N           4.2735    1.7408   35.9141 N.ar    1  UNL1       -0.2901
      8 C           4.5313    0.3852   35.3257 C.ar    1  UNL1        0.2642
      9 O           4.7590   -0.7924   36.2265 O.2     1  UNL1       -0.2669
     10 C           3.8481    3.9181   32.6235 C.3     1  UNL1        0.0543
     11 C           2.4557    4.4236   32.3874 C.ar    1  UNL1       -0.0133
     12 C           1.6329    4.9207   33.5389 C.ar    1  UNL1        0.0259
     13 C           0.2405    5.4262   33.3028 C.ar    1  UNL1        0.1421
     14 F          -0.5822    5.9232   34.4542 F       1  UNL1       -0.2041
     15 C          -0.3291    5.4346   31.9152 C.ar    1  UNL1        0.0592
     16 C           0.4937    4.9375   30.7636 C.ar    1  UNL1        0.1421
     17 F          -0.0759    4.9459   29.3761 F       1  UNL1       -0.2041
     18 C           1.8861    4.4320   30.9998 C.ar    1  UNL1        0.0259
     19 C           4.2435    1.9187   37.4032 C.3     1  UNL1        0.1380
     20 C           2.9485    1.7862   38.1484 C.ar    1  UNL1        0.0280
     21 C           2.5895    0.4851   38.8027 C.ar    1  UNL1       -0.0002
     22 C           1.2944    0.3525   39.5480 C.ar    1  UNL1       -0.0001
     23 C           0.3585    1.5212   39.6389 C.ar    1  UNL1        0.0023
     24 C           0.7176    2.8223   38.9846 C.ar    1  UNL1        0.0294
     25 C           2.0126    2.9548   38.2393 C.ar    1  UNL1        0.1380
     26 F           2.3716    4.2559   37.5850 F       1  UNL1       -0.2044
     27 C           5.9393   -1.3401   32.2695 C.2     1  UNL1        0.0835
     28 C           6.4514   -2.7194   31.9768 C.2     1  UNL1        0.1910
     29 O           5.8430   -3.9065   32.6628 O.2     1  UNL1       -0.5018
     30 H           5.1431   -3.7865   33.2742 H       1  UNL1        0.2924
     31 C           7.5717   -2.9114   30.9981 C.2     1  UNL1        0.2831
     32 O           8.9837   -3.0346   31.4891 O.2     1  UNL1       -0.2666
     33 N           7.2801   -2.9803   29.5282 N.am    1  UNL1       -0.2701
     34 C           8.4004   -3.1723   28.5495 C.3     1  UNL1        0.1152
     35 C           8.1088   -3.2412   27.0798 C.3     1  UNL1        0.1123
     36 N           6.6968   -3.1180   26.5888 N.pl3   1  UNL1       -0.3041
     37 C           5.5764   -2.9260   27.5675 C.3     1  UNL1        0.1123
     38 C           5.8681   -2.8571   29.0372 C.3     1  UNL1        0.1152
     39 C           6.4051   -3.1869   25.1190 C.ar    1  UNL1        0.0480
     40 C           5.1941   -2.4994   24.5616 C.ar    1  UNL1        0.0160
     41 C           4.9025   -2.5682   23.0918 C.ar    1  UNL1        0.0188
     42 C           5.8219   -3.3247   22.1794 C.ar    1  UNL1        0.0642
     43 C           7.0330   -4.0122   22.7368 C.ar    1  UNL1        0.0188
     44 C           7.3246   -3.9433   24.2066 C.ar    1  UNL1        0.0160
     45 N           5.5304   -3.3935   20.7097 N.ar    1  UNL1       -0.3036
     46 C           4.4068   -4.1527   20.0683 C.ar    1  UNL1        0.0802
     47 C           4.4932   -3.9437   18.5855 C.ar    1  UNL1        0.0205
     48 C           5.6702   -3.0554   18.3104 C.ar    1  UNL1        0.0205
     49 C           6.3112   -2.7154   19.6232 C.ar    1  UNL1        0.0802
@<TRIPOS>BOND
     1     1     2    2
     2     2    27    1
     3    27    28    2
     4    28    29    1
     5    28    31    1
     6    31    32    2
     7    31    33   am
     8    33    34    1
     9    34    35    1
    10    35    36    1
    11    36    39    1
    12    39    40   ar
    13    40    41   ar
    14    41    42   ar
    15    42    45    1
    16    45    46   ar
    17    46    47   ar
    18    47    48   ar
    19    48    49   ar
    20    42    43   ar
    21    43    44   ar
    22    36    37    1
    23    37    38    1
    24     2     3    1
    25     3     4   ar
    26     4     5   ar
    27     5    10    1
    28    10    11    1
    29    11    12   ar
    30    12    13   ar
    31    13    14    1
    32    13    15   ar
    33    15    16   ar
    34    16    17    1
    35    16    18   ar
    36     5     6   ar
    37     6     7   ar
    38     7    19    1
    39    19    20    1
    40    20    21   ar
    41    21    22   ar
    42    22    23   ar
    43    23    24   ar
    44    24    25   ar
    45    25    26    1
    46     7     8   ar
    47     8     9    2
    48    38    33    1
    49     8     3   ar
    50    44    39   ar
    51    18    11   ar
    52    25    20   ar
    53    49    45   ar
    54    29    30    1
