@<TRIPOS>MOLECULE
*****
 33 36 0 0 0
SMALL
GASTEIGER

@<TRIPOS>ATOM
      1 C         -10.1881  -18.4264   22.5255 C.3     1  UNL1        0.0378
      2 C         -10.8838  -19.2103   21.4525 C.3     1  UNL1        0.0075
      3 C         -10.0961  -19.7826   20.3115 C.3     1  UNL1        0.0219
      4 C          -8.6126  -19.5709   20.2435 C.3     1  UNL1        0.0950
      5 N          -7.9170  -18.7869   21.3164 N.am    1  UNL1       -0.2637
      6 C          -6.4335  -18.5752   21.2484 C.2     1  UNL1        0.3077
      7 O          -5.7379  -17.7912   22.3215 O.2     1  UNL1       -0.2522
      8 N          -5.6458  -19.1474   20.1074 N.am    1  UNL1       -0.2681
      9 C          -8.7047  -18.2146   22.4575 C.3     1  UNL1        0.0989
     10 H          -6.1024  -19.6620   19.4031 H       1  UNL1        0.1564
     11 C          -4.1624  -18.9357   20.0395 C.ar    1  UNL1        0.0516
     12 C          -3.5821  -18.0219   19.0009 C.ar    1  UNL1        0.0156
     13 C          -2.0987  -17.8101   18.9329 C.ar    1  UNL1        0.0127
     14 C          -1.1956  -18.5120   19.9034 C.ar    1  UNL1        0.0578
     15 CL          0.2879  -18.3001   19.8354 Cl      1  UNL1       -0.0822
     16 C          -1.7759  -19.4256   20.9419 C.ar    1  UNL1        0.0127
     17 C          -3.2593  -19.6375   21.0099 C.ar    1  UNL1        0.0156
     18 C         -11.6003  -18.3575   23.0267 C.ar    1  UNL1       -0.0212
     19 C         -11.9144  -18.7485   24.4403 C.ar    1  UNL1       -0.0042
     20 C         -13.3265  -18.6796   24.9414 C.ar    1  UNL1       -0.0003
     21 C         -14.4246  -18.2198   24.0288 C.ar    1  UNL1       -0.0000
     22 C         -14.1105  -17.8288   22.6152 C.ar    1  UNL1       -0.0003
     23 C         -12.6984  -17.8977   22.1141 C.ar    1  UNL1       -0.0042
     24 C          -9.9829  -17.6185   23.7726 C.3     1  UNL1        0.0153
     25 C          -9.7327  -16.1426   23.6774 C.3     1  UNL1        0.0857
     26 O          -7.7404  -15.1501   22.3373 O.2     1  UNL1       -0.2749
     27 C          -8.3267  -15.6214   23.6350 C.2     1  UNL1        0.2258
     28 N          -7.5072  -15.5716   24.8904 N.am    1  UNL1       -0.2744
     29 C          -8.0935  -16.0430   26.1881 C.3     1  UNL1        0.1255
     30 C          -7.2740  -15.9931   27.4434 C.3     1  UNL1        0.1636
     31 O          -5.8680  -15.4720   27.4010 O.3     1  UNL1       -0.3501
     32 C          -5.2817  -15.0006   26.1032 C.3     1  UNL1        0.1636
     33 C          -6.1013  -15.0505   24.8480 C.3     1  UNL1        0.1255
@<TRIPOS>BOND
     1    26    27    2
     2    27    25    1
     3    25    24    1
     4    24     1    1
     5     1    18    1
     6    18    19   ar
     7    19    20   ar
     8    20    21   ar
     9    21    22   ar
    10    22    23   ar
    11     1     2    1
    12     2     3    1
    13     3     4    1
    14     4     5    1
    15     5     6   am
    16     6     7    2
    17     6     8   am
    18     8    11    1
    19    11    12   ar
    20    12    13   ar
    21    13    14   ar
    22    14    15    1
    23    14    16   ar
    24    16    17   ar
    25     5     9    1
    26    27    28   am
    27    28    29    1
    28    29    30    1
    29    30    31    1
    30    31    32    1
    31    32    33    1
    32     9     1    1
    33    33    28    1
    34    23    18   ar
    35    17    11   ar
    36     8    10    1
@<TRIPOS>MOLECULE
*****
 33 36 0 0 0
SMALL
GASTEIGER

@<TRIPOS>ATOM
      1 C           4.2695   -2.4265   22.5150 C.3     1  UNL1        0.0378
      2 C           3.5412   -1.3753   21.7312 C.3     1  UNL1        0.0075
      3 C           2.9224   -0.2063   22.4387 C.3     1  UNL1        0.0219
      4 C           3.0319   -0.0886   23.9301 C.3     1  UNL1        0.0950
      5 N           3.7602   -1.1398   24.7139 N.am    1  UNL1       -0.2637
      6 C           3.8697   -1.0221   26.2053 C.2     1  UNL1        0.3077
      7 O           4.5980   -2.0734   26.9891 O.2     1  UNL1       -0.2522
      8 N           3.2509    0.1469   26.9128 N.am    1  UNL1       -0.2681
      9 C           4.3790   -2.3088   24.0064 C.3     1  UNL1        0.0989
     10 H           2.7729    0.8369   26.3984 H       1  UNL1        0.1564
     11 C           3.3605    0.2645   28.4042 C.ar    1  UNL1        0.0516
     12 C           4.3571    1.2073   29.0109 C.ar    1  UNL1        0.0156
     13 C           4.4667    1.3250   30.5021 C.ar    1  UNL1        0.0127
     14 C           3.5798    0.4999   31.3869 C.ar    1  UNL1        0.0578
     15 CL          3.6894    0.6176   32.8782 Cl      1  UNL1       -0.0822
     16 C           2.5832   -0.4429   30.7802 C.ar    1  UNL1        0.0127
     17 C           2.4736   -0.5606   29.2888 C.ar    1  UNL1        0.0156
     18 C           4.4326   -2.9756   21.1286 C.ar    1  UNL1       -0.0212
     19 C           5.1442   -2.1705   20.0820 C.ar    1  UNL1       -0.0042
     20 C           5.3073   -2.7196   18.6957 C.ar    1  UNL1       -0.0003
     21 C           4.7588   -4.0737   18.3560 C.ar    1  UNL1       -0.0000
     22 C           4.0471   -4.8788   19.4026 C.ar    1  UNL1       -0.0003
     23 C           3.8841   -4.3297   20.7889 C.ar    1  UNL1       -0.0042
     24 C           5.0545   -3.6685   22.8174 C.3     1  UNL1        0.0153
     25 C           6.4757   -3.5622   23.2851 C.3     1  UNL1        0.0857
     26 O           8.0553   -5.2425   22.0887 O.2     1  UNL1       -0.2749
     27 C           7.3447   -4.7841   23.3276 C.2     1  UNL1        0.2258
     28 N           7.5029   -5.5476   24.6090 N.am    1  UNL1       -0.2744
     29 C           6.7922   -5.0892   25.8479 C.3     1  UNL1        0.1255
     30 C           6.9505   -5.8527   27.1293 C.3     1  UNL1        0.1636
     31 O           7.8195   -7.0747   27.1718 O.3     1  UNL1       -0.3501
     32 C           8.5302   -7.5331   25.9329 C.3     1  UNL1        0.1636
     33 C           8.3719   -6.7696   24.6515 C.3     1  UNL1        0.1255
@<TRIPOS>BOND
     1    26    27    2
     2    27    25    1
     3    25    24    1
     4    24     1    1
     5     1    18    1
     6    18    19   ar
     7    19    20   ar
     8    20    21   ar
     9    21    22   ar
    10    22    23   ar
    11     1     2    1
    12     2     3    1
    13     3     4    1
    14     4     5    1
    15     5     6   am
    16     6     7    2
    17     6     8   am
    18     8    11    1
    19    11    12   ar
    20    12    13   ar
    21    13    14   ar
    22    14    15    1
    23    14    16   ar
    24    16    17   ar
    25     5     9    1
    26    27    28   am
    27    28    29    1
    28    29    30    1
    29    30    31    1
    30    31    32    1
    31    32    33    1
    32     9     1    1
    33    33    28    1
    34    23    18   ar
    35    17    11   ar
    36     8    10    1
@<TRIPOS>MOLECULE
*****
 33 36 0 0 0
SMALL
GASTEIGER

@<TRIPOS>ATOM
      1 C           1.9102    1.5909   19.7329 C.3     1  UNL1        0.0378
      2 C           1.4333    2.0915   18.4018 C.3     1  UNL1        0.0075
      3 C           0.1770    2.9062   18.3131 C.3     1  UNL1        0.0219
      4 C          -0.6024    3.2204   19.5557 C.3     1  UNL1        0.0950
      5 N          -0.1255    2.7198   20.8868 N.am    1  UNL1       -0.2637
      6 C          -0.9049    3.0340   22.1294 C.2     1  UNL1        0.3077
      7 O          -0.4279    2.5333   23.4605 O.2     1  UNL1       -0.2522
      8 N          -2.1612    3.8487   22.0407 N.am    1  UNL1       -0.2681
      9 C           1.1308    1.9051   20.9755 C.3     1  UNL1        0.0989
     10 H          -2.4743    4.1773   21.1671 H       1  UNL1        0.1564
     11 C          -2.9405    4.1628   23.2833 C.ar    1  UNL1        0.0516
     12 C          -4.1350    3.3325   23.6494 C.ar    1  UNL1        0.0156
     13 C          -4.9143    3.6465   24.8919 C.ar    1  UNL1        0.0127
     14 C          -4.4993    4.7909   25.7684 C.ar    1  UNL1        0.0578
     15 CL         -5.2787    5.1050   27.0110 Cl      1  UNL1       -0.0822
     16 C          -3.3049    5.6212   25.4023 C.ar    1  UNL1        0.0127
     17 C          -2.5255    5.3071   24.1597 C.ar    1  UNL1        0.0156
     18 C           2.9849    1.0359   18.8456 C.ar    1  UNL1       -0.0212
     19 C           2.6902   -0.1312   17.9507 C.ar    1  UNL1       -0.0042
     20 C           3.7648   -0.6861   17.0636 C.ar    1  UNL1       -0.0003
     21 C           5.1342   -0.0739   17.0713 C.ar    1  UNL1       -0.0000
     22 C           5.4289    1.0932   17.9662 C.ar    1  UNL1       -0.0003
     23 C           4.3542    1.6481   18.8534 C.ar    1  UNL1       -0.0042
     24 C           2.7603    0.8976   20.7559 C.3     1  UNL1        0.0153
     25 C           2.1792   -0.2036   21.5923 C.3     1  UNL1        0.0857
     26 O           2.9570   -0.4647   24.0574 O.2     1  UNL1       -0.2749
     27 C           3.0270   -0.8913   22.6211 C.2     1  UNL1        0.2258
     28 N           3.9446   -2.0056   22.2135 N.am    1  UNL1       -0.2744
     29 C           4.0146   -2.4323   20.7771 C.3     1  UNL1        0.1255
     30 C           4.9323   -3.5466   20.3696 C.3     1  UNL1        0.1636
     31 O           5.7801   -4.2343   21.3984 O.3     1  UNL1       -0.3501
     32 C           5.7101   -3.8076   22.8347 C.3     1  UNL1        0.1636
     33 C           4.7924   -2.6933   23.2423 C.3     1  UNL1        0.1255
@<TRIPOS>BOND
     1    26    27    2
     2    27    25    1
     3    25    24    1
     4    24     1    1
     5     1    18    1
     6    18    19   ar
     7    19    20   ar
     8    20    21   ar
     9    21    22   ar
    10    22    23   ar
    11     1     2    1
    12     2     3    1
    13     3     4    1
    14     4     5    1
    15     5     6   am
    16     6     7    2
    17     6     8   am
    18     8    11    1
    19    11    12   ar
    20    12    13   ar
    21    13    14   ar
    22    14    15    1
    23    14    16   ar
    24    16    17   ar
    25     5     9    1
    26    27    28   am
    27    28    29    1
    28    29    30    1
    29    30    31    1
    30    31    32    1
    31    32    33    1
    32     9     1    1
    33    33    28    1
    34    23    18   ar
    35    17    11   ar
    36     8    10    1
@<TRIPOS>MOLECULE
*****
 33 36 0 0 0
SMALL
GASTEIGER

@<TRIPOS>ATOM
      1 C           2.9077   -1.1749   20.8283 C.3     1  UNL1        0.0378
      2 C           3.6722   -1.5487   22.0634 C.3     1  UNL1        0.0075
      3 C           3.3921   -0.8479   23.3597 C.3     1  UNL1        0.0219
      4 C           2.3474    0.2268   23.4208 C.3     1  UNL1        0.0950
      5 N           1.5829    0.6007   22.1857 N.am    1  UNL1       -0.2637
      6 C           0.5382    1.6754   22.2467 C.2     1  UNL1        0.3077
      7 O          -0.2262    2.0492   21.0115 O.2     1  UNL1       -0.2522
      8 N           0.2581    2.3762   23.5430 N.am    1  UNL1       -0.2681
      9 C           1.8630   -0.1001   20.8894 C.3     1  UNL1        0.0989
     10 H           0.7599    2.1309   24.3538 H       1  UNL1        0.1564
     11 C          -0.7865    3.4509   23.6040 C.ar    1  UNL1        0.0516
     12 C          -2.0538    3.2221   24.3733 C.ar    1  UNL1        0.0156
     13 C          -3.0984    4.2967   24.4344 C.ar    1  UNL1        0.0127
     14 C          -2.8759    5.6002   23.7262 C.ar    1  UNL1        0.0578
     15 CL         -3.9207    6.6748   23.7872 Cl      1  UNL1       -0.0822
     16 C          -1.6087    5.8290   22.9569 C.ar    1  UNL1        0.0127
     17 C          -0.5640    4.7543   22.8959 C.ar    1  UNL1        0.0156
     18 C           3.7937   -2.2493   20.2710 C.ar    1  UNL1       -0.0212
     19 C           5.2826   -2.1467   20.4214 C.ar    1  UNL1       -0.0042
     20 C           6.1685   -3.2212   19.8641 C.ar    1  UNL1       -0.0003
     21 C           5.5655   -4.3982   19.1563 C.ar    1  UNL1       -0.0000
     22 C           4.0767   -4.5009   19.0059 C.ar    1  UNL1       -0.0003
     23 C           3.1908   -3.4264   19.5632 C.ar    1  UNL1       -0.0042
     24 C           2.4509   -1.1741   19.3995 C.3     1  UNL1        0.0153
     25 C           2.8009   -0.0254   18.5008 C.3     1  UNL1        0.0857
     26 O           3.8090   -1.0072   16.3168 O.2     1  UNL1       -0.2749
     27 C           3.9451   -0.1475   17.5385 C.2     1  UNL1        0.2258
     28 N           5.2252    0.5900   17.7979 N.am    1  UNL1       -0.2744
     29 C           5.3613    1.4496   19.0196 C.3     1  UNL1        0.1255
     30 C           6.6414    2.1870   19.2790 C.3     1  UNL1        0.1636
     31 O           7.7856    2.0649   18.3166 O.3     1  UNL1       -0.3501
     32 C           7.6495    1.2052   17.0950 C.3     1  UNL1        0.1636
     33 C           6.3694    0.4678   16.8356 C.3     1  UNL1        0.1255
@<TRIPOS>BOND
     1    26    27    2
     2    27    25    1
     3    25    24    1
     4    24     1    1
     5     1    18    1
     6    18    19   ar
     7    19    20   ar
     8    20    21   ar
     9    21    22   ar
    10    22    23   ar
    11     1     2    1
    12     2     3    1
    13     3     4    1
    14     4     5    1
    15     5     6   am
    16     6     7    2
    17     6     8   am
    18     8    11    1
    19    11    12   ar
    20    12    13   ar
    21    13    14   ar
    22    14    15    1
    23    14    16   ar
    24    16    17   ar
    25     5     9    1
    26    27    28   am
    27    28    29    1
    28    29    30    1
    29    30    31    1
    30    31    32    1
    31    32    33    1
    32     9     1    1
    33    33    28    1
    34    23    18   ar
    35    17    11   ar
    36     8    10    1
@<TRIPOS>MOLECULE
*****
 33 36 0 0 0
SMALL
GASTEIGER

@<TRIPOS>ATOM
      1 C           3.0709   -0.8720   21.0184 C.3     1  UNL1        0.0378
      2 C           2.1712   -0.9253   19.8195 C.3     1  UNL1        0.0075
      3 C           0.9068   -0.1186   19.7941 C.3     1  UNL1        0.0219
      4 C           0.5422    0.7414   20.9678 C.3     1  UNL1        0.0950
      5 N           1.4420    0.7947   22.1668 N.am    1  UNL1       -0.2637
      6 C           1.0774    1.6548   23.3404 C.2     1  UNL1        0.3077
      7 O           1.9773    1.7080   24.5394 O.2     1  UNL1       -0.2522
      8 N          -0.1870    2.4614   23.3151 N.am    1  UNL1       -0.2681
      9 C           2.7064   -0.0119   22.1921 C.3     1  UNL1        0.0989
     10 H          -0.7775    2.4264   22.5282 H       1  UNL1        0.1564
     11 C          -0.5514    3.3214   24.4888 C.ar    1  UNL1        0.0516
     12 C          -1.3055    2.7328   25.6443 C.ar    1  UNL1        0.0156
     13 C          -1.6700    3.5927   26.8180 C.ar    1  UNL1        0.0127
     14 C          -1.2805    5.0412   26.8363 C.ar    1  UNL1        0.0578
     15 CL         -1.6451    5.9011   28.0100 Cl      1  UNL1       -0.0822
     16 C          -0.5265    5.6297   25.6808 C.ar    1  UNL1        0.0127
     17 C          -0.1620    4.7698   24.5071 C.ar    1  UNL1        0.0156
     18 C           3.8409   -1.8289   20.1573 C.ar    1  UNL1       -0.0212
     19 C           5.2414   -1.4974   19.7346 C.ar    1  UNL1       -0.0042
     20 C           6.0113   -2.4543   18.8736 C.ar    1  UNL1       -0.0003
     21 C           5.3807   -3.7427   18.4351 C.ar    1  UNL1       -0.0000
     22 C           3.9802   -4.0743   18.8577 C.ar    1  UNL1       -0.0003
     23 C           3.2103   -3.1173   19.7188 C.ar    1  UNL1       -0.0042
     24 C           4.2381   -1.1510   21.9183 C.3     1  UNL1        0.0153
     25 C           4.0797   -2.0786   23.0863 C.3     1  UNL1        0.0857
     26 O           5.2646   -4.2422   22.2710 O.2     1  UNL1       -0.2749
     27 C           5.0748   -3.1783   23.3112 C.2     1  UNL1        0.2258
     28 N           5.8801   -3.2139   24.5762 N.am    1  UNL1       -0.2744
     29 C           5.6903   -2.1500   25.6164 C.3     1  UNL1        0.1255
     30 C           6.4956   -2.1857   26.8814 C.3     1  UNL1        0.1636
     31 O           7.4907   -3.2854   27.1062 O.3     1  UNL1       -0.3501
     32 C           7.6805   -4.3493   26.0660 C.3     1  UNL1        0.1636
     33 C           6.8752   -4.3136   24.8010 C.3     1  UNL1        0.1255
@<TRIPOS>BOND
     1    26    27    2
     2    27    25    1
     3    25    24    1
     4    24     1    1
     5     1    18    1
     6    18    19   ar
     7    19    20   ar
     8    20    21   ar
     9    21    22   ar
    10    22    23   ar
    11     1     2    1
    12     2     3    1
    13     3     4    1
    14     4     5    1
    15     5     6   am
    16     6     7    2
    17     6     8   am
    18     8    11    1
    19    11    12   ar
    20    12    13   ar
    21    13    14   ar
    22    14    15    1
    23    14    16   ar
    24    16    17   ar
    25     5     9    1
    26    27    28   am
    27    28    29    1
    28    29    30    1
    29    30    31    1
    30    31    32    1
    31    32    33    1
    32     9     1    1
    33    33    28    1
    34    23    18   ar
    35    17    11   ar
    36     8    10    1
@<TRIPOS>MOLECULE
*****
 33 36 0 0 0
SMALL
GASTEIGER

@<TRIPOS>ATOM
      1 C           3.5844   -1.3650   21.5599 C.3     1  UNL1        0.0378
      2 C           3.7074   -2.2988   20.3925 C.3     1  UNL1        0.0075
      3 C           4.5233   -3.5514   20.5167 C.3     1  UNL1        0.0219
      4 C           5.2162   -3.8701   21.8083 C.3     1  UNL1        0.0950
      5 N           5.0933   -2.9363   22.9757 N.am    1  UNL1       -0.2637
      6 C           5.7862   -3.2551   24.2674 C.2     1  UNL1        0.3077
      7 O           5.6632   -2.3212   25.4347 O.2     1  UNL1       -0.2522
      8 N           6.6021   -4.5076   24.3915 N.am    1  UNL1       -0.2681
      9 C           4.2774   -1.6838   22.8516 C.3     1  UNL1        0.0989
     10 H           6.6828   -5.1205   23.6253 H       1  UNL1        0.1564
     11 C           7.2950   -4.8263   25.6831 C.ar    1  UNL1        0.0516
     12 C           8.6124   -4.1854   26.0055 C.ar    1  UNL1        0.0156
     13 C           9.3053   -4.5040   27.2970 C.ar    1  UNL1        0.0127
     14 C           8.6809   -5.4635   28.2664 C.ar    1  UNL1        0.0578
     15 CL          9.3739   -5.7821   29.5580 Cl      1  UNL1       -0.0822
     16 C           7.3636   -6.1044   27.9441 C.ar    1  UNL1        0.0127
     17 C           6.6706   -5.7858   26.6524 C.ar    1  UNL1        0.0156
     18 C           2.7479   -0.6338   20.5522 C.ar    1  UNL1       -0.0212
     19 C           1.2971   -0.3727   20.8296 C.ar    1  UNL1       -0.0042
     20 C           0.4606    0.3585   19.8219 C.ar    1  UNL1       -0.0003
     21 C           1.0749    0.8288   18.5368 C.ar    1  UNL1       -0.0000
     22 C           2.5257    0.5677   18.2594 C.ar    1  UNL1       -0.0003
     23 C           3.3622   -0.1635   19.2671 C.ar    1  UNL1       -0.0042
     24 C           3.1709   -0.1773   22.3774 C.3     1  UNL1        0.0153
     25 C           3.0476   -0.2985   23.8673 C.3     1  UNL1        0.0857
     26 O           1.0858    1.4048   23.8724 O.2     1  UNL1       -0.2749
     27 C           2.1071    0.5975   24.6175 C.2     1  UNL1        0.2258
     28 N           2.1879    0.6862   26.1126 N.am    1  UNL1       -0.2744
     29 C           3.2093   -0.1211   26.8578 C.3     1  UNL1        0.1255
     30 C           3.2901   -0.0324   28.3529 C.3     1  UNL1        0.1636
     31 O           2.3495    0.8636   29.1030 O.3     1  UNL1       -0.3501
     32 C           1.3282    1.6708   28.3579 C.3     1  UNL1        0.1636
     33 C           1.2474    1.5821   26.8628 C.3     1  UNL1        0.1255
@<TRIPOS>BOND
     1    26    27    2
     2    27    25    1
     3    25    24    1
     4    24     1    1
     5     1    18    1
     6    18    19   ar
     7    19    20   ar
     8    20    21   ar
     9    21    22   ar
    10    22    23   ar
    11     1     2    1
    12     2     3    1
    13     3     4    1
    14     4     5    1
    15     5     6   am
    16     6     7    2
    17     6     8   am
    18     8    11    1
    19    11    12   ar
    20    12    13   ar
    21    13    14   ar
    22    14    15    1
    23    14    16   ar
    24    16    17   ar
    25     5     9    1
    26    27    28   am
    27    28    29    1
    28    29    30    1
    29    30    31    1
    30    31    32    1
    31    32    33    1
    32     9     1    1
    33    33    28    1
    34    23    18   ar
    35    17    11   ar
    36     8    10    1
@<TRIPOS>MOLECULE
*****
 33 36 0 0 0
SMALL
GASTEIGER

@<TRIPOS>ATOM
      1 C          -1.3791    3.4286   24.2237 C.3     1  UNL1        0.0378
      2 C          -2.4323    4.0051   23.3246 C.3     1  UNL1        0.0075
      3 C          -2.4074    3.7089   21.8543 C.3     1  UNL1        0.0219
      4 C          -1.3293    2.8362   21.2832 C.3     1  UNL1        0.0950
      5 N          -0.2761    2.2598   22.1823 N.am    1  UNL1       -0.2637
      6 C           0.8021    1.3871   21.6112 C.2     1  UNL1        0.3077
      7 O           1.8552    0.8107   22.5104 O.2     1  UNL1       -0.2522
      8 N           0.8270    1.0910   20.1409 N.am    1  UNL1       -0.2681
      9 C          -0.3009    2.5560   23.6526 C.3     1  UNL1        0.0989
     10 H           0.1357    1.4693   19.5508 H       1  UNL1        0.1564
     11 C           1.9051    0.2183   19.5699 C.ar    1  UNL1        0.0516
     12 C           2.1194   -1.1627   20.1150 C.ar    1  UNL1        0.0156
     13 C           3.1975   -2.0353   19.5440 C.ar    1  UNL1        0.0127
     14 C           4.0613   -1.5271   18.4280 C.ar    1  UNL1        0.0578
     15 CL          5.1395   -2.3998   17.8569 Cl      1  UNL1       -0.0822
     16 C           3.8470   -0.1462   17.8829 C.ar    1  UNL1        0.0127
     17 C           2.7689    0.7266   18.4539 C.ar    1  UNL1        0.0156
     18 C          -2.1891    4.1933   25.2283 C.ar    1  UNL1       -0.0212
     19 C          -3.4347    3.5880   25.8046 C.ar    1  UNL1       -0.0042
     20 C          -4.2446    4.3526   26.8092 C.ar    1  UNL1       -0.0003
     21 C          -3.8091    5.7227   27.2374 C.ar    1  UNL1       -0.0000
     22 C          -2.5636    6.3280   26.6611 C.ar    1  UNL1       -0.0003
     23 C          -1.7536    5.5633   25.6565 C.ar    1  UNL1       -0.0042
     24 C          -0.6072    3.1177   25.4717 C.3     1  UNL1        0.0153
     25 C          -0.2138    1.7029   25.7774 C.3     1  UNL1        0.0857
     26 O          -1.5306    1.3102   27.9823 O.2     1  UNL1       -0.2749
     27 C          -0.2620    1.1994   27.1896 C.2     1  UNL1        0.2258
     28 N           0.9583    0.5852   27.8089 N.am    1  UNL1       -0.2744
     29 C           2.2269    0.4745   27.0161 C.3     1  UNL1        0.1255
     30 C           3.4471   -0.1397   27.6355 C.3     1  UNL1        0.1636
     31 O           3.3989   -0.6432   29.0477 O.3     1  UNL1       -0.3501
     32 C           2.1303   -0.5325   29.8404 C.3     1  UNL1        0.1636
     33 C           0.9100    0.0817   29.2211 C.3     1  UNL1        0.1255
@<TRIPOS>BOND
     1    26    27    2
     2    27    25    1
     3    25    24    1
     4    24     1    1
     5     1    18    1
     6    18    19   ar
     7    19    20   ar
     8    20    21   ar
     9    21    22   ar
    10    22    23   ar
    11     1     2    1
    12     2     3    1
    13     3     4    1
    14     4     5    1
    15     5     6   am
    16     6     7    2
    17     6     8   am
    18     8    11    1
    19    11    12   ar
    20    12    13   ar
    21    13    14   ar
    22    14    15    1
    23    14    16   ar
    24    16    17   ar
    25     5     9    1
    26    27    28   am
    27    28    29    1
    28    29    30    1
    29    30    31    1
    30    31    32    1
    31    32    33    1
    32     9     1    1
    33    33    28    1
    34    23    18   ar
    35    17    11   ar
    36     8    10    1
@<TRIPOS>MOLECULE
*****
 33 36 0 0 0
SMALL
GASTEIGER

@<TRIPOS>ATOM
      1 C           5.7393   -1.8835   30.1426 C.3     1  UNL1        0.0378
      2 C           6.3429   -3.1136   30.7529 C.3     1  UNL1        0.0075
      3 C           6.8121   -4.2344   29.8733 C.3     1  UNL1        0.0219
      4 C           6.6777   -4.1250   28.3833 C.3     1  UNL1        0.0950
      5 N           6.0742   -2.8949   27.7730 N.am    1  UNL1       -0.2637
      6 C           5.9399   -2.7855   26.2830 C.2     1  UNL1        0.3077
      7 O           5.3363   -1.5553   25.6728 O.2     1  UNL1       -0.2522
      8 N           6.4091   -3.9063   25.4034 N.am    1  UNL1       -0.2681
      9 C           5.6050   -1.7741   28.6526 C.3     1  UNL1        0.0989
     10 H           6.8052   -4.7136   25.8040 H       1  UNL1        0.1564
     11 C           6.2747   -3.7968   23.9135 C.ar    1  UNL1        0.0516
     12 C           4.9507   -3.4425   23.3039 C.ar    1  UNL1        0.0156
     13 C           4.8162   -3.3330   21.8141 C.ar    1  UNL1        0.0127
     14 C           6.0058   -3.5778   20.9336 C.ar    1  UNL1        0.0578
     15 CL          5.8713   -3.4684   19.4436 Cl      1  UNL1       -0.0822
     16 C           7.3297   -3.9321   21.5431 C.ar    1  UNL1        0.0127
     17 C           7.4642   -4.0416   23.0331 C.ar    1  UNL1        0.0156
     18 C           5.6537   -1.5220   31.5959 C.ar    1  UNL1       -0.0212
     19 C           6.5652   -0.4745   32.1632 C.ar    1  UNL1       -0.0042
     20 C           6.4795   -0.1130   33.6164 C.ar    1  UNL1       -0.0003
     21 C           5.4824   -0.7992   34.5025 C.ar    1  UNL1       -0.0000
     22 C           4.5710   -1.8467   33.9352 C.ar    1  UNL1       -0.0003
     23 C           4.6566   -2.2082   32.4820 C.ar    1  UNL1       -0.0042
     24 C           5.1061   -0.5278   30.0370 C.3     1  UNL1        0.0153
     25 C           4.0016   -0.2908   29.0501 C.3     1  UNL1        0.0857
     26 O           2.2200   -0.8872   30.8446 O.2     1  UNL1       -0.2749
     27 C           2.5722   -0.3124   29.5046 C.2     1  UNL1        0.2258
     28 N           1.4953    0.2407   28.6191 N.am    1  UNL1       -0.2744
     29 C           1.8476    0.8155   27.2791 C.3     1  UNL1        0.1255
     30 C           0.7706    1.3686   26.3937 C.3     1  UNL1        0.1636
     31 O          -0.6588    1.3469   26.8481 O.3     1  UNL1       -0.3501
     32 C          -1.0111    0.7721   28.1881 C.3     1  UNL1        0.1636
     33 C           0.0659    0.2190   29.0736 C.3     1  UNL1        0.1255
@<TRIPOS>BOND
     1    26    27    2
     2    27    25    1
     3    25    24    1
     4    24     1    1
     5     1    18    1
     6    18    19   ar
     7    19    20   ar
     8    20    21   ar
     9    21    22   ar
    10    22    23   ar
    11     1     2    1
    12     2     3    1
    13     3     4    1
    14     4     5    1
    15     5     6   am
    16     6     7    2
    17     6     8   am
    18     8    11    1
    19    11    12   ar
    20    12    13   ar
    21    13    14   ar
    22    14    15    1
    23    14    16   ar
    24    16    17   ar
    25     5     9    1
    26    27    28   am
    27    28    29    1
    28    29    30    1
    29    30    31    1
    30    31    32    1
    31    32    33    1
    32     9     1    1
    33    33    28    1
    34    23    18   ar
    35    17    11   ar
    36     8    10    1
@<TRIPOS>MOLECULE
*****
 33 36 0 0 0
SMALL
GASTEIGER

@<TRIPOS>ATOM
      1 C           3.8871   -1.0850   21.9117 C.3     1  UNL1        0.0378
      2 C           2.8423   -0.6945   20.9087 C.3     1  UNL1        0.0075
      3 C           1.6180    0.0500   21.3522 C.3     1  UNL1        0.0219
      4 C           1.4384    0.4040   22.7988 C.3     1  UNL1        0.0950
      5 N           2.4832    0.0136   23.8018 N.am    1  UNL1       -0.2637
      6 C           2.3036    0.3676   25.2483 C.2     1  UNL1        0.3077
      7 O           3.3484   -0.0228   26.2512 O.2     1  UNL1       -0.2522
      8 N           1.0793    1.1121   25.6918 N.am    1  UNL1       -0.2681
      9 C           3.7075   -0.7309   23.3583 C.3     1  UNL1        0.0989
     10 H           0.3935    1.3684   25.0335 H       1  UNL1        0.1564
     11 C           0.8998    1.4661   27.1383 C.ar    1  UNL1        0.0516
     12 C           1.6148    2.6524   27.7144 C.ar    1  UNL1        0.0156
     13 C           1.4354    3.0064   29.1608 C.ar    1  UNL1        0.0127
     14 C           0.5410    2.1743   30.0314 C.ar    1  UNL1        0.0578
     15 CL          0.3615    2.5284   31.4779 Cl      1  UNL1       -0.0822
     16 C          -0.1740    0.9882   29.4553 C.ar    1  UNL1        0.0127
     17 C           0.0054    0.6341   28.0088 C.ar    1  UNL1        0.0156
     18 C           4.5039   -1.6418   20.6629 C.ar    1  UNL1       -0.0212
     19 C           3.8086   -2.7339   19.9055 C.ar    1  UNL1       -0.0042
     20 C           4.4254   -3.2907   18.6568 C.ar    1  UNL1       -0.0003
     21 C           5.7376   -2.7553   18.1654 C.ar    1  UNL1       -0.0000
     22 C           6.4330   -1.6632   18.9227 C.ar    1  UNL1       -0.0003
     23 C           5.8162   -1.1064   20.1715 C.ar    1  UNL1       -0.0042
     24 C           5.1461   -1.6688   22.4810 C.3     1  UNL1        0.0153
     25 C           5.1014   -2.9757   23.2158 C.3     1  UNL1        0.0857
     26 O           6.4291   -4.5025   21.5860 O.2     1  UNL1       -0.2749
     27 C           6.1639   -4.0072   22.9768 C.2     1  UNL1        0.2258
     28 N           6.9612   -4.5434   24.1287 N.am    1  UNL1       -0.2744
     29 C           6.6960   -4.0481   25.5196 C.3     1  UNL1        0.1255
     30 C           7.4933   -4.5843   26.6714 C.3     1  UNL1        0.1636
     31 O           8.5558   -5.6158   26.4324 O.3     1  UNL1       -0.3501
     32 C           8.8210   -6.1111   25.0416 C.3     1  UNL1        0.1636
     33 C           8.0237   -5.5749   23.8898 C.3     1  UNL1        0.1255
@<TRIPOS>BOND
     1    26    27    2
     2    27    25    1
     3    25    24    1
     4    24     1    1
     5     1    18    1
     6    18    19   ar
     7    19    20   ar
     8    20    21   ar
     9    21    22   ar
    10    22    23   ar
    11     1     2    1
    12     2     3    1
    13     3     4    1
    14     4     5    1
    15     5     6   am
    16     6     7    2
    17     6     8   am
    18     8    11    1
    19    11    12   ar
    20    12    13   ar
    21    13    14   ar
    22    14    15    1
    23    14    16   ar
    24    16    17   ar
    25     5     9    1
    26    27    28   am
    27    28    29    1
    28    29    30    1
    29    30    31    1
    30    31    32    1
    31    32    33    1
    32     9     1    1
    33    33    28    1
    34    23    18   ar
    35    17    11   ar
    36     8    10    1
