@<TRIPOS>MOLECULE
*****
 25 27 0 0 0
SMALL
GASTEIGER

@<TRIPOS>ATOM
      1 C          -3.6565  -19.1376   21.5746 C.ar    1  UNL1        0.0253
      2 C          -4.6729  -20.1427   21.1201 C.ar    1  UNL1        0.0076
      3 C          -6.1188  -19.9605   21.4755 C.ar    1  UNL1        0.0177
      4 C          -6.5482  -18.7732   22.2852 C.ar    1  UNL1        0.0596
      5 C          -5.5318  -17.7681   22.7397 C.ar    1  UNL1        0.0134
      6 C          -4.0859  -17.9503   22.3844 C.ar    1  UNL1        0.0073
      7 C          -6.2474  -16.7054   23.5199 C.ar    1  UNL1       -0.0077
      8 C          -7.7061  -17.0538   23.5477 C.ar    1  UNL1        0.0338
      9 C          -8.7889  -16.2631   24.2204 C.3     1  UNL1        0.0497
     10 N          -7.8920  -18.3318   22.7846 N.ar    1  UNL1       -0.3267
     11 C          -1.6294  -18.5906   20.0444 C.3     1  UNL1        0.0742
     12 S          -2.2106  -19.3198   21.2193 S.3     1  UNL1       -0.1127
     13 C          -5.6153  -15.5051   24.1600 C.3     1  UNL1        0.0444
     14 C          -5.3511  -15.4944   25.6365 C.3     1  UNL1        0.0699
     15 N          -6.3053  -14.8022   26.5642 N.3     1  UNL1       -0.3209
     16 H          -6.2902  -13.7990   26.3808 H       1  UNL1        0.1189
     17 H          -6.0266  -14.9756   27.5299 H       1  UNL1        0.1189
     18 C          -9.1933  -19.0434   22.5602 C.3     1  UNL1        0.1332
     19 C         -10.3946  -18.2788   22.0888 C.ar    1  UNL1        0.0110
     20 C         -10.3931  -17.6424   20.7305 C.ar    1  UNL1       -0.0016
     21 C         -11.5945  -16.8779   20.2591 C.ar    1  UNL1       -0.0002
     22 C         -12.7974  -16.7498   21.1460 C.ar    1  UNL1        0.0008
     23 C         -12.7990  -17.3863   22.5043 C.ar    1  UNL1        0.0111
     24 C         -11.5976  -18.1508   22.9757 C.ar    1  UNL1        0.0555
     25 CL        -11.5992  -18.7872   24.3339 Cl      1  UNL1       -0.0825
@<TRIPOS>BOND
     1    11    12    1
     2    12     1    1
     3     1     2   ar
     4     2     3   ar
     5     3     4   ar
     6     4     5   ar
     7     5     6   ar
     8     5     7   ar
     9     7    13    1
    10    13    14    1
    11    14    15    1
    12     7     8   ar
    13     8     9    1
    14     8    10   ar
    15    10    18    1
    16    18    19    1
    17    19    20   ar
    18    20    21   ar
    19    21    22   ar
    20    22    23   ar
    21    23    24   ar
    22    24    25    1
    23     6     1   ar
    24    24    19   ar
    25    10     4   ar
    26    15    16    1
    27    15    17    1
@<TRIPOS>MOLECULE
*****
 25 27 0 0 0
SMALL
GASTEIGER

@<TRIPOS>ATOM
      1 C          -6.0489  -16.0192   24.0926 C.ar    1  UNL1        0.0253
      2 C          -7.4810  -15.9198   23.6580 C.ar    1  UNL1        0.0076
      3 C          -8.0410  -16.9164   22.6869 C.ar    1  UNL1        0.0177
      4 C          -7.1689  -18.0125   22.1504 C.ar    1  UNL1        0.0596
      5 C          -5.7367  -18.1119   22.5850 C.ar    1  UNL1        0.0134
      6 C          -5.1767  -17.1153   23.5561 C.ar    1  UNL1        0.0073
      7 C          -5.1226  -19.2918   21.8915 C.ar    1  UNL1       -0.0077
      8 C          -6.1753  -19.9216   21.0283 C.ar    1  UNL1        0.0338
      9 C          -5.9951  -21.1299   20.1578 C.3     1  UNL1        0.0497
     10 N          -7.4400  -19.1309   21.1883 N.ar    1  UNL1       -0.3267
     11 C          -5.8630  -15.0970   26.5143 C.3     1  UNL1        0.0742
     12 S          -5.4888  -15.0225   25.0637 S.3     1  UNL1       -0.1127
     13 C          -3.7048  -19.7597   22.0359 C.3     1  UNL1        0.0444
     14 C          -2.5966  -19.0177   21.3495 C.3     1  UNL1        0.0699
     15 N          -1.3679  -18.6274   22.1161 N.3     1  UNL1       -0.3209
     16 H          -1.6158  -17.9420   22.8297 H       1  UNL1        0.1189
     17 H          -0.6835  -18.2215   21.4779 H       1  UNL1        0.1189
     18 C          -8.7464  -19.4097   20.5060 C.3     1  UNL1        0.1332
     19 C         -10.0196  -18.8472   21.0651 C.ar    1  UNL1        0.0110
     20 C         -10.7928  -17.8241   20.2871 C.ar    1  UNL1       -0.0016
     21 C         -12.0660  -17.2616   20.8462 C.ar    1  UNL1       -0.0002
     22 C         -12.5660  -17.7223   22.1833 C.ar    1  UNL1        0.0008
     23 C         -11.7927  -18.7454   22.9613 C.ar    1  UNL1        0.0111
     24 C         -10.5195  -19.3079   22.4022 C.ar    1  UNL1        0.0555
     25 CL         -9.7464  -20.3310   23.1802 Cl      1  UNL1       -0.0825
@<TRIPOS>BOND
     1    11    12    1
     2    12     1    1
     3     1     2   ar
     4     2     3   ar
     5     3     4   ar
     6     4     5   ar
     7     5     6   ar
     8     5     7   ar
     9     7    13    1
    10    13    14    1
    11    14    15    1
    12     7     8   ar
    13     8     9    1
    14     8    10   ar
    15    10    18    1
    16    18    19    1
    17    19    20   ar
    18    20    21   ar
    19    21    22   ar
    20    22    23   ar
    21    23    24   ar
    22    24    25    1
    23     6     1   ar
    24    24    19   ar
    25    10     4   ar
    26    15    16    1
    27    15    17    1
@<TRIPOS>MOLECULE
*****
 25 27 0 0 0
SMALL
GASTEIGER

@<TRIPOS>ATOM
      1 C          -5.3802  -19.5038   21.1711 C.ar    1  UNL1        0.0253
      2 C          -5.3796  -18.4706   22.2584 C.ar    1  UNL1        0.0076
      3 C          -6.6468  -17.7473   22.6065 C.ar    1  UNL1        0.0177
      4 C          -7.9146  -18.0573   21.8672 C.ar    1  UNL1        0.0596
      5 C          -7.9151  -19.0905   20.7798 C.ar    1  UNL1        0.0134
      6 C          -6.6480  -19.8137   20.4317 C.ar    1  UNL1        0.0073
      7 C          -9.3073  -19.1829   20.2289 C.ar    1  UNL1       -0.0077
      8 C         -10.1671  -18.2068   20.9758 C.ar    1  UNL1        0.0338
      9 C         -11.6307  -17.9682   20.7499 C.3     1  UNL1        0.0497
     10 N          -9.3063  -17.5111   21.9883 N.ar    1  UNL1       -0.3267
     11 C          -2.7887  -19.6693   21.2534 C.3     1  UNL1        0.0742
     12 S          -4.1130  -20.2270   20.8230 S.3     1  UNL1       -0.1127
     13 C          -9.7601  -20.0918   19.1249 C.3     1  UNL1        0.0444
     14 C          -8.7787  -20.5676   18.0951 C.3     1  UNL1        0.0699
     15 N          -9.2030  -21.5665   17.0597 N.3     1  UNL1       -0.3209
     16 H          -9.4192  -22.4545   17.5125 H       1  UNL1        0.1189
     17 H          -8.4472  -21.7022   16.3884 H       1  UNL1        0.1189
     18 C          -9.7580  -16.4547   22.9527 C.3     1  UNL1        0.1332
     19 C          -9.2618  -16.4698   24.3682 C.ar    1  UNL1        0.0110
     20 C          -8.4212  -15.3380   24.8804 C.ar    1  UNL1       -0.0016
     21 C          -7.9250  -15.3531   26.2959 C.ar    1  UNL1       -0.0002
     22 C          -8.2695  -16.5000   27.1992 C.ar    1  UNL1        0.0008
     23 C          -9.1101  -17.6318   26.6870 C.ar    1  UNL1        0.0111
     24 C          -9.6063  -17.6167   25.2715 C.ar    1  UNL1        0.0555
     25 CL        -10.4469  -18.7485   24.7594 Cl      1  UNL1       -0.0825
@<TRIPOS>BOND
     1    11    12    1
     2    12     1    1
     3     1     2   ar
     4     2     3   ar
     5     3     4   ar
     6     4     5   ar
     7     5     6   ar
     8     5     7   ar
     9     7    13    1
    10    13    14    1
    11    14    15    1
    12     7     8   ar
    13     8     9    1
    14     8    10   ar
    15    10    18    1
    16    18    19    1
    17    19    20   ar
    18    20    21   ar
    19    21    22   ar
    20    22    23   ar
    21    23    24   ar
    22    24    25    1
    23     6     1   ar
    24    24    19   ar
    25    10     4   ar
    26    15    16    1
    27    15    17    1
@<TRIPOS>MOLECULE
*****
 25 27 0 0 0
SMALL
GASTEIGER

@<TRIPOS>ATOM
      1 C          -8.7066  -20.6623   18.7626 C.ar    1  UNL1        0.0253
      2 C          -9.9212  -19.8627   19.1307 C.ar    1  UNL1        0.0076
      3 C          -9.8418  -18.8383   20.2236 C.ar    1  UNL1        0.0177
      4 C          -8.5479  -18.6134   20.9483 C.ar    1  UNL1        0.0596
      5 C          -7.3334  -19.4130   20.5802 C.ar    1  UNL1        0.0134
      6 C          -7.4127  -20.4374   19.4873 C.ar    1  UNL1        0.0073
      7 C          -6.2039  -18.9741   21.4644 C.ar    1  UNL1       -0.0077
      8 C          -6.7205  -17.9033   22.3790 C.ar    1  UNL1        0.0338
      9 C          -5.9276  -17.1820   23.4284 C.3     1  UNL1        0.0497
     10 N          -8.1692  -17.6804   22.0600 N.ar    1  UNL1       -0.3267
     11 C          -9.4024  -21.3291   16.3499 C.3     1  UNL1        0.0742
     12 S          -8.7860  -21.6867   17.6698 S.3     1  UNL1       -0.1127
     13 C          -4.8038  -19.5117   21.4386 C.3     1  UNL1        0.0444
     14 C          -3.8815  -19.1480   20.3130 C.3     1  UNL1        0.0699
     15 N          -4.3150  -18.1497   19.2808 N.3     1  UNL1       -0.3209
     16 H          -5.0951  -18.5309   18.7457 H       1  UNL1        0.1189
     17 H          -3.5366  -17.9506   18.6524 H       1  UNL1        0.1189
     18 C          -9.0793  -16.6971   22.7344 C.3     1  UNL1        0.1332
     19 C         -10.5062  -17.0655   23.0139 C.ar    1  UNL1        0.0110
     20 C         -11.6183  -16.3450   22.3110 C.ar    1  UNL1       -0.0016
     21 C         -13.0453  -16.7134   22.5906 C.ar    1  UNL1       -0.0002
     22 C         -13.3601  -17.8022   23.5731 C.ar    1  UNL1        0.0008
     23 C         -12.2480  -18.5226   24.2761 C.ar    1  UNL1        0.0111
     24 C         -10.8211  -18.1543   23.9965 C.ar    1  UNL1        0.0555
     25 CL         -9.7090  -18.8747   24.6995 Cl      1  UNL1       -0.0825
@<TRIPOS>BOND
     1    11    12    1
     2    12     1    1
     3     1     2   ar
     4     2     3   ar
     5     3     4   ar
     6     4     5   ar
     7     5     6   ar
     8     5     7   ar
     9     7    13    1
    10    13    14    1
    11    14    15    1
    12     7     8   ar
    13     8     9    1
    14     8    10   ar
    15    10    18    1
    16    18    19    1
    17    19    20   ar
    18    20    21   ar
    19    21    22   ar
    20    22    23   ar
    21    23    24   ar
    22    24    25    1
    23     6     1   ar
    24    24    19   ar
    25    10     4   ar
    26    15    16    1
    27    15    17    1
@<TRIPOS>MOLECULE
*****
 25 27 0 0 0
SMALL
GASTEIGER

@<TRIPOS>ATOM
      1 C          -4.1842  -19.1295   20.6995 C.ar    1  UNL1        0.0253
      2 C          -4.4693  -18.7954   22.1338 C.ar    1  UNL1        0.0076
      3 C          -5.8855  -18.7507   22.6262 C.ar    1  UNL1        0.0177
      4 C          -7.0165  -19.0399   21.6844 C.ar    1  UNL1        0.0596
      5 C          -6.7314  -19.3740   20.2502 C.ar    1  UNL1        0.0134
      6 C          -5.3152  -19.4188   19.7577 C.ar    1  UNL1        0.0073
      7 C          -8.0419  -19.6115   19.5601 C.ar    1  UNL1       -0.0077
      8 C          -9.1370  -19.4242   20.5679 C.ar    1  UNL1        0.0338
      9 C         -10.6077  -19.5654   20.3085 C.3     1  UNL1        0.0497
     10 N          -8.5033  -19.0710   21.8808 N.ar    1  UNL1       -0.3267
     11 C          -2.3386  -18.2867   19.0768 C.3     1  UNL1        0.0742
     12 S          -2.7680  -19.1743   20.2071 S.3     1  UNL1       -0.1127
     13 C          -8.2252  -19.9729   18.1159 C.3     1  UNL1        0.0444
     14 C          -8.7878  -21.3126   17.7435 C.3     1  UNL1        0.0699
     15 N          -9.3625  -21.5308   16.3753 N.3     1  UNL1       -0.3209
     16 H         -10.1984  -20.9573   16.2623 H       1  UNL1        0.1189
     17 H          -9.6072  -22.5145   16.2622 H       1  UNL1        0.1189
     18 C          -9.2289  -18.7969   23.1646 C.3     1  UNL1        0.1332
     19 C         -10.5464  -18.0801   23.1433 C.ar    1  UNL1        0.0110
     20 C         -11.7755  -18.7538   23.6774 C.ar    1  UNL1       -0.0016
     21 C         -13.0930  -18.0371   23.6561 C.ar    1  UNL1       -0.0002
     22 C         -13.1813  -16.6465   23.1005 C.ar    1  UNL1        0.0008
     23 C         -11.9522  -15.9728   22.5664 C.ar    1  UNL1        0.0111
     24 C         -10.6347  -16.6896   22.5877 C.ar    1  UNL1        0.0555
     25 CL         -9.4057  -16.0158   22.0536 Cl      1  UNL1       -0.0825
@<TRIPOS>BOND
     1    11    12    1
     2    12     1    1
     3     1     2   ar
     4     2     3   ar
     5     3     4   ar
     6     4     5   ar
     7     5     6   ar
     8     5     7   ar
     9     7    13    1
    10    13    14    1
    11    14    15    1
    12     7     8   ar
    13     8     9    1
    14     8    10   ar
    15    10    18    1
    16    18    19    1
    17    19    20   ar
    18    20    21   ar
    19    21    22   ar
    20    22    23   ar
    21    23    24   ar
    22    24    25    1
    23     6     1   ar
    24    24    19   ar
    25    10     4   ar
    26    15    16    1
    27    15    17    1
@<TRIPOS>MOLECULE
*****
 25 27 0 0 0
SMALL
GASTEIGER

@<TRIPOS>ATOM
      1 C          -6.0165  -16.0989   24.6288 C.ar    1  UNL1        0.0253
      2 C          -4.6770  -16.6633   24.2587 C.ar    1  UNL1        0.0076
      3 C          -4.5570  -17.6163   23.1066 C.ar    1  UNL1        0.0177
      4 C          -5.7766  -18.0048   22.3245 C.ar    1  UNL1        0.0596
      5 C          -7.1161  -17.4404   22.6946 C.ar    1  UNL1        0.0134
      6 C          -7.2361  -16.4874   23.8468 C.ar    1  UNL1        0.0073
      7 C          -8.1340  -18.0026   21.7469 C.ar    1  UNL1       -0.0077
      8 C          -7.4234  -18.9145   20.7911 C.ar    1  UNL1        0.0338
      9 C          -8.0583  -19.6890   19.6744 C.3     1  UNL1        0.0497
     10 N          -5.9665  -18.9159   21.1481 N.ar    1  UNL1       -0.3267
     11 C          -6.9026  -15.5446   27.0074 C.3     1  UNL1        0.0742
     12 S          -6.1365  -15.1459   25.7810 S.3     1  UNL1       -0.1127
     13 C          -9.6041  -17.7051   21.7539 C.3     1  UNL1        0.0444
     14 C         -10.0819  -16.2872   21.8601 C.3     1  UNL1        0.0699
     15 N          -9.4632  -15.2213   21.0052 N.3     1  UNL1       -0.3209
     16 H          -8.4877  -15.0932   21.2743 H       1  UNL1        0.1189
     17 H          -9.9694  -14.3452   21.1347 H       1  UNL1        0.1189
     18 C          -4.8887  -19.6920   20.4510 C.3     1  UNL1        0.1332
     19 C          -3.6364  -18.9991   20.0018 C.ar    1  UNL1        0.0110
     20 C          -3.6692  -18.0889   18.8100 C.ar    1  UNL1       -0.0016
     21 C          -2.4170  -17.3960   18.3608 C.ar    1  UNL1       -0.0002
     22 C          -1.1320  -17.6132   19.1034 C.ar    1  UNL1        0.0008
     23 C          -1.0992  -18.5234   20.2953 C.ar    1  UNL1        0.0111
     24 C          -2.3514  -19.2163   20.7445 C.ar    1  UNL1        0.0555
     25 CL         -2.3186  -20.1264   21.9363 Cl      1  UNL1       -0.0825
@<TRIPOS>BOND
     1    11    12    1
     2    12     1    1
     3     1     2   ar
     4     2     3   ar
     5     3     4   ar
     6     4     5   ar
     7     5     6   ar
     8     5     7   ar
     9     7    13    1
    10    13    14    1
    11    14    15    1
    12     7     8   ar
    13     8     9    1
    14     8    10   ar
    15    10    18    1
    16    18    19    1
    17    19    20   ar
    18    20    21   ar
    19    21    22   ar
    20    22    23   ar
    21    23    24   ar
    22    24    25    1
    23     6     1   ar
    24    24    19   ar
    25    10     4   ar
    26    15    16    1
    27    15    17    1
@<TRIPOS>MOLECULE
*****
 25 27 0 0 0
SMALL
GASTEIGER

@<TRIPOS>ATOM
      1 C          -9.9042  -16.7174   22.1873 C.ar    1  UNL1        0.0253
      2 C          -8.7492  -16.3604   23.0752 C.ar    1  UNL1        0.0076
      3 C          -7.4773  -17.1526   23.0063 C.ar    1  UNL1        0.0177
      4 C          -7.3605  -18.3019   22.0495 C.ar    1  UNL1        0.0596
      5 C          -8.5155  -18.6589   21.1616 C.ar    1  UNL1        0.0134
      6 C          -9.7874  -17.8666   21.2305 C.ar    1  UNL1        0.0073
      7 C          -8.1099  -19.8353   20.3239 C.ar    1  UNL1       -0.0077
      8 C          -6.7043  -20.2053   20.6941 C.ar    1  UNL1        0.0338
      9 C          -5.9025  -21.3263   20.1019 C.3     1  UNL1        0.0497
     10 N          -6.2411  -19.2576   21.7606 N.ar    1  UNL1       -0.3267
     11 C         -12.4717  -16.6125   22.5705 C.3     1  UNL1        0.0742
     12 S         -11.1761  -15.9252   22.2562 S.3     1  UNL1       -0.1127
     13 C          -8.9607  -20.5212   19.2964 C.3     1  UNL1        0.0444
     14 C          -8.6172  -20.4068   17.8408 C.3     1  UNL1        0.0699
     15 N          -9.1106  -21.4387   16.8704 N.3     1  UNL1       -0.3209
     16 H          -8.6747  -22.3370   17.0784 H       1  UNL1        0.1189
     17 H          -8.8690  -21.1554   15.9207 H       1  UNL1        0.1189
     18 C          -4.8948  -19.2644   22.4221 C.3     1  UNL1        0.1332
     19 C          -3.7514  -18.5163   21.8034 C.ar    1  UNL1        0.0110
     20 C          -3.0456  -19.0811   20.6064 C.ar    1  UNL1       -0.0016
     21 C          -1.9022  -18.3329   19.9877 C.ar    1  UNL1       -0.0002
     22 C          -1.4645  -17.0199   20.5660 C.ar    1  UNL1        0.0008
     23 C          -2.1702  -16.4551   21.7631 C.ar    1  UNL1        0.0111
     24 C          -3.3137  -17.2033   22.3818 C.ar    1  UNL1        0.0555
     25 CL         -4.0194  -16.6384   23.5788 Cl      1  UNL1       -0.0825
@<TRIPOS>BOND
     1    11    12    1
     2    12     1    1
     3     1     2   ar
     4     2     3   ar
     5     3     4   ar
     6     4     5   ar
     7     5     6   ar
     8     5     7   ar
     9     7    13    1
    10    13    14    1
    11    14    15    1
    12     7     8   ar
    13     8     9    1
    14     8    10   ar
    15    10    18    1
    16    18    19    1
    17    19    20   ar
    18    20    21   ar
    19    21    22   ar
    20    22    23   ar
    21    23    24   ar
    22    24    25    1
    23     6     1   ar
    24    24    19   ar
    25    10     4   ar
    26    15    16    1
    27    15    17    1
@<TRIPOS>MOLECULE
*****
 25 27 0 0 0
SMALL
GASTEIGER

@<TRIPOS>ATOM
      1 C          -8.8941  -20.0128   19.1659 C.ar    1  UNL1        0.0253
      2 C          -9.8734  -19.0033   19.6871 C.ar    1  UNL1        0.0076
      3 C          -9.4616  -18.0469   20.7668 C.ar    1  UNL1        0.0177
      4 C          -8.0705  -18.1000   21.3253 C.ar    1  UNL1        0.0596
      5 C          -7.0912  -19.1095   20.8041 C.ar    1  UNL1        0.0134
      6 C          -7.5030  -20.0659   19.7244 C.ar    1  UNL1        0.0073
      7 C          -5.7985  -18.9256   21.5425 C.ar    1  UNL1       -0.0077
      8 C          -5.9790  -17.8023   22.5201 C.ar    1  UNL1        0.0338
      9 C          -4.9381  -17.2808   23.4660 C.3     1  UNL1        0.0497
     10 N          -7.3832  -17.2921   22.3859 N.ar    1  UNL1       -0.3267
     11 C          -8.5364  -22.2395   17.8760 C.3     1  UNL1        0.0742
     12 S          -9.3058  -20.9692   18.0862 S.3     1  UNL1       -0.1127
     13 C          -4.5454  -19.7245   21.3390 C.3     1  UNL1        0.0444
     14 C          -3.6150  -19.3863   20.2122 C.3     1  UNL1        0.0699
     15 N          -3.4423  -17.9589   19.7848 N.3     1  UNL1       -0.3209
     16 H          -4.3181  -17.6131   19.3926 H       1  UNL1        0.1189
     17 H          -2.7078  -17.9017   19.0793 H       1  UNL1        0.1189
     18 C          -7.9930  -16.1709   23.1739 C.3     1  UNL1        0.1332
     19 C          -8.0752  -16.2628   24.6688 C.ar    1  UNL1        0.0110
     20 C          -7.1970  -15.3973   25.5229 C.ar    1  UNL1       -0.0016
     21 C          -7.2793  -15.4893   27.0178 C.ar    1  UNL1       -0.0002
     22 C          -8.2397  -16.4468   27.6586 C.ar    1  UNL1        0.0008
     23 C          -9.1180  -17.3123   26.8045 C.ar    1  UNL1        0.0111
     24 C          -9.0357  -17.2203   25.3096 C.ar    1  UNL1        0.0555
     25 CL         -9.9140  -18.0859   24.4556 Cl      1  UNL1       -0.0825
@<TRIPOS>BOND
     1    11    12    1
     2    12     1    1
     3     1     2   ar
     4     2     3   ar
     5     3     4   ar
     6     4     5   ar
     7     5     6   ar
     8     5     7   ar
     9     7    13    1
    10    13    14    1
    11    14    15    1
    12     7     8   ar
    13     8     9    1
    14     8    10   ar
    15    10    18    1
    16    18    19    1
    17    19    20   ar
    18    20    21   ar
    19    21    22   ar
    20    22    23   ar
    21    23    24   ar
    22    24    25    1
    23     6     1   ar
    24    24    19   ar
    25    10     4   ar
    26    15    16    1
    27    15    17    1
@<TRIPOS>MOLECULE
*****
 25 27 0 0 0
SMALL
GASTEIGER

@<TRIPOS>ATOM
      1 C         -15.6094   -8.3690   18.6966 C.ar    1  UNL1        0.0253
      2 C         -16.1738   -7.2579   19.5314 C.ar    1  UNL1        0.0076
      3 C         -15.3392   -6.0487   19.8338 C.ar    1  UNL1        0.0177
      4 C         -13.9404   -5.9505   19.3014 C.ar    1  UNL1        0.0596
      5 C         -13.3760   -7.0616   18.4666 C.ar    1  UNL1        0.0134
      6 C         -14.2105   -8.2708   18.1642 C.ar    1  UNL1        0.0073
      7 C         -11.9752   -6.6872   18.0823 C.ar    1  UNL1       -0.0077
      8 C         -11.6739   -5.3447   18.6796 C.ar    1  UNL1        0.0338
      9 C         -10.3844   -4.5898   18.5468 C.3     1  UNL1        0.0497
     10 N         -12.8884   -4.8894   19.4330 N.ar    1  UNL1       -0.3267
     11 C         -17.7884   -9.4192   17.7486 C.3     1  UNL1        0.0742
     12 S         -16.4439   -9.5782   18.3943 S.3     1  UNL1       -0.1127
     13 C         -11.0400   -7.5107   17.2473 C.3     1  UNL1        0.0444
     14 C          -9.9753   -8.3362   17.9067 C.3     1  UNL1        0.0699
     15 N          -9.4970   -7.9824   19.2836 N.3     1  UNL1       -0.3209
     16 H          -9.0216   -7.0804   19.2570 H       1  UNL1        0.1189
     17 H          -8.8496   -8.6984   19.6131 H       1  UNL1        0.1189
     18 C         -13.0268   -3.5995   20.1860 C.3     1  UNL1        0.1332
     19 C         -13.2442   -2.3158   19.4410 C.ar    1  UNL1        0.0110
     20 C         -12.0693   -1.5447   18.9166 C.ar    1  UNL1       -0.0016
     21 C         -12.2867   -0.2610   18.1717 C.ar    1  UNL1       -0.0002
     22 C         -13.6791    0.2515   17.9510 C.ar    1  UNL1        0.0008
     23 C         -14.8540   -0.5196   18.4754 C.ar    1  UNL1        0.0111
     24 C         -14.6365   -1.8033   19.2204 C.ar    1  UNL1        0.0555
     25 CL        -15.8115   -2.5743   19.7447 Cl      1  UNL1       -0.0825
@<TRIPOS>BOND
     1    11    12    1
     2    12     1    1
     3     1     2   ar
     4     2     3   ar
     5     3     4   ar
     6     4     5   ar
     7     5     6   ar
     8     5     7   ar
     9     7    13    1
    10    13    14    1
    11    14    15    1
    12     7     8   ar
    13     8     9    1
    14     8    10   ar
    15    10    18    1
    16    18    19    1
    17    19    20   ar
    18    20    21   ar
    19    21    22   ar
    20    22    23   ar
    21    23    24   ar
    22    24    25    1
    23     6     1   ar
    24    24    19   ar
    25    10     4   ar
    26    15    16    1
    27    15    17    1
