@<TRIPOS>MOLECULE
*****
 43 46 0 0 0
SMALL
GASTEIGER

@<TRIPOS>ATOM
      1 C           5.8272   -3.2450   21.2142 C.2     1  UNL1        0.2491
      2 O           4.6397   -4.0682   21.6169 O.2     1  UNL1       -0.2727
      3 N           5.8122   -2.4912   19.9174 N.am    1  UNL1       -0.2724
      4 C           7.0296   -3.1757   22.1082 C.3     1  UNL1        0.1934
      5 C           7.7074   -6.1221   24.6790 C.ar    1  UNL1        0.0529
      6 C           7.6747   -5.3335   23.4035 C.ar    1  UNL1        0.0782
      7 N           7.0623   -3.9643   23.3838 N.ar    1  UNL1       -0.2979
      8 C           6.4827   -3.3838   24.6395 C.ar    1  UNL1        0.1750
      9 N           6.5154   -4.1724   25.9150 N.ar    1  UNL1       -0.1847
     10 C           7.1278   -5.5416   25.9348 C.ar    1  UNL1        0.2783
     11 O           7.1605   -6.3302   27.2104 O.2     1  UNL1       -0.2654
     12 C           9.5348   -7.7815   23.8685 C.3     1  UNL1        0.0052
     13 C           8.3198   -7.4913   24.6988 C.3     1  UNL1        0.0328
     14 S           5.8703   -2.0146   24.6198 S.3     1  UNL1       -0.0724
     15 C           4.4077   -1.8513   24.3298 C.3     1  UNL1        0.0913
     16 C           3.9118   -0.6089   23.6513 C.ar    1  UNL1       -0.0108
     17 C           4.7481    0.0551   22.5978 C.ar    1  UNL1       -0.0011
     18 C           4.2522    1.2975   21.9192 C.ar    1  UNL1        0.0293
     19 C           2.9199    1.8760   22.2942 C.ar    1  UNL1        0.1401
     20 F           2.4240    3.1184   21.6156 F       1  UNL1       -0.2042
     21 C           2.0836    1.2120   23.3475 C.ar    1  UNL1        0.0293
     22 C           2.5796   -0.0304   24.0261 C.ar    1  UNL1       -0.0011
     23 C           6.9998   -1.6680   19.5147 C.3     1  UNL1        0.1111
     24 C           7.0243   -0.1960   19.8021 C.3     1  UNL1        0.0939
     25 N           6.9739    0.7897   18.6726 N.3     1  UNL1       -0.2712
     26 C           7.0473    0.3088   17.2537 C.3     1  UNL1        0.0722
     27 C           7.0777    1.2985   16.1270 C.3     1  UNL1        0.0188
     28 C           6.8502    2.2562   18.9619 C.3     1  UNL1        0.0722
     29 C           5.5115    2.9274   18.8758 C.3     1  UNL1        0.0188
     30 C           4.6098   -2.5605   19.0234 C.3     1  UNL1        0.1202
     31 C           3.5629   -1.4884   19.0900 C.ar    1  UNL1       -0.0023
     32 C           3.6168   -0.3276   18.1414 C.ar    1  UNL1       -0.0026
     33 C           2.5698    0.7446   18.2080 C.ar    1  UNL1       -0.0003
     34 C           1.4691    0.6560   19.2232 C.ar    1  UNL1       -0.0000
     35 C           1.4153   -0.5048   20.1718 C.ar    1  UNL1       -0.0003
     36 C           2.4622   -1.5769   20.1052 C.ar    1  UNL1       -0.0026
     37 C           0.4222    1.7281   19.2898 C.ar    1  UNL1        0.0001
     38 C           0.2162    2.6486   18.1235 C.ar    1  UNL1        0.0009
     39 C          -0.8308    3.7208   18.1902 C.ar    1  UNL1        0.0114
     40 C          -1.6716    3.8725   19.4230 C.ar    1  UNL1        0.0577
     41 CL         -2.7185    4.9447   19.4897 Cl      1  UNL1       -0.0822
     42 C          -1.4655    2.9520   20.5893 C.ar    1  UNL1        0.0114
     43 C          -0.4187    1.8798   20.5227 C.ar    1  UNL1        0.0009
@<TRIPOS>BOND
     1    12    13    1
     2    13     5    1
     3     5     6   ar
     4     6     7   ar
     5     7     4    1
     6     4     1    1
     7     1     2    2
     8     1     3   am
     9     3    23    1
    10    23    24    1
    11    24    25    1
    12    25    26    1
    13    26    27    1
    14    25    28    1
    15    28    29    1
    16     3    30    1
    17    30    31    1
    18    31    32   ar
    19    32    33   ar
    20    33    34   ar
    21    34    37    1
    22    37    38   ar
    23    38    39   ar
    24    39    40   ar
    25    40    41    1
    26    40    42   ar
    27    42    43   ar
    28    34    35   ar
    29    35    36   ar
    30     7     8   ar
    31     8    14    1
    32    14    15    1
    33    15    16    1
    34    16    17   ar
    35    17    18   ar
    36    18    19   ar
    37    19    20    1
    38    19    21   ar
    39    21    22   ar
    40     8     9   ar
    41     9    10   ar
    42    10    11    2
    43    10     5   ar
    44    36    31   ar
    45    22    16   ar
    46    43    37   ar
@<TRIPOS>MOLECULE
*****
 43 46 0 0 0
SMALL
GASTEIGER

@<TRIPOS>ATOM
      1 C           3.7656    0.1251   30.2609 C.2     1  UNL1        0.2491
      2 O           5.1168    0.7732   30.3250 O.2     1  UNL1       -0.2727
      3 N           2.9671    0.1794   28.9922 N.am    1  UNL1       -0.2724
      4 C           3.2128   -0.5773   31.4655 C.3     1  UNL1        0.1934
      5 C           3.5344    1.6519   34.7331 C.ar    1  UNL1        0.0529
      6 C           3.1419    1.2024   33.3569 C.ar    1  UNL1        0.0782
      7 N           3.6054   -0.1279   32.8417 N.ar    1  UNL1       -0.2979
      8 C           4.4616   -1.0087   33.7026 C.ar    1  UNL1        0.1750
      9 N           4.8541   -0.5592   35.0788 N.ar    1  UNL1       -0.1847
     10 C           4.3905    0.7711   35.5940 C.ar    1  UNL1        0.2783
     11 O           4.7831    1.2206   36.9702 O.2     1  UNL1       -0.2654
     12 C           1.8338    3.6154   34.6838 C.3     1  UNL1        0.0052
     13 C           3.0708    2.9822   35.2483 C.3     1  UNL1        0.0328
     14 S           4.9251   -2.3389   33.1874 S.3     1  UNL1       -0.0724
     15 C           6.2762   -2.4664   32.5485 C.3     1  UNL1        0.0913
     16 C           6.4627   -3.3633   31.3608 C.ar    1  UNL1       -0.0108
     17 C           6.8079   -4.8094   31.5599 C.ar    1  UNL1       -0.0011
     18 C           6.9943   -5.7064   30.3721 C.ar    1  UNL1        0.0293
     19 C           6.8356   -5.1571   28.9853 C.ar    1  UNL1        0.1401
     20 F           7.0220   -6.0541   27.7975 F       1  UNL1       -0.2042
     21 C           6.4904   -3.7111   28.7862 C.ar    1  UNL1        0.0293
     22 C           6.3039   -2.8141   29.9740 C.ar    1  UNL1       -0.0011
     23 C           1.6158   -0.4687   28.9282 C.3     1  UNL1        0.1111
     24 C           0.3873    0.3237   29.2641 C.3     1  UNL1        0.0939
     25 N           0.4472    1.8221   29.2976 N.3     1  UNL1       -0.2712
     26 C           0.2308    2.6096   28.0395 C.3     1  UNL1        0.0722
     27 C          -0.5371    2.0074   26.9003 C.3     1  UNL1        0.0188
     28 C           0.7234    2.5330   30.5892 C.3     1  UNL1        0.0722
     29 C           1.8720    3.4928   30.6863 C.3     1  UNL1        0.0188
     30 C           3.5198    0.8819   27.7877 C.3     1  UNL1        0.1202
     31 C           3.6001    0.1649   26.4726 C.ar    1  UNL1       -0.0023
     32 C           2.7415    0.6059   25.3243 C.ar    1  UNL1       -0.0026
     33 C           2.8219   -0.1111   24.0092 C.ar    1  UNL1       -0.0003
     34 C           3.7607   -1.2690   23.8423 C.ar    1  UNL1       -0.0000
     35 C           4.6193   -1.7099   24.9905 C.ar    1  UNL1       -0.0003
     36 C           4.5390   -0.9930   26.3056 C.ar    1  UNL1       -0.0026
     37 C           3.8410   -1.9859   22.5272 C.ar    1  UNL1        0.0001
     38 C           3.2474   -1.3655   21.2973 C.ar    1  UNL1        0.0009
     39 C           3.3277   -2.0825   19.9822 C.ar    1  UNL1        0.0114
     40 C           4.0015   -3.4199   19.8970 C.ar    1  UNL1        0.0577
     41 CL          4.0818   -4.1369   18.5818 Cl      1  UNL1       -0.0822
     42 C           4.5951   -4.0403   21.1269 C.ar    1  UNL1        0.0114
     43 C           4.5149   -3.3234   22.4420 C.ar    1  UNL1        0.0009
@<TRIPOS>BOND
     1    12    13    1
     2    13     5    1
     3     5     6   ar
     4     6     7   ar
     5     7     4    1
     6     4     1    1
     7     1     2    2
     8     1     3   am
     9     3    23    1
    10    23    24    1
    11    24    25    1
    12    25    26    1
    13    26    27    1
    14    25    28    1
    15    28    29    1
    16     3    30    1
    17    30    31    1
    18    31    32   ar
    19    32    33   ar
    20    33    34   ar
    21    34    37    1
    22    37    38   ar
    23    38    39   ar
    24    39    40   ar
    25    40    41    1
    26    40    42   ar
    27    42    43   ar
    28    34    35   ar
    29    35    36   ar
    30     7     8   ar
    31     8    14    1
    32    14    15    1
    33    15    16    1
    34    16    17   ar
    35    17    18   ar
    36    18    19   ar
    37    19    20    1
    38    19    21   ar
    39    21    22   ar
    40     8     9   ar
    41     9    10   ar
    42    10    11    2
    43    10     5   ar
    44    36    31   ar
    45    22    16   ar
    46    43    37   ar
@<TRIPOS>MOLECULE
*****
 43 46 0 0 0
SMALL
GASTEIGER

@<TRIPOS>ATOM
      1 C           3.7905    0.2706   30.4880 C.2     1  UNL1        0.2491
      2 O           5.0702    1.0415   30.6231 O.2     1  UNL1       -0.2727
      3 N           3.1013    0.1885   29.1581 N.am    1  UNL1       -0.2724
      4 C           3.2000   -0.4180   31.6825 C.3     1  UNL1        0.1934
      5 C           3.8538    1.4834   35.1042 C.ar    1  UNL1        0.0529
      6 C           3.3376    1.1756   33.7299 C.ar    1  UNL1        0.0782
      7 N           3.7163   -0.1103   33.0569 N.ar    1  UNL1       -0.2979
      8 C           4.6113   -1.0886   33.7583 C.ar    1  UNL1        0.1750
      9 N           5.1276   -0.7808   35.1326 N.ar    1  UNL1       -0.1847
     10 C           4.7488    0.5051   35.8055 C.ar    1  UNL1        0.2783
     11 O           5.2651    0.8128   37.1799 O.2     1  UNL1       -0.2654
     12 C           4.4216    3.9327   35.7585 C.3     1  UNL1        0.0052
     13 C           3.4750    2.7693   35.7771 C.3     1  UNL1        0.0328
     14 S           4.9901   -2.3745   33.0853 S.3     1  UNL1       -0.0724
     15 C           6.3280   -2.5072   32.4202 C.3     1  UNL1        0.0913
     16 C           6.4719   -3.3474   31.1860 C.ar    1  UNL1       -0.0108
     17 C           6.2719   -2.7324   29.8325 C.ar    1  UNL1       -0.0011
     18 C           6.4159   -3.5726   28.5983 C.ar    1  UNL1        0.0293
     19 C           6.7598   -5.0278   28.7175 C.ar    1  UNL1        0.1401
     20 F           6.9038   -5.8680   27.4833 F       1  UNL1       -0.2042
     21 C           6.9598   -5.6428   30.0709 C.ar    1  UNL1        0.0293
     22 C           6.8159   -4.8026   31.3052 C.ar    1  UNL1       -0.0011
     23 C           1.8216   -0.5824   29.0230 C.3     1  UNL1        0.1111
     24 C           0.5085    0.1422   28.9997 C.3     1  UNL1        0.0939
     25 N           0.4471    1.5954   29.3664 N.3     1  UNL1       -0.2712
     26 C           0.4133    2.0041   30.8092 C.3     1  UNL1        0.0722
     27 C           1.2231    3.1774   31.2756 C.3     1  UNL1        0.0188
     28 C           0.4196    2.6399   28.2902 C.3     1  UNL1        0.0722
     29 C          -0.6700    2.6263   27.2594 C.3     1  UNL1        0.0188
     30 C           3.6918    0.8771   27.9636 C.3     1  UNL1        0.1202
     31 C           3.7382    0.1739   26.6395 C.ar    1  UNL1       -0.0023
     32 C           4.6271   -1.0202   26.4551 C.ar    1  UNL1       -0.0026
     33 C           4.6734   -1.7234   25.1309 C.ar    1  UNL1       -0.0003
     34 C           3.8310   -1.2324   23.9911 C.ar    1  UNL1       -0.0000
     35 C           2.9421   -0.0383   24.1755 C.ar    1  UNL1       -0.0003
     36 C           2.8957    0.6649   25.4996 C.ar    1  UNL1       -0.0026
     37 C           3.8774   -1.9356   22.6670 C.ar    1  UNL1        0.0001
     38 C           4.5503   -3.2711   22.5502 C.ar    1  UNL1        0.0009
     39 C           4.5967   -3.9743   21.2260 C.ar    1  UNL1        0.0114
     40 C           3.9702   -3.3420   20.0187 C.ar    1  UNL1        0.0577
     41 CL          4.0166   -4.0451   18.6945 Cl      1  UNL1       -0.0822
     42 C           3.2972   -2.0065   20.1355 C.ar    1  UNL1        0.0114
     43 C           3.2508   -1.3033   21.4596 C.ar    1  UNL1        0.0009
@<TRIPOS>BOND
     1    12    13    1
     2    13     5    1
     3     5     6   ar
     4     6     7   ar
     5     7     4    1
     6     4     1    1
     7     1     2    2
     8     1     3   am
     9     3    23    1
    10    23    24    1
    11    24    25    1
    12    25    26    1
    13    26    27    1
    14    25    28    1
    15    28    29    1
    16     3    30    1
    17    30    31    1
    18    31    32   ar
    19    32    33   ar
    20    33    34   ar
    21    34    37    1
    22    37    38   ar
    23    38    39   ar
    24    39    40   ar
    25    40    41    1
    26    40    42   ar
    27    42    43   ar
    28    34    35   ar
    29    35    36   ar
    30     7     8   ar
    31     8    14    1
    32    14    15    1
    33    15    16    1
    34    16    17   ar
    35    17    18   ar
    36    18    19   ar
    37    19    20    1
    38    19    21   ar
    39    21    22   ar
    40     8     9   ar
    41     9    10   ar
    42    10    11    2
    43    10     5   ar
    44    36    31   ar
    45    22    16   ar
    46    43    37   ar
@<TRIPOS>MOLECULE
*****
 43 46 0 0 0
SMALL
GASTEIGER

@<TRIPOS>ATOM
      1 C           4.0326   -0.2815   25.7617 C.2     1  UNL1        0.2491
      2 O           4.4748    0.6146   24.6431 O.2     1  UNL1       -0.2727
      3 N           3.2438    0.2816   26.9067 N.am    1  UNL1       -0.2724
      4 C           4.3792   -1.7406   25.7355 C.3     1  UNL1        0.1934
      5 C           4.6465   -2.8466   21.9335 C.ar    1  UNL1        0.0529
      6 C           4.1283   -2.2214   23.1947 C.ar    1  UNL1        0.0782
      7 N           4.8974   -2.3659   24.4743 N.ar    1  UNL1       -0.2979
      8 C           6.1846   -3.1357   24.4929 C.ar    1  UNL1        0.1750
      9 N           6.7028   -3.7610   23.2317 N.ar    1  UNL1       -0.1847
     10 C           5.9337   -3.6164   21.9520 C.ar    1  UNL1        0.2783
     11 O           6.4519   -4.2417   20.6908 O.2     1  UNL1       -0.2654
     12 C           2.9810   -1.5172   20.4472 C.3     1  UNL1        0.0052
     13 C           3.8774   -2.7020   20.6538 C.3     1  UNL1        0.0328
     14 S           6.9537   -3.2803   25.7726 S.3     1  UNL1       -0.0724
     15 C           6.7930   -4.5151   26.6088 C.3     1  UNL1        0.0913
     16 C           6.7550   -4.4083   28.1045 C.ar    1  UNL1       -0.0108
     17 C           6.9671   -5.6296   28.9493 C.ar    1  UNL1       -0.0011
     18 C           6.9292   -5.5228   30.4450 C.ar    1  UNL1        0.0293
     19 C           6.6790   -4.1947   31.0959 C.ar    1  UNL1        0.1401
     20 F           6.6411   -4.0879   32.5917 F       1  UNL1       -0.2042
     21 C           6.4669   -2.9735   30.2512 C.ar    1  UNL1        0.0293
     22 C           6.5049   -3.0803   28.7555 C.ar    1  UNL1       -0.0011
     23 C           2.8016   -0.6145   28.0253 C.3     1  UNL1        0.1111
     24 C           2.4463   -0.0288   29.3597 C.3     1  UNL1        0.0939
     25 N           1.0344    0.3916   29.6423 N.3     1  UNL1       -0.2712
     26 C          -0.1065   -0.3099   28.9669 C.3     1  UNL1        0.0722
     27 C          -1.3826    0.4282   28.6902 C.3     1  UNL1        0.0188
     28 C           0.7634    1.5135   30.6003 C.3     1  UNL1        0.0722
     29 C           1.7076    1.7742   31.7364 C.3     1  UNL1        0.0188
     30 C           2.8972    1.7407   26.9329 C.3     1  UNL1        0.1202
     31 C           1.5010    2.1858   26.6128 C.ar    1  UNL1       -0.0023
     32 C           0.8750    3.3071   27.3879 C.ar    1  UNL1       -0.0026
     33 C          -0.5213    3.7522   27.0677 C.ar    1  UNL1       -0.0003
     34 C          -1.2915    3.0758   25.9726 C.ar    1  UNL1       -0.0000
     35 C          -0.6655    1.9545   25.1976 C.ar    1  UNL1       -0.0003
     36 C           0.7307    1.5095   25.5176 C.ar    1  UNL1       -0.0026
     37 C          -2.6877    3.5209   25.6526 C.ar    1  UNL1        0.0001
     38 C          -3.5477    4.1217   26.7247 C.ar    1  UNL1        0.0009
     39 C          -4.9440    4.5667   26.4046 C.ar    1  UNL1        0.0114
     40 C          -5.4802    4.4110   25.0124 C.ar    1  UNL1        0.0577
     41 CL         -6.8765    4.8560   24.6923 Cl      1  UNL1       -0.0822
     42 C          -4.6202    3.8102   23.9403 C.ar    1  UNL1        0.0114
     43 C          -3.2240    3.3652   24.2603 C.ar    1  UNL1        0.0009
@<TRIPOS>BOND
     1    12    13    1
     2    13     5    1
     3     5     6   ar
     4     6     7   ar
     5     7     4    1
     6     4     1    1
     7     1     2    2
     8     1     3   am
     9     3    23    1
    10    23    24    1
    11    24    25    1
    12    25    26    1
    13    26    27    1
    14    25    28    1
    15    28    29    1
    16     3    30    1
    17    30    31    1
    18    31    32   ar
    19    32    33   ar
    20    33    34   ar
    21    34    37    1
    22    37    38   ar
    23    38    39   ar
    24    39    40   ar
    25    40    41    1
    26    40    42   ar
    27    42    43   ar
    28    34    35   ar
    29    35    36   ar
    30     7     8   ar
    31     8    14    1
    32    14    15    1
    33    15    16    1
    34    16    17   ar
    35    17    18   ar
    36    18    19   ar
    37    19    20    1
    38    19    21   ar
    39    21    22   ar
    40     8     9   ar
    41     9    10   ar
    42    10    11    2
    43    10     5   ar
    44    36    31   ar
    45    22    16   ar
    46    43    37   ar
@<TRIPOS>MOLECULE
*****
 43 46 0 0 0
SMALL
GASTEIGER

@<TRIPOS>ATOM
      1 C           4.2168   -0.9372   28.2429 C.2     1  UNL1        0.2491
      2 O           3.1177   -1.7181   27.5854 O.2     1  UNL1       -0.2727
      3 N           3.8961    0.0224   29.3504 N.am    1  UNL1       -0.2724
      4 C           5.6364   -1.1158   27.7929 C.3     1  UNL1        0.1934
      5 C           7.0005   -4.8417   27.7109 C.ar    1  UNL1        0.0529
      6 C           6.5401   -3.5121   28.2304 C.ar    1  UNL1        0.0782
      7 N           6.0969   -2.4455   27.2733 N.ar    1  UNL1       -0.2979
      8 C           6.1141   -2.7086   25.7967 C.ar    1  UNL1        0.1750
      9 N           6.5746   -4.0383   25.2772 N.ar    1  UNL1       -0.1847
     10 C           7.0178   -5.1048   26.2343 C.ar    1  UNL1        0.2783
     11 O           7.4782   -6.4346   25.7147 O.2     1  UNL1       -0.2654
     12 C           7.0588   -5.8243   30.1153 C.3     1  UNL1        0.0052
     13 C           7.4437   -5.9083   28.6680 C.3     1  UNL1        0.0328
     14 S           5.6709   -1.6421   24.8396 S.3     1  UNL1       -0.0724
     15 C           4.2939   -1.6912   24.2470 C.3     1  UNL1        0.0913
     16 C           4.1036   -2.1375   22.8277 C.ar    1  UNL1       -0.0108
     17 C           3.3857   -1.2517   21.8528 C.ar    1  UNL1       -0.0011
     18 C           3.1955   -1.6980   20.4334 C.ar    1  UNL1        0.0293
     19 C           3.7232   -3.0299   19.9889 C.ar    1  UNL1        0.1401
     20 F           3.5329   -3.4762   18.5695 F       1  UNL1       -0.2042
     21 C           4.4410   -3.9156   20.9637 C.ar    1  UNL1        0.0293
     22 C           4.6312   -3.4693   22.3831 C.ar    1  UNL1       -0.0011
     23 C           4.9951    0.8032   30.0079 C.3     1  UNL1        0.1111
     24 C           5.4431    0.4463   31.3942 C.3     1  UNL1        0.0939
     25 N           5.0999   -0.8951   31.9712 N.3     1  UNL1       -0.2712
     26 C           5.7620   -2.1317   31.4398 C.3     1  UNL1        0.0722
     27 C           6.6438   -2.9531   32.3330 C.3     1  UNL1        0.0188
     28 C           4.0947   -0.9999   33.0795 C.3     1  UNL1        0.0722
     29 C           4.5213   -0.7867   34.5017 C.3     1  UNL1        0.0188
     30 C           2.4764    0.2010   29.8004 C.3     1  UNL1        0.1202
     31 C           1.4808    0.8645   28.8958 C.ar    1  UNL1       -0.0023
     32 C           1.9125    1.9891   28.0020 C.ar    1  UNL1       -0.0026
     33 C           0.9168    2.6527   27.0973 C.ar    1  UNL1       -0.0003
     34 C          -0.5105    2.1917   27.0865 C.ar    1  UNL1       -0.0000
     35 C          -0.9422    1.0671   27.9804 C.ar    1  UNL1       -0.0003
     36 C           0.0534    0.4035   28.8850 C.ar    1  UNL1       -0.0026
     37 C          -1.5062    2.8552   26.1819 C.ar    1  UNL1        0.0001
     38 C          -1.1874    3.0480   24.7289 C.ar    1  UNL1        0.0009
     39 C          -2.1831    3.7116   23.8243 C.ar    1  UNL1        0.0114
     40 C          -3.4975    4.1824   24.3727 C.ar    1  UNL1        0.0577
     41 CL         -4.4932    4.8460   23.4680 Cl      1  UNL1       -0.0822
     42 C          -3.8162    3.9896   25.8257 C.ar    1  UNL1        0.0114
     43 C          -2.8206    3.3261   26.7303 C.ar    1  UNL1        0.0009
@<TRIPOS>BOND
     1    12    13    1
     2    13     5    1
     3     5     6   ar
     4     6     7   ar
     5     7     4    1
     6     4     1    1
     7     1     2    2
     8     1     3   am
     9     3    23    1
    10    23    24    1
    11    24    25    1
    12    25    26    1
    13    26    27    1
    14    25    28    1
    15    28    29    1
    16     3    30    1
    17    30    31    1
    18    31    32   ar
    19    32    33   ar
    20    33    34   ar
    21    34    37    1
    22    37    38   ar
    23    38    39   ar
    24    39    40   ar
    25    40    41    1
    26    40    42   ar
    27    42    43   ar
    28    34    35   ar
    29    35    36   ar
    30     7     8   ar
    31     8    14    1
    32    14    15    1
    33    15    16    1
    34    16    17   ar
    35    17    18   ar
    36    18    19   ar
    37    19    20    1
    38    19    21   ar
    39    21    22   ar
    40     8     9   ar
    41     9    10   ar
    42    10    11    2
    43    10     5   ar
    44    36    31   ar
    45    22    16   ar
    46    43    37   ar
@<TRIPOS>MOLECULE
*****
 43 46 0 0 0
SMALL
GASTEIGER

@<TRIPOS>ATOM
      1 C           4.7357    0.6814   29.5140 C.2     1  UNL1        0.2491
      2 O           5.9670    1.3893   29.0315 O.2     1  UNL1       -0.2727
      3 N           3.5099    0.6357   28.6505 N.am    1  UNL1       -0.2724
      4 C           4.7302    0.0191   30.8598 C.3     1  UNL1        0.1934
      5 C           6.6858   -3.3392   30.0553 C.ar    1  UNL1        0.0529
      6 C           6.0665   -1.9839   29.8839 C.ar    1  UNL1        0.0782
      7 N           5.3495   -1.3363   31.0313 N.ar    1  UNL1       -0.2979
      8 C           5.2518   -2.0441   32.3501 C.ar    1  UNL1        0.1750
      9 N           5.8710   -3.3995   32.5216 N.ar    1  UNL1       -0.1847
     10 C           6.5880   -4.0471   31.3742 C.ar    1  UNL1        0.2783
     11 O           7.2073   -5.4025   31.5457 O.2     1  UNL1       -0.2654
     12 C           6.6799   -4.9604   28.0252 C.3     1  UNL1        0.0052
     13 C           7.4028   -3.9868   28.9079 C.3     1  UNL1        0.0328
     14 S           4.5347   -1.3966   33.4976 S.3     1  UNL1       -0.0724
     15 C           5.3158   -0.7125   34.5801 C.3     1  UNL1        0.0913
     16 C           4.6347    0.2611   35.4956 C.ar    1  UNL1       -0.0108
     17 C           3.7206    1.3079   34.9311 C.ar    1  UNL1       -0.0011
     18 C           3.0394    2.2815   35.8466 C.ar    1  UNL1        0.0293
     19 C           3.2724    2.2082   37.3266 C.ar    1  UNL1        0.1401
     20 F           2.5912    3.1818   38.2421 F       1  UNL1       -0.2042
     21 C           4.1864    1.1614   37.8911 C.ar    1  UNL1        0.0293
     22 C           4.8676    0.1879   36.9756 C.ar    1  UNL1       -0.0011
     23 C           2.2787   -0.0723   29.1330 C.3     1  UNL1        0.1111
     24 C           1.1691    0.7062   29.7753 C.3     1  UNL1        0.0939
     25 N           0.2080    1.4829   28.9250 N.3     1  UNL1       -0.2712
     26 C           0.4826    2.9228   28.6069 C.3     1  UNL1        0.0722
     27 C           1.1213    3.8094   29.6346 C.3     1  UNL1        0.0188
     28 C          -1.0277    0.8198   28.3928 C.3     1  UNL1        0.0722
     29 C          -1.3769   -0.5733   28.8257 C.3     1  UNL1        0.0188
     30 C           3.5155    1.2979   27.3047 C.3     1  UNL1        0.1202
     31 C           3.6027    0.4658   26.0597 C.ar    1  UNL1       -0.0023
     32 C           2.5171    0.5442   25.0276 C.ar    1  UNL1       -0.0026
     33 C           2.6044   -0.2880   23.7826 C.ar    1  UNL1       -0.0003
     34 C           3.7773   -1.1985   23.5698 C.ar    1  UNL1       -0.0000
     35 C           4.8628   -1.2770   24.6020 C.ar    1  UNL1       -0.0003
     36 C           4.7756   -0.4448   25.8469 C.ar    1  UNL1       -0.0026
     37 C           3.8645   -2.0306   22.3249 C.ar    1  UNL1        0.0001
     38 C           3.3017   -1.5117   21.0349 C.ar    1  UNL1        0.0009
     39 C           3.3890   -2.3439   19.7899 C.ar    1  UNL1        0.0114
     40 C           4.0391   -3.6950   19.8350 C.ar    1  UNL1        0.0577
     41 CL          4.1263   -4.5272   18.5900 Cl      1  UNL1       -0.0822
     42 C           4.6019   -4.2139   21.1249 C.ar    1  UNL1        0.0114
     43 C           4.5146   -3.3818   22.3699 C.ar    1  UNL1        0.0009
@<TRIPOS>BOND
     1    12    13    1
     2    13     5    1
     3     5     6   ar
     4     6     7   ar
     5     7     4    1
     6     4     1    1
     7     1     2    2
     8     1     3   am
     9     3    23    1
    10    23    24    1
    11    24    25    1
    12    25    26    1
    13    26    27    1
    14    25    28    1
    15    28    29    1
    16     3    30    1
    17    30    31    1
    18    31    32   ar
    19    32    33   ar
    20    33    34   ar
    21    34    37    1
    22    37    38   ar
    23    38    39   ar
    24    39    40   ar
    25    40    41    1
    26    40    42   ar
    27    42    43   ar
    28    34    35   ar
    29    35    36   ar
    30     7     8   ar
    31     8    14    1
    32    14    15    1
    33    15    16    1
    34    16    17   ar
    35    17    18   ar
    36    18    19   ar
    37    19    20    1
    38    19    21   ar
    39    21    22   ar
    40     8     9   ar
    41     9    10   ar
    42    10    11    2
    43    10     5   ar
    44    36    31   ar
    45    22    16   ar
    46    43    37   ar
@<TRIPOS>MOLECULE
*****
 43 46 0 0 0
SMALL
GASTEIGER

@<TRIPOS>ATOM
      1 C           4.2019   -0.9293   28.2728 C.2     1  UNL1        0.2491
      2 O           3.1106   -1.7031   27.5943 O.2     1  UNL1       -0.2727
      3 N           3.8716   -0.0027   29.4052 N.am    1  UNL1       -0.2724
      4 C           5.6234   -1.0821   27.8189 C.3     1  UNL1        0.1934
      5 C           7.1193   -4.7564   27.7116 C.ar    1  UNL1        0.0529
      6 C           6.6378   -3.4370   28.2380 C.ar    1  UNL1        0.0782
      7 N           6.1049   -2.4016   27.2924 N.ar    1  UNL1       -0.2979
      8 C           6.0536   -2.6857   25.8205 C.ar    1  UNL1        0.1750
      9 N           6.5351   -4.0051   25.2941 N.ar    1  UNL1       -0.1847
     10 C           7.0680   -5.0405   26.2397 C.ar    1  UNL1        0.2783
     11 O           7.5495   -6.3600   25.7132 O.2     1  UNL1       -0.2654
     12 C           7.2398   -5.7736   30.0992 C.3     1  UNL1        0.0052
     13 C           7.6522   -5.7918   28.6572 C.3     1  UNL1        0.0328
     14 S           5.5207   -1.6503   24.8750 S.3     1  UNL1       -0.0724
     15 C           4.4891   -2.0276   23.8534 C.3     1  UNL1        0.0913
     16 C           3.4498   -1.0309   23.4336 C.ar    1  UNL1       -0.0108
     17 C           2.7851   -0.1627   24.4606 C.ar    1  UNL1       -0.0011
     18 C           1.7458    0.8340   24.0407 C.ar    1  UNL1        0.0293
     19 C           1.3710    0.9626   22.5939 C.ar    1  UNL1        0.1401
     20 F           0.3317    1.9593   22.1741 F       1  UNL1       -0.2042
     21 C           2.0357    0.0944   21.5671 C.ar    1  UNL1        0.0293
     22 C           3.0750   -0.9023   21.9869 C.ar    1  UNL1       -0.0011
     23 C           4.9629    0.7712   30.0837 C.3     1  UNL1        0.1111
     24 C           5.6407    0.2058   31.2965 C.3     1  UNL1        0.0939
     25 N           5.0527   -0.9820   31.9990 N.3     1  UNL1       -0.2712
     26 C           5.4343   -2.3691   31.5744 C.3     1  UNL1        0.0722
     27 C           6.2617   -3.2303   32.4820 C.3     1  UNL1        0.0188
     28 C           4.0832   -0.7827   33.1260 C.3     1  UNL1        0.0722
     29 C           3.5710    0.5916   33.4406 C.3     1  UNL1        0.0188
     30 C           2.4502    0.1501   29.8591 C.3     1  UNL1        0.1202
     31 C           1.4444    0.8123   28.9648 C.ar    1  UNL1       -0.0023
     32 C           0.0436    0.2814   28.8890 C.ar    1  UNL1       -0.0026
     33 C          -0.9622    0.9437   27.9946 C.ar    1  UNL1       -0.0003
     34 C          -0.5671    2.1369   27.1761 C.ar    1  UNL1       -0.0000
     35 C           0.8337    2.6679   27.2518 C.ar    1  UNL1       -0.0003
     36 C           1.8394    2.0056   28.1461 C.ar    1  UNL1       -0.0026
     37 C          -1.5729    2.7991   26.2817 C.ar    1  UNL1        0.0001
     38 C          -1.3020    2.9240   24.8117 C.ar    1  UNL1        0.0009
     39 C          -2.3079    3.5863   23.9174 C.ar    1  UNL1        0.0114
     40 C          -3.5845    4.1236   24.4931 C.ar    1  UNL1        0.0577
     41 CL         -4.5903    4.7859   23.5988 Cl      1  UNL1       -0.0822
     42 C          -3.8553    3.9987   25.9631 C.ar    1  UNL1        0.0114
     43 C          -2.8496    3.3365   26.8575 C.ar    1  UNL1        0.0009
@<TRIPOS>BOND
     1    12    13    1
     2    13     5    1
     3     5     6   ar
     4     6     7   ar
     5     7     4    1
     6     4     1    1
     7     1     2    2
     8     1     3   am
     9     3    23    1
    10    23    24    1
    11    24    25    1
    12    25    26    1
    13    26    27    1
    14    25    28    1
    15    28    29    1
    16     3    30    1
    17    30    31    1
    18    31    32   ar
    19    32    33   ar
    20    33    34   ar
    21    34    37    1
    22    37    38   ar
    23    38    39   ar
    24    39    40   ar
    25    40    41    1
    26    40    42   ar
    27    42    43   ar
    28    34    35   ar
    29    35    36   ar
    30     7     8   ar
    31     8    14    1
    32    14    15    1
    33    15    16    1
    34    16    17   ar
    35    17    18   ar
    36    18    19   ar
    37    19    20    1
    38    19    21   ar
    39    21    22   ar
    40     8     9   ar
    41     9    10   ar
    42    10    11    2
    43    10     5   ar
    44    36    31   ar
    45    22    16   ar
    46    43    37   ar
@<TRIPOS>MOLECULE
*****
 43 46 0 0 0
SMALL
GASTEIGER

@<TRIPOS>ATOM
      1 C          -0.7306    3.0877   20.3251 C.2     1  UNL1        0.2491
      2 O          -1.2921    1.7239   20.5983 O.2     1  UNL1       -0.2727
      3 N           0.1976    3.2982   19.1657 N.am    1  UNL1       -0.2724
      4 C          -1.0974    4.2411   21.2111 C.3     1  UNL1        0.1934
      5 C          -4.5353    4.1807   23.1929 C.ar    1  UNL1        0.0529
      6 C          -3.5399    4.3713   22.0871 C.ar    1  UNL1        0.0782
      7 N          -2.0928    4.0504   22.3170 N.ar    1  UNL1       -0.2979
      8 C          -1.6411    3.5387   23.6527 C.ar    1  UNL1        0.1750
      9 N          -2.6365    3.3480   24.7585 N.ar    1  UNL1       -0.1847
     10 C          -4.0836    3.6690   24.5286 C.ar    1  UNL1        0.2783
     11 O          -5.0790    3.4783   25.6344 O.2     1  UNL1       -0.2654
     12 C          -6.5148    4.6049   21.5644 C.3     1  UNL1        0.0052
     13 C          -5.9824    4.5016   22.9630 C.3     1  UNL1        0.0328
     14 S          -0.1940    3.2177   23.8826 S.3     1  UNL1       -0.0724
     15 C           0.2750    1.7937   23.8358 C.3     1  UNL1        0.0913
     16 C           1.6787    1.4800   23.4102 C.ar    1  UNL1       -0.0108
     17 C           2.3717    0.2637   23.9491 C.ar    1  UNL1       -0.0011
     18 C           3.7754   -0.0500   23.5235 C.ar    1  UNL1        0.0293
     19 C           4.4861    0.8525   22.5589 C.ar    1  UNL1        0.1401
     20 F           5.8898    0.5388   22.1333 F       1  UNL1       -0.2042
     21 C           3.7931    2.0688   22.0200 C.ar    1  UNL1        0.0293
     22 C           2.3894    2.3825   22.4457 C.ar    1  UNL1       -0.0011
     23 C           0.7591    4.6621   18.8925 C.3     1  UNL1        0.1111
     24 C           1.8348    4.8377   17.8620 C.3     1  UNL1        0.0939
     25 N           3.2662    4.9776   18.2883 N.3     1  UNL1       -0.2712
     26 C           3.6238    4.9244   19.7441 C.3     1  UNL1        0.0722
     27 C           4.7348    5.7808   20.2753 C.3     1  UNL1        0.0188
     28 C           4.3399    5.1707   17.2589 C.3     1  UNL1        0.0722
     29 C           5.3287    4.0748   16.9918 C.3     1  UNL1        0.0188
     30 C           0.5644    2.1449   18.2796 C.3     1  UNL1        0.1202
     31 C           1.6146    1.1673   18.7172 C.ar    1  UNL1       -0.0023
     32 C           3.0386    1.3521   18.2834 C.ar    1  UNL1       -0.0026
     33 C           4.0888    0.3745   18.7211 C.ar    1  UNL1       -0.0003
     34 C           3.7149   -0.7879   19.5924 C.ar    1  UNL1       -0.0000
     35 C           2.2910   -0.9726   20.0261 C.ar    1  UNL1       -0.0003
     36 C           1.2408    0.0049   19.5885 C.ar    1  UNL1       -0.0026
     37 C           4.7651   -1.7654   20.0299 C.ar    1  UNL1        0.0001
     38 C           4.4478   -2.7861   21.0823 C.ar    1  UNL1        0.0009
     39 C           5.4980   -3.7637   21.5199 C.ar    1  UNL1        0.0114
     40 C           6.8655   -3.7205   20.9051 C.ar    1  UNL1        0.0577
     41 CL          7.9158   -4.6981   21.3426 Cl      1  UNL1       -0.0822
     42 C           7.1829   -2.6998   19.8527 C.ar    1  UNL1        0.0114
     43 C           6.1327   -1.7223   19.4151 C.ar    1  UNL1        0.0009
@<TRIPOS>BOND
     1    12    13    1
     2    13     5    1
     3     5     6   ar
     4     6     7   ar
     5     7     4    1
     6     4     1    1
     7     1     2    2
     8     1     3   am
     9     3    23    1
    10    23    24    1
    11    24    25    1
    12    25    26    1
    13    26    27    1
    14    25    28    1
    15    28    29    1
    16     3    30    1
    17    30    31    1
    18    31    32   ar
    19    32    33   ar
    20    33    34   ar
    21    34    37    1
    22    37    38   ar
    23    38    39   ar
    24    39    40   ar
    25    40    41    1
    26    40    42   ar
    27    42    43   ar
    28    34    35   ar
    29    35    36   ar
    30     7     8   ar
    31     8    14    1
    32    14    15    1
    33    15    16    1
    34    16    17   ar
    35    17    18   ar
    36    18    19   ar
    37    19    20    1
    38    19    21   ar
    39    21    22   ar
    40     8     9   ar
    41     9    10   ar
    42    10    11    2
    43    10     5   ar
    44    36    31   ar
    45    22    16   ar
    46    43    37   ar
@<TRIPOS>MOLECULE
*****
 43 46 0 0 0
SMALL
GASTEIGER

@<TRIPOS>ATOM
      1 C          -1.4761    3.3855   25.5523 C.2     1  UNL1        0.2491
      2 O          -2.3604    4.1741   26.4721 O.2     1  UNL1       -0.2727
      3 N          -0.8187    2.1281   26.0392 N.am    1  UNL1       -0.2724
      4 C          -1.2491    3.8542   24.1456 C.3     1  UNL1        0.1934
      5 C          -4.8205    3.7156   22.4206 C.ar    1  UNL1        0.0529
      6 C          -3.7537    3.9094   23.4570 C.ar    1  UNL1        0.0782
      7 N          -2.3160    3.6605   23.1091 N.ar    1  UNL1       -0.2979
      8 C          -1.9451    3.2178   21.7247 C.ar    1  UNL1        0.1750
      9 N          -3.0120    3.0241   20.6883 N.ar    1  UNL1       -0.1847
     10 C          -4.4497    3.2730   21.0362 C.ar    1  UNL1        0.2783
     11 O          -5.5166    3.0792   19.9997 O.2     1  UNL1       -0.2654
     12 C          -6.6087    4.6970   24.0297 C.3     1  UNL1        0.0052
     13 C          -6.2582    3.9645   22.7685 C.3     1  UNL1        0.0328
     14 S          -0.5074    2.9690   21.3768 S.3     1  UNL1       -0.0724
     15 C          -0.1265    2.6162   19.9695 C.3     1  UNL1        0.0913
     16 C           0.8304    1.4904   19.7113 C.ar    1  UNL1       -0.0108
     17 C           1.9393    1.6621   18.7158 C.ar    1  UNL1       -0.0011
     18 C           2.8963    0.5363   18.4575 C.ar    1  UNL1        0.0293
     19 C           2.7444   -0.7612   19.1948 C.ar    1  UNL1        0.1401
     20 F           3.7014   -1.8870   18.9366 F       1  UNL1       -0.2042
     21 C           1.6356   -0.9329   20.1902 C.ar    1  UNL1        0.0293
     22 C           0.6786    0.1930   20.4485 C.ar    1  UNL1       -0.0011
     23 C           0.0656    1.3395   25.1193 C.3     1  UNL1        0.1111
     24 C           1.5368    1.6267   25.0645 C.3     1  UNL1        0.0939
     25 N           2.5186    0.4964   24.9728 N.3     1  UNL1       -0.2712
     26 C           3.1892   -0.0171   26.2124 C.3     1  UNL1        0.0722
     27 C           4.3116    0.7596   26.8345 C.3     1  UNL1        0.0188
     28 C           2.8299   -0.1205   23.6414 C.3     1  UNL1        0.0722
     29 C           3.7121   -1.3312   23.5636 C.3     1  UNL1        0.0188
     30 C          -1.0457    1.6594   27.4458 C.3     1  UNL1        0.1202
     31 C           0.1248    1.3729   28.3389 C.ar    1  UNL1       -0.0023
     32 C           0.9853    2.4983   28.8318 C.ar    1  UNL1       -0.0026
     33 C           2.1559    2.2117   29.7250 C.ar    1  UNL1       -0.0003
     34 C           2.4659    0.7997   30.1252 C.ar    1  UNL1       -0.0000
     35 C           1.6054   -0.3257   29.6323 C.ar    1  UNL1       -0.0003
     36 C           0.4349   -0.0392   28.7392 C.ar    1  UNL1       -0.0026
     37 C           3.6365    0.5132   31.0183 C.ar    1  UNL1        0.0001
     38 C           5.0340    0.6667   30.4955 C.ar    1  UNL1        0.0009
     39 C           6.2046    0.3801   31.3887 C.ar    1  UNL1        0.0114
     40 C           5.9776   -0.0599   32.8046 C.ar    1  UNL1        0.0577
     41 CL          7.1481   -0.3464   33.6978 Cl      1  UNL1       -0.0822
     42 C           4.5800   -0.2134   33.3274 C.ar    1  UNL1        0.0114
     43 C           3.4095    0.0731   32.4343 C.ar    1  UNL1        0.0009
@<TRIPOS>BOND
     1    12    13    1
     2    13     5    1
     3     5     6   ar
     4     6     7   ar
     5     7     4    1
     6     4     1    1
     7     1     2    2
     8     1     3   am
     9     3    23    1
    10    23    24    1
    11    24    25    1
    12    25    26    1
    13    26    27    1
    14    25    28    1
    15    28    29    1
    16     3    30    1
    17    30    31    1
    18    31    32   ar
    19    32    33   ar
    20    33    34   ar
    21    34    37    1
    22    37    38   ar
    23    38    39   ar
    24    39    40   ar
    25    40    41    1
    26    40    42   ar
    27    42    43   ar
    28    34    35   ar
    29    35    36   ar
    30     7     8   ar
    31     8    14    1
    32    14    15    1
    33    15    16    1
    34    16    17   ar
    35    17    18   ar
    36    18    19   ar
    37    19    20    1
    38    19    21   ar
    39    21    22   ar
    40     8     9   ar
    41     9    10   ar
    42    10    11    2
    43    10     5   ar
    44    36    31   ar
    45    22    16   ar
    46    43    37   ar
