@<TRIPOS>MOLECULE
*****
 16 18 0 0 0
SMALL
GASTEIGER

@<TRIPOS>ATOM
      1 O          -9.0507  -18.2154   20.4569 O.3     1  UNL1       -0.4724
      2 CL        -13.8869  -17.9162   23.9954 Cl      1  UNL1       -0.0613
      3 C         -12.6779  -17.9910   23.1108 C.ar    1  UNL1        0.1386
      4 C         -12.8045  -17.7123   21.6424 C.ar    1  UNL1        0.0339
      5 C         -11.5954  -17.7871   20.7577 C.ar    1  UNL1        0.0410
      6 C         -10.2597  -18.1406   21.3415 C.ar    1  UNL1        0.1578
      7 C         -10.1331  -18.4193   22.8099 C.ar    1  UNL1        0.1366
      8 N         -11.3422  -18.3445   23.6945 N.ar    1  UNL1       -0.2293
      9 C          -8.3711  -19.5324   20.2253 C.3     1  UNL1        0.2210
     10 C          -6.8745  -19.6014   20.1515 C.3     1  UNL1        0.0983
     11 C          -6.0384  -20.8327   20.3382 C.3     1  UNL1        0.0209
     12 C          -4.5984  -20.4435   20.1802 C.3     1  UNL1        0.0172
     13 C          -3.2754  -19.7674   19.9741 C.3     1  UNL1        0.0171
     14 C          -4.5445  -18.9717   19.8958 C.3     1  UNL1        0.0541
     15 N          -5.9512  -18.4512   19.8781 N.3     1  UNL1       -0.2966
     16 H          -6.1601  -18.0493   18.9642 H       1  UNL1        0.1233
@<TRIPOS>BOND
     1     2     3    1
     2     3     4   ar
     3     4     5   ar
     4     5     6   ar
     5     6     1    1
     6     1     9    1
     7    10     9    1
     8    10    11    1
     9    12    11    1
    10    12    13    1
    11    14    13    1
    12    14    15    1
    13     6     7   ar
    14     7     8   ar
    15     8     3   ar
    16    15    10    1
    17    14    12    1
    18    15    16    1
@<TRIPOS>MOLECULE
*****
 16 18 0 0 0
SMALL
GASTEIGER

@<TRIPOS>ATOM
      1 O          -5.4296  -20.0811   21.1455 O.3     1  UNL1       -0.4724
      2 CL          0.0094  -17.9301   19.8073 Cl      1  UNL1       -0.0613
      3 C          -1.3504  -18.4678   20.1419 C.ar    1  UNL1        0.1386
      4 C          -2.4720  -18.3381   19.1544 C.ar    1  UNL1        0.0339
      5 C          -3.8317  -18.8758   19.4890 C.ar    1  UNL1        0.0410
      6 C          -4.0699  -19.5433   20.8110 C.ar    1  UNL1        0.1578
      7 C          -2.9482  -19.6731   21.7984 C.ar    1  UNL1        0.1366
      8 N          -1.5885  -19.1353   21.4639 N.ar    1  UNL1       -0.2293
      9 C          -6.6567  -19.3989   20.6175 C.3     1  UNL1        0.2210
     10 C          -7.5428  -18.6240   21.5472 C.3     1  UNL1        0.0983
     11 C          -8.4311  -19.2048   22.6071 C.3     1  UNL1        0.0209
     12 C          -9.1335  -18.0720   23.2952 C.3     1  UNL1        0.0172
     13 C          -9.6737  -16.7604   23.7830 C.3     1  UNL1        0.0171
     14 C          -8.6792  -16.7910   22.6605 C.3     1  UNL1        0.0541
     15 N          -7.6961  -17.1321   21.5801 N.3     1  UNL1       -0.2966
     16 H          -6.7961  -16.6960   21.7808 H       1  UNL1        0.1233
@<TRIPOS>BOND
     1     2     3    1
     2     3     4   ar
     3     4     5   ar
     4     5     6   ar
     5     6     1    1
     6     1     9    1
     7    10     9    1
     8    10    11    1
     9    12    11    1
    10    12    13    1
    11    14    13    1
    12    14    15    1
    13     6     7   ar
    14     7     8   ar
    15     8     3   ar
    16    15    10    1
    17    14    12    1
    18    15    16    1
@<TRIPOS>MOLECULE
*****
 16 18 0 0 0
SMALL
GASTEIGER

@<TRIPOS>ATOM
      1 O          -7.8255  -17.1514   21.4447 O.3     1  UNL1       -0.4724
      2 CL         -8.3260  -15.2861   27.1253 Cl      1  UNL1       -0.0613
      3 C          -8.2009  -15.7524   25.7052 C.ar    1  UNL1        0.1386
      4 C          -9.1103  -16.8260   25.1854 C.ar    1  UNL1        0.0339
      5 C          -8.9852  -17.2923   23.7653 C.ar    1  UNL1        0.0410
      6 C          -7.9506  -16.6851   22.8648 C.ar    1  UNL1        0.1578
      7 C          -7.0411  -15.6115   23.3846 C.ar    1  UNL1        0.1366
      8 N          -7.1663  -15.1451   24.8048 N.ar    1  UNL1       -0.2293
      9 C          -7.3687  -18.5498   21.1520 C.3     1  UNL1        0.2210
     10 C          -5.9032  -18.8570   21.0633 C.3     1  UNL1        0.0983
     11 C          -5.0353  -19.3457   22.1849 C.3     1  UNL1        0.0209
     12 C          -3.6440  -19.5202   21.6523 C.3     1  UNL1        0.0172
     13 C          -2.3788  -19.5958   20.8502 C.3     1  UNL1        0.0171
     14 C          -3.6519  -19.1394   20.2015 C.3     1  UNL1        0.0541
     15 N          -5.0481  -18.7295   19.8374 N.3     1  UNL1       -0.2966
     16 H          -5.4063  -19.3373   19.1008 H       1  UNL1        0.1233
@<TRIPOS>BOND
     1     2     3    1
     2     3     4   ar
     3     4     5   ar
     4     5     6   ar
     5     6     1    1
     6     1     9    1
     7    10     9    1
     8    10    11    1
     9    12    11    1
    10    12    13    1
    11    14    13    1
    12    14    15    1
    13     6     7   ar
    14     7     8   ar
    15     8     3   ar
    16    15    10    1
    17    14    12    1
    18    15    16    1
@<TRIPOS>MOLECULE
*****
 16 18 0 0 0
SMALL
GASTEIGER

@<TRIPOS>ATOM
      1 O          -4.5389  -15.8634   23.4364 O.3     1  UNL1       -0.4724
      2 CL         -8.7504  -15.1183   27.6445 Cl      1  UNL1       -0.0613
      3 C          -7.6975  -15.3046   26.5925 C.ar    1  UNL1        0.1386
      4 C          -8.0960  -15.5270   25.1637 C.ar    1  UNL1        0.0339
      5 C          -7.0432  -15.7133   24.1116 C.ar    1  UNL1        0.0410
      6 C          -5.5918  -15.6771   24.4885 C.ar    1  UNL1        0.1578
      7 C          -5.1932  -15.4547   25.9173 C.ar    1  UNL1        0.1366
      8 N          -6.2461  -15.2684   26.9693 N.ar    1  UNL1       -0.2293
      9 C          -4.0107  -17.2353   23.1386 C.3     1  UNL1        0.2210
     10 C          -2.9262  -17.4163   22.1182 C.3     1  UNL1        0.0983
     11 C          -2.0096  -16.3450   21.6063 C.3     1  UNL1        0.0209
     12 C          -1.0849  -16.9669   20.6022 C.3     1  UNL1        0.0172
     13 C          -0.3184  -17.8515   19.6642 C.3     1  UNL1        0.0171
     14 C          -1.4301  -18.4226   20.4935 C.3     1  UNL1        0.0541
     15 N          -2.5681  -18.7004   21.4305 N.3     1  UNL1       -0.2966
     16 H          -2.2860  -19.3960   22.1211 H       1  UNL1        0.1233
@<TRIPOS>BOND
     1     2     3    1
     2     3     4   ar
     3     4     5   ar
     4     5     6   ar
     5     6     1    1
     6     1     9    1
     7    10     9    1
     8    10    11    1
     9    12    11    1
    10    12    13    1
    11    14    13    1
    12    14    15    1
    13     6     7   ar
    14     7     8   ar
    15     8     3   ar
    16    15    10    1
    17    14    12    1
    18    15    16    1
@<TRIPOS>MOLECULE
*****
 16 18 0 0 0
SMALL
GASTEIGER

@<TRIPOS>ATOM
      1 O          -8.3925  -16.3645   21.9160 O.3     1  UNL1       -0.4724
      2 CL         -6.5665  -15.1906   27.5095 Cl      1  UNL1       -0.0613
      3 C          -7.0230  -15.4840   26.1111 C.ar    1  UNL1        0.1386
      4 C          -8.4885  -15.5685   25.8027 C.ar    1  UNL1        0.0339
      5 C          -8.9450  -15.8620   24.4044 C.ar    1  UNL1        0.0410
      6 C          -7.9360  -16.0710   23.3143 C.ar    1  UNL1        0.1578
      7 C          -6.4705  -15.9866   23.6227 C.ar    1  UNL1        0.1366
      8 N          -6.0140  -15.6931   25.0211 N.ar    1  UNL1       -0.2293
      9 C          -9.2617  -17.5567   21.6454 C.3     1  UNL1        0.2210
     10 C         -10.6001  -17.6759   22.3122 C.3     1  UNL1        0.0983
     11 C         -11.7846  -16.7862   22.0771 C.3     1  UNL1        0.0209
     12 C         -12.9055  -17.2661   22.9508 C.3     1  UNL1        0.0172
     13 C         -13.8187  -17.9625   23.9157 C.3     1  UNL1        0.0171
     14 C         -12.4137  -18.4525   23.7258 C.3     1  UNL1        0.0541
     15 N         -10.9889  -18.7058   23.3312 N.3     1  UNL1       -0.2966
     16 H         -10.9015  -19.6396   22.9303 H       1  UNL1        0.1233
@<TRIPOS>BOND
     1     2     3    1
     2     3     4   ar
     3     4     5   ar
     4     5     6   ar
     5     6     1    1
     6     1     9    1
     7    10     9    1
     8    10    11    1
     9    12    11    1
    10    12    13    1
    11    14    13    1
    12    14    15    1
    13     6     7   ar
    14     7     8   ar
    15     8     3   ar
    16    15    10    1
    17    14    12    1
    18    15    16    1
@<TRIPOS>MOLECULE
*****
 16 18 0 0 0
SMALL
GASTEIGER

@<TRIPOS>ATOM
      1 O         -11.2220  -19.8960   22.9655 O.3     1  UNL1       -0.4724
      2 CL        -11.7465  -15.4533   18.9671 Cl      1  UNL1       -0.0613
      3 C         -11.6153  -16.5640   19.9667 C.ar    1  UNL1        0.1386
      4 C         -12.4713  -16.5693   21.1985 C.ar    1  UNL1        0.0339
      5 C         -12.3402  -17.6800   22.1981 C.ar    1  UNL1        0.0410
      6 C         -11.3531  -18.7853   21.9659 C.ar    1  UNL1        0.1578
      7 C         -10.4972  -18.7800   20.7341 C.ar    1  UNL1        0.1366
      8 N         -10.6283  -17.6693   19.7345 N.ar    1  UNL1       -0.2293
      9 C         -10.0367  -19.9427   23.8835 C.3     1  UNL1        0.2210
     10 C          -9.5670  -18.6924   24.5662 C.3     1  UNL1        0.0983
     11 C          -8.9956  -17.4808   23.8912 C.3     1  UNL1        0.0209
     12 C          -8.6617  -16.4737   24.9515 C.3     1  UNL1        0.0172
     13 C          -8.4374  -15.6854   26.2078 C.3     1  UNL1        0.0171
     14 C          -9.0267  -17.0628   26.2818 C.3     1  UNL1        0.0541
     15 N          -9.5863  -18.4341   26.0437 N.3     1  UNL1       -0.2966
     16 H         -10.5441  -18.4822   26.3910 H       1  UNL1        0.1233
@<TRIPOS>BOND
     1     2     3    1
     2     3     4   ar
     3     4     5   ar
     4     5     6   ar
     5     6     1    1
     6     1     9    1
     7    10     9    1
     8    10    11    1
     9    12    11    1
    10    12    13    1
    11    14    13    1
    12    14    15    1
    13     6     7   ar
    14     7     8   ar
    15     8     3   ar
    16    15    10    1
    17    14    12    1
    18    15    16    1
@<TRIPOS>MOLECULE
*****
 16 18 0 0 0
SMALL
GASTEIGER

@<TRIPOS>ATOM
      1 O          -7.0937  -19.7569   22.1746 O.3     1  UNL1       -0.4724
      2 CL        -12.7188  -18.2308   23.5993 Cl      1  UNL1       -0.0613
      3 C         -11.3125  -18.6123   23.2431 C.ar    1  UNL1        0.1386
      4 C         -10.6822  -19.8213   23.8683 C.ar    1  UNL1        0.0339
      5 C          -9.2759  -20.2028   23.5122 C.ar    1  UNL1        0.0410
      6 C          -8.5000  -19.3754   22.5308 C.ar    1  UNL1        0.1578
      7 C          -9.1303  -18.1664   21.9056 C.ar    1  UNL1        0.1366
      8 N         -10.5366  -17.7849   22.2617 N.ar    1  UNL1       -0.2293
      9 C          -5.9702  -18.7939   22.4204 C.3     1  UNL1        0.2210
     10 C          -4.8286  -18.7102   21.4509 C.3     1  UNL1        0.0983
     11 C          -4.7610  -19.3764   20.1087 C.3     1  UNL1        0.0209
     12 C          -3.4449  -19.0234   19.4817 C.3     1  UNL1        0.0172
     13 C          -2.0833  -18.5087   19.1196 C.3     1  UNL1        0.0171
     14 C          -2.6990  -18.1391   20.4365 C.3     1  UNL1        0.0541
     15 N          -3.5541  -17.9454   21.6536 N.3     1  UNL1       -0.2966
     16 H          -3.7610  -16.9543   21.7771 H       1  UNL1        0.1233
@<TRIPOS>BOND
     1     2     3    1
     2     3     4   ar
     3     4     5   ar
     4     5     6   ar
     5     6     1    1
     6     1     9    1
     7    10     9    1
     8    10    11    1
     9    12    11    1
    10    12    13    1
    11    14    13    1
    12    14    15    1
    13     6     7   ar
    14     7     8   ar
    15     8     3   ar
    16    15    10    1
    17    14    12    1
    18    15    16    1
@<TRIPOS>MOLECULE
*****
 16 18 0 0 0
SMALL
GASTEIGER

@<TRIPOS>ATOM
      1 O          -7.8674  -16.5904   21.8686 O.3     1  UNL1       -0.4724
      2 CL         -6.5886  -15.0486   27.5244 Cl      1  UNL1       -0.0613
      3 C          -6.9083  -15.4341   26.1104 C.ar    1  UNL1        0.1386
      4 C          -5.7991  -15.6871   25.1330 C.ar    1  UNL1        0.0339
      5 C          -6.1188  -16.0725   23.7190 C.ar    1  UNL1        0.0410
      6 C          -7.5477  -16.2049   23.2826 C.ar    1  UNL1        0.1578
      7 C          -8.6570  -15.9519   24.2600 C.ar    1  UNL1        0.1366
      8 N          -8.3372  -15.5665   25.6740 N.ar    1  UNL1       -0.2293
      9 C          -8.7694  -17.7572   21.5950 C.3     1  UNL1        0.2210
     10 C         -10.1531  -17.7873   22.1733 C.3     1  UNL1        0.0983
     11 C         -10.6900  -18.8176   23.1221 C.3     1  UNL1        0.0209
     12 C         -12.1116  -18.4594   23.4395 C.3     1  UNL1        0.0172
     13 C         -13.4808  -17.8596   23.5640 C.3     1  UNL1        0.0171
     14 C         -12.4534  -17.2077   22.6869 C.3     1  UNL1        0.0541
     15 N         -11.2430  -16.7923   21.9043 N.3     1  UNL1       -0.2966
     16 H         -10.9432  -15.8626   22.1980 H       1  UNL1        0.1233
@<TRIPOS>BOND
     1     2     3    1
     2     3     4   ar
     3     4     5   ar
     4     5     6   ar
     5     6     1    1
     6     1     9    1
     7    10     9    1
     8    10    11    1
     9    12    11    1
    10    12    13    1
    11    14    13    1
    12    14    15    1
    13     6     7   ar
    14     7     8   ar
    15     8     3   ar
    16    15    10    1
    17    14    12    1
    18    15    16    1
@<TRIPOS>MOLECULE
*****
 16 18 0 0 0
SMALL
GASTEIGER

@<TRIPOS>ATOM
      1 O          -7.2558  -19.6697   22.1276 O.3     1  UNL1       -0.4724
      2 CL         -1.6146  -18.7944   20.2809 Cl      1  UNL1       -0.0613
      3 C          -3.0249  -19.0133   20.7426 C.ar    1  UNL1        0.1386
      4 C          -3.9046  -19.9948   20.0266 C.ar    1  UNL1        0.0339
      5 C          -5.3150  -20.2136   20.4883 C.ar    1  UNL1        0.0410
      6 C          -5.8455  -19.4509   21.6659 C.ar    1  UNL1        0.1578
      7 C          -4.9657  -18.4694   22.3818 C.ar    1  UNL1        0.1366
      8 N          -3.5554  -18.2506   21.9201 N.ar    1  UNL1       -0.2293
      9 C          -8.4010  -19.3823   21.2024 C.3     1  UNL1        0.2210
     10 C          -9.6800  -18.8171   21.7452 C.3     1  UNL1        0.0983
     11 C         -11.0384  -19.4433   21.6328 C.3     1  UNL1        0.0209
     12 C         -12.0232  -18.5396   22.3138 C.3     1  UNL1        0.0172
     13 C         -12.7559  -17.4578   23.0504 C.3     1  UNL1        0.0171
     14 C         -11.2734  -17.3550   22.8470 C.3     1  UNL1        0.0541
     15 N          -9.8252  -17.5264   22.4956 N.3     1  UNL1       -0.2966
     16 H          -9.2636  -17.5557   23.3466 H       1  UNL1        0.1233
@<TRIPOS>BOND
     1     2     3    1
     2     3     4   ar
     3     4     5   ar
     4     5     6   ar
     5     6     1    1
     6     1     9    1
     7    10     9    1
     8    10    11    1
     9    12    11    1
    10    12    13    1
    11    14    13    1
    12    14    15    1
    13     6     7   ar
    14     7     8   ar
    15     8     3   ar
    16    15    10    1
    17    14    12    1
    18    15    16    1
