@<TRIPOS>MOLECULE
*****
 26 29 0 0 0
SMALL
GASTEIGER

@<TRIPOS>ATOM
      1 C          -8.3555  -19.2306   21.3630 C.ar    1  UNL1        0.0866
      2 C          -7.4630  -19.9590   22.3236 C.ar    1  UNL1        0.0106
      3 C          -6.0901  -20.3857   21.8956 C.ar    1  UNL1        0.0377
      4 C          -5.6099  -20.0840   20.5070 C.ar    1  UNL1        0.1453
      5 C          -6.5024  -19.3557   19.5463 C.ar    1  UNL1        0.0377
      6 C          -7.8752  -18.9290   19.9744 C.ar    1  UNL1        0.0106
      7 O         -12.8284  -16.7876   20.3507 O.2     1  UNL1       -0.2376
      8 C         -11.9648  -17.5824   21.2848 C.2     1  UNL1        0.3788
      9 N         -10.5920  -18.0091   20.8569 N.am    1  UNL1        0.0364
     10 C          -9.7284  -18.8039   21.7910 C.2     1  UNL1        0.3688
     11 N         -10.2376  -19.1719   23.1530 N.2     1  UNL1       -0.0400
     12 C         -11.6105  -18.7452   23.5810 C.2     1  UNL1        0.1818
     13 C         -12.1198  -19.1132   24.9431 C.3     1  UNL1        0.1000
     14 C         -13.4926  -18.6865   25.3710 C.2     1  UNL1       -0.0174
     15 C         -14.3562  -17.8917   24.4369 C.2     1  UNL1       -0.0038
     16 C         -13.8470  -17.5237   23.0748 C.2     1  UNL1        0.0101
     17 C         -12.4741  -17.9504   22.6469 C.2     1  UNL1        0.1209
     18 O          -4.2369  -20.5108   20.0790 O.3     1  UNL1       -0.4526
     19 C          -3.1150  -19.5154   20.0569 C.ar    1  UNL1        0.1558
     20 C          -2.6475  -18.9410   18.7525 C.ar    1  UNL1        0.0392
     21 C          -1.5255  -17.9457   18.7305 C.ar    1  UNL1        0.0146
     22 C          -0.8710  -17.5248   20.0129 C.ar    1  UNL1        0.0587
     23 CL          0.2509  -16.5295   19.9909 Cl      1  UNL1       -0.0822
     24 C          -1.3385  -18.0992   21.3173 C.ar    1  UNL1        0.0259
     25 C          -2.4605  -19.0946   21.3393 C.ar    1  UNL1        0.0929
     26 CL         -2.9280  -19.6690   22.6437 Cl      1  UNL1       -0.0790
@<TRIPOS>BOND
     1     7     8    2
     2     8     9    1
     3     9    10    2
     4    10     1    1
     5     1     2   ar
     6     2     3   ar
     7     3     4   ar
     8     4    18    1
     9    18    19    1
    10    19    20   ar
    11    20    21   ar
    12    21    22   ar
    13    22    23    1
    14    22    24   ar
    15    24    25   ar
    16    25    26    1
    17     4     5   ar
    18     5     6   ar
    19    10    11    1
    20    11    12    2
    21    12    13    1
    22    13    14    1
    23    14    15    2
    24    15    16    1
    25    16    17    2
    26    17     8    1
    27     6     1   ar
    28    17    12    1
    29    25    19   ar
@<TRIPOS>MOLECULE
*****
 26 29 0 0 0
SMALL
GASTEIGER

@<TRIPOS>ATOM
      1 C         -14.5356   -2.1553   19.2025 C.ar    1  UNL1        0.0866
      2 C         -15.9206   -2.1603   19.7786 C.ar    1  UNL1        0.0106
      3 C         -16.6806   -0.8745   19.9152 C.ar    1  UNL1        0.0377
      4 C         -16.0558    0.4164   19.4756 C.ar    1  UNL1        0.1453
      5 C         -14.6709    0.4214   18.8995 C.ar    1  UNL1        0.0377
      6 C         -13.9108   -0.8645   18.7629 C.ar    1  UNL1        0.0106
      7 O         -14.4913   -7.3042   18.5045 O.2     1  UNL1       -0.2376
      8 C         -13.7533   -6.0157   18.7169 C.2     1  UNL1        0.3788
      9 N         -14.5134   -4.7298   18.8535 N.am    1  UNL1        0.0364
     10 C         -13.7755   -3.4413   19.0659 C.2     1  UNL1        0.3688
     11 N         -12.2774   -3.4387   19.1418 N.2     1  UNL1       -0.0400
     12 C         -11.5173   -4.7246   19.0052 C.2     1  UNL1        0.1818
     13 C         -10.0192   -4.7220   19.0811 C.3     1  UNL1        0.1000
     14 C          -9.2591   -6.0079   18.9445 C.2     1  UNL1       -0.0174
     15 C          -9.9971   -7.2964   18.7321 C.2     1  UNL1       -0.0038
     16 C         -11.4951   -7.2990   18.6562 C.2     1  UNL1        0.0101
     17 C         -12.2552   -6.0131   18.7928 C.2     1  UNL1        0.1209
     18 O         -16.8160    1.7024   19.6122 O.3     1  UNL1       -0.4526
     19 C         -16.7323    2.4916   20.8850 C.ar    1  UNL1        0.1558
     20 C         -17.3698    1.9658   22.1368 C.ar    1  UNL1        0.0392
     21 C         -17.2860    2.7550   23.4096 C.ar    1  UNL1        0.0146
     22 C         -16.5647    4.0700   23.4307 C.ar    1  UNL1        0.0587
     23 CL        -16.4810    4.8592   24.7035 Cl      1  UNL1       -0.0822
     24 C         -15.9272    4.5958   22.1789 C.ar    1  UNL1        0.0259
     25 C         -16.0110    3.8066   20.9060 C.ar    1  UNL1        0.0929
     26 CL        -15.3734    4.3323   19.6542 Cl      1  UNL1       -0.0790
@<TRIPOS>BOND
     1     7     8    2
     2     8     9    1
     3     9    10    2
     4    10     1    1
     5     1     2   ar
     6     2     3   ar
     7     3     4   ar
     8     4    18    1
     9    18    19    1
    10    19    20   ar
    11    20    21   ar
    12    21    22   ar
    13    22    23    1
    14    22    24   ar
    15    24    25   ar
    16    25    26    1
    17     4     5   ar
    18     5     6   ar
    19    10    11    1
    20    11    12    2
    21    12    13    1
    22    13    14    1
    23    14    15    2
    24    15    16    1
    25    16    17    2
    26    17     8    1
    27     6     1   ar
    28    17    12    1
    29    25    19   ar
@<TRIPOS>MOLECULE
*****
 26 29 0 0 0
SMALL
GASTEIGER

@<TRIPOS>ATOM
      1 C           0.9854    1.3262   19.5846 C.ar    1  UNL1        0.0866
      2 C           0.3984    1.4120   20.9622 C.ar    1  UNL1        0.0106
      3 C          -0.6224    2.4646   21.2783 C.ar    1  UNL1        0.0377
      4 C          -1.0561    3.4315   20.2167 C.ar    1  UNL1        0.1453
      5 C          -0.4691    3.3458   18.8391 C.ar    1  UNL1        0.0377
      6 C           0.5517    2.2932   18.5230 C.ar    1  UNL1        0.0106
      7 O           4.1465   -0.9975   16.1776 O.2     1  UNL1       -0.2376
      8 C           3.5868   -0.8883   17.5649 C.2     1  UNL1        0.3788
      9 N           2.5660    0.1643   17.8811 N.am    1  UNL1        0.0364
     10 C           2.0062    0.2736   19.2684 C.2     1  UNL1        0.3688
     11 N           2.4672   -0.6698   20.3396 N.2     1  UNL1       -0.0400
     12 C           3.4880   -1.7225   20.0235 C.2     1  UNL1        0.1818
     13 C           3.9490   -2.6659   21.0946 C.3     1  UNL1        0.1000
     14 C           4.9698   -3.7185   20.7785 C.2     1  UNL1       -0.0174
     15 C           5.5296   -3.8277   19.3911 C.2     1  UNL1       -0.0038
     16 C           5.0686   -2.8843   18.3199 C.2     1  UNL1        0.0101
     17 C           4.0478   -1.8317   18.6361 C.2     1  UNL1        0.1209
     18 O          -2.0769    4.4842   20.5329 O.3     1  UNL1       -0.4526
     19 C          -2.9098    4.3721   21.7753 C.ar    1  UNL1        0.1558
     20 C          -2.4319    4.9879   23.0568 C.ar    1  UNL1        0.0392
     21 C          -3.2648    4.8758   24.2992 C.ar    1  UNL1        0.0146
     22 C          -4.5757    4.1479   24.2602 C.ar    1  UNL1        0.0587
     23 CL         -5.4086    4.0358   25.5026 Cl      1  UNL1       -0.0822
     24 C          -5.0537    3.5320   22.9787 C.ar    1  UNL1        0.0259
     25 C          -4.2207    3.6441   21.7362 C.ar    1  UNL1        0.0929
     26 CL         -4.6987    3.0283   20.4547 Cl      1  UNL1       -0.0790
@<TRIPOS>BOND
     1     7     8    2
     2     8     9    1
     3     9    10    2
     4    10     1    1
     5     1     2   ar
     6     2     3   ar
     7     3     4   ar
     8     4    18    1
     9    18    19    1
    10    19    20   ar
    11    20    21   ar
    12    21    22   ar
    13    22    23    1
    14    22    24   ar
    15    24    25   ar
    16    25    26    1
    17     4     5   ar
    18     5     6   ar
    19    10    11    1
    20    11    12    2
    21    12    13    1
    22    13    14    1
    23    14    15    2
    24    15    16    1
    25    16    17    2
    26    17     8    1
    27     6     1   ar
    28    17    12    1
    29    25    19   ar
@<TRIPOS>MOLECULE
*****
 26 29 0 0 0
SMALL
GASTEIGER

@<TRIPOS>ATOM
      1 C          -6.5876  -18.4790   20.9478 C.ar    1  UNL1        0.0866
      2 C          -7.4295  -17.6832   21.9005 C.ar    1  UNL1        0.0106
      3 C          -8.9227  -17.8241   21.8794 C.ar    1  UNL1        0.0377
      4 C          -9.5739  -18.7608   20.9055 C.ar    1  UNL1        0.1453
      5 C          -8.7320  -19.5566   19.9527 C.ar    1  UNL1        0.0377
      6 C          -7.2388  -19.4157   19.9739 C.ar    1  UNL1        0.0106
      7 O          -2.1467  -18.0346   23.6088 O.2     1  UNL1       -0.2376
      8 C          -2.8739  -18.1159   22.2994 C.2     1  UNL1        0.3788
      9 N          -4.3671  -18.2568   22.2783 N.am    1  UNL1        0.0364
     10 C          -5.0943  -18.3382   20.9689 C.2     1  UNL1        0.3688
     11 N          -4.3283  -18.2786   19.6806 N.2     1  UNL1       -0.0400
     12 C          -2.8350  -18.1378   19.7017 C.2     1  UNL1        0.1818
     13 C          -2.0690  -18.0783   18.4134 C.3     1  UNL1        0.1000
     14 C          -0.5758  -17.9374   18.4346 C.2     1  UNL1       -0.0174
     15 C           0.1514  -17.8560   19.7440 C.2     1  UNL1       -0.0038
     16 C          -0.6146  -17.9156   21.0323 C.2     1  UNL1        0.0101
     17 C          -2.1078  -18.0564   21.0111 C.2     1  UNL1        0.1209
     18 O         -11.0672  -18.9017   20.8844 O.3     1  UNL1       -0.4526
     19 C         -11.8522  -18.7574   22.1544 C.ar    1  UNL1        0.1558
     20 C         -13.0679  -17.8795   22.1890 C.ar    1  UNL1        0.0392
     21 C         -13.8529  -17.7352   23.4590 C.ar    1  UNL1        0.0146
     22 C         -13.4221  -18.4688   24.6945 C.ar    1  UNL1        0.0587
     23 CL        -14.2070  -18.3245   25.9645 Cl      1  UNL1       -0.0822
     24 C         -12.2063  -19.3467   24.6599 C.ar    1  UNL1        0.0259
     25 C         -11.4213  -19.4910   23.3898 C.ar    1  UNL1        0.0929
     26 CL        -10.2056  -20.3689   23.3551 Cl      1  UNL1       -0.0790
@<TRIPOS>BOND
     1     7     8    2
     2     8     9    1
     3     9    10    2
     4    10     1    1
     5     1     2   ar
     6     2     3   ar
     7     3     4   ar
     8     4    18    1
     9    18    19    1
    10    19    20   ar
    11    20    21   ar
    12    21    22   ar
    13    22    23    1
    14    22    24   ar
    15    24    25   ar
    16    25    26    1
    17     4     5   ar
    18     5     6   ar
    19    10    11    1
    20    11    12    2
    21    12    13    1
    22    13    14    1
    23    14    15    2
    24    15    16    1
    25    16    17    2
    26    17     8    1
    27     6     1   ar
    28    17    12    1
    29    25    19   ar
@<TRIPOS>MOLECULE
*****
 26 29 0 0 0
SMALL
GASTEIGER

@<TRIPOS>ATOM
      1 C           5.7929   -3.3593   22.0264 C.ar    1  UNL1        0.0866
      2 C           6.3306   -2.0193   21.6197 C.ar    1  UNL1        0.0106
      3 C           5.6754   -1.2542   20.5083 C.ar    1  UNL1        0.0377
      4 C           4.4826   -1.8290   19.8036 C.ar    1  UNL1        0.1453
      5 C           3.9449   -3.1689   20.2102 C.ar    1  UNL1        0.0377
      6 C           4.6000   -3.9340   21.3217 C.ar    1  UNL1        0.0106
      7 O           6.6389   -4.0843   27.1017 O.2     1  UNL1       -0.2376
      8 C           6.8710   -4.4869   25.6755 C.2     1  UNL1        0.3788
      9 N           6.2159   -3.7218   24.5641 N.am    1  UNL1        0.0364
     10 C           6.4480   -4.1245   23.1379 C.2     1  UNL1        0.3688
     11 N           7.3352   -5.2922   22.8232 N.2     1  UNL1       -0.0400
     12 C           7.9904   -6.0574   23.9346 C.2     1  UNL1        0.1818
     13 C           8.8776   -7.2252   23.6199 C.3     1  UNL1        0.1000
     14 C           9.5327   -7.9904   24.7314 C.2     1  UNL1       -0.0174
     15 C           9.3006   -7.5877   26.1576 C.2     1  UNL1       -0.0038
     16 C           8.4134   -6.4199   26.4723 C.2     1  UNL1        0.0101
     17 C           7.7583   -5.6548   25.3608 C.2     1  UNL1        0.1209
     18 O           3.8274   -1.0638   18.6921 O.3     1  UNL1       -0.4526
     19 C           2.7606   -0.0561   19.0025 C.ar    1  UNL1        0.1558
     20 C           1.4886   -0.4912   19.6678 C.ar    1  UNL1        0.0392
     21 C           0.4218    0.5165   19.9782 C.ar    1  UNL1        0.0146
     22 C           0.6270    1.9595   19.6232 C.ar    1  UNL1        0.0587
     23 CL         -0.4398    2.9672   19.9336 Cl      1  UNL1       -0.0822
     24 C           1.8990    2.3946   18.9579 C.ar    1  UNL1        0.0259
     25 C           2.9658    1.3868   18.6475 C.ar    1  UNL1        0.0929
     26 CL          4.2378    1.8219   17.9821 Cl      1  UNL1       -0.0790
@<TRIPOS>BOND
     1     7     8    2
     2     8     9    1
     3     9    10    2
     4    10     1    1
     5     1     2   ar
     6     2     3   ar
     7     3     4   ar
     8     4    18    1
     9    18    19    1
    10    19    20   ar
    11    20    21   ar
    12    21    22   ar
    13    22    23    1
    14    22    24   ar
    15    24    25   ar
    16    25    26    1
    17     4     5   ar
    18     5     6   ar
    19    10    11    1
    20    11    12    2
    21    12    13    1
    22    13    14    1
    23    14    15    2
    24    15    16    1
    25    16    17    2
    26    17     8    1
    27     6     1   ar
    28    17    12    1
    29    25    19   ar
@<TRIPOS>MOLECULE
*****
 26 29 0 0 0
SMALL
GASTEIGER

@<TRIPOS>ATOM
      1 C          -0.2427    2.5031   20.0513 C.ar    1  UNL1        0.0866
      2 C           0.3664    1.9242   21.2938 C.ar    1  UNL1        0.0106
      3 C           1.7490    1.3440   21.2511 C.ar    1  UNL1        0.0377
      4 C           2.5224    1.3427   19.9659 C.ar    1  UNL1        0.1453
      5 C           1.9134    1.9216   18.7234 C.ar    1  UNL1        0.0377
      6 C           0.5308    2.5018   18.7661 C.ar    1  UNL1        0.0106
      7 O          -4.0584    5.2102   17.7904 O.2     1  UNL1       -0.2376
      8 C          -3.5331    4.4369   18.9635 C.2     1  UNL1        0.3788
      9 N          -2.1506    3.8567   18.9209 N.am    1  UNL1        0.0364
     10 C          -1.6253    3.0833   20.0939 C.2     1  UNL1        0.3688
     11 N          -2.4826    2.8902   21.3095 N.2     1  UNL1       -0.0400
     12 C          -3.8652    3.4704   21.3521 C.2     1  UNL1        0.1818
     13 C          -4.7225    3.2772   22.5678 C.3     1  UNL1        0.1000
     14 C          -6.1050    3.8575   22.6103 C.2     1  UNL1       -0.0174
     15 C          -6.6303    4.6308   21.4373 C.2     1  UNL1       -0.0038
     16 C          -5.7730    4.8240   20.2217 C.2     1  UNL1        0.0101
     17 C          -4.3905    4.2438   20.1791 C.2     1  UNL1        0.1209
     18 O           3.9051    0.7625   19.9233 O.3     1  UNL1       -0.4526
     19 C           4.0990   -0.6911   19.6082 C.ar    1  UNL1        0.1558
     20 C           3.7179   -1.7344   20.6163 C.ar    1  UNL1        0.0392
     21 C           3.9118   -3.1880   20.3011 C.ar    1  UNL1        0.0146
     22 C           4.4870   -3.5984   18.9779 C.ar    1  UNL1        0.0587
     23 CL          4.6810   -5.0520   18.6628 Cl      1  UNL1       -0.0822
     24 C           4.8682   -2.5551   17.9699 C.ar    1  UNL1        0.0259
     25 C           4.6742   -1.1014   18.2850 C.ar    1  UNL1        0.0929
     26 CL          5.0554   -0.0581   17.2770 Cl      1  UNL1       -0.0790
@<TRIPOS>BOND
     1     7     8    2
     2     8     9    1
     3     9    10    2
     4    10     1    1
     5     1     2   ar
     6     2     3   ar
     7     3     4   ar
     8     4    18    1
     9    18    19    1
    10    19    20   ar
    11    20    21   ar
    12    21    22   ar
    13    22    23    1
    14    22    24   ar
    15    24    25   ar
    16    25    26    1
    17     4     5   ar
    18     5     6   ar
    19    10    11    1
    20    11    12    2
    21    12    13    1
    22    13    14    1
    23    14    15    2
    24    15    16    1
    25    16    17    2
    26    17     8    1
    27     6     1   ar
    28    17    12    1
    29    25    19   ar
@<TRIPOS>MOLECULE
*****
 26 29 0 0 0
SMALL
GASTEIGER

@<TRIPOS>ATOM
      1 C           6.6650   -3.8268   25.2045 C.ar    1  UNL1        0.0866
      2 C           7.5736   -4.8705   24.6257 C.ar    1  UNL1        0.0106
      3 C           7.6285   -5.0771   23.1410 C.ar    1  UNL1        0.0377
      4 C           6.7748   -4.2401   22.2352 C.ar    1  UNL1        0.1453
      5 C           5.8662   -3.1964   22.8140 C.ar    1  UNL1        0.0377
      6 C           5.8113   -2.9897   24.2987 C.ar    1  UNL1        0.0106
      7 O           5.9631   -0.6917   29.2885 O.2     1  UNL1       -0.2376
      8 C           6.2591   -2.0525   28.7312 C.2     1  UNL1        0.3788
      9 N           6.3141   -2.2593   27.2466 N.am    1  UNL1        0.0364
     10 C           6.6101   -3.6201   26.6893 C.2     1  UNL1        0.3688
     11 N           6.8512   -4.7741   27.6166 N.2     1  UNL1       -0.0400
     12 C           6.7963   -4.5674   29.1013 C.2     1  UNL1        0.1818
     13 C           7.0374   -5.7215   30.0286 C.3     1  UNL1        0.1000
     14 C           6.9825   -5.5147   31.5133 C.2     1  UNL1       -0.0174
     15 C           6.6865   -4.1539   32.0706 C.2     1  UNL1       -0.0038
     16 C           6.4453   -2.9999   31.1433 C.2     1  UNL1        0.0101
     17 C           6.5003   -3.2066   29.6586 C.2     1  UNL1        0.1209
     18 O           6.8297   -4.4468   20.7505 O.3     1  UNL1       -0.4526
     19 C           6.1426   -3.4796   19.8327 C.ar    1  UNL1        0.1558
     20 C           6.9038   -2.3229   19.2560 C.ar    1  UNL1        0.0392
     21 C           6.2167   -1.3557   18.3382 C.ar    1  UNL1        0.0146
     22 C           4.7683   -1.5452   17.9970 C.ar    1  UNL1        0.0587
     23 CL          4.0812   -0.5780   17.0792 Cl      1  UNL1       -0.0822
     24 C           4.0071   -2.7019   18.5737 C.ar    1  UNL1        0.0259
     25 C           4.6943   -3.6691   19.4916 C.ar    1  UNL1        0.0929
     26 CL          3.9331   -4.8259   20.0682 Cl      1  UNL1       -0.0790
@<TRIPOS>BOND
     1     7     8    2
     2     8     9    1
     3     9    10    2
     4    10     1    1
     5     1     2   ar
     6     2     3   ar
     7     3     4   ar
     8     4    18    1
     9    18    19    1
    10    19    20   ar
    11    20    21   ar
    12    21    22   ar
    13    22    23    1
    14    22    24   ar
    15    24    25   ar
    16    25    26    1
    17     4     5   ar
    18     5     6   ar
    19    10    11    1
    20    11    12    2
    21    12    13    1
    22    13    14    1
    23    14    15    2
    24    15    16    1
    25    16    17    2
    26    17     8    1
    27     6     1   ar
    28    17    12    1
    29    25    19   ar
@<TRIPOS>MOLECULE
*****
 26 29 0 0 0
SMALL
GASTEIGER

@<TRIPOS>ATOM
      1 C           0.1739    2.2692   20.7791 C.ar    1  UNL1        0.0866
      2 C           0.3055    2.0284   19.3044 C.ar    1  UNL1        0.0106
      3 C           1.5828    1.4746   18.7461 C.ar    1  UNL1        0.0377
      4 C           2.7284    1.1616   19.6624 C.ar    1  UNL1        0.1453
      5 C           2.5968    1.4024   21.1370 C.ar    1  UNL1        0.0377
      6 C           1.3195    1.9562   21.6954 C.ar    1  UNL1        0.0106
      7 O          -2.4673    4.3961   24.7162 O.2     1  UNL1       -0.2376
      8 C          -2.4240    3.8864   23.3061 C.2     1  UNL1        0.3788
      9 N          -1.1468    3.3326   22.7476 N.am    1  UNL1        0.0364
     10 C          -1.1035    2.8230   21.3375 C.2     1  UNL1        0.3688
     11 N          -2.3374    2.8671   20.4859 N.2     1  UNL1       -0.0400
     12 C          -3.6148    3.4210   21.0443 C.2     1  UNL1        0.1818
     13 C          -4.8487    3.4651   20.1926 C.3     1  UNL1        0.1000
     14 C          -6.1260    4.0189   20.7511 C.2     1  UNL1       -0.0174
     15 C          -6.1693    4.5285   22.1612 C.2     1  UNL1       -0.0038
     16 C          -4.9353    4.4844   23.0129 C.2     1  UNL1        0.0101
     17 C          -3.6581    3.9306   22.4544 C.2     1  UNL1        0.1209
     18 O           4.0058    0.6078   19.1040 O.3     1  UNL1       -0.4526
     19 C           4.1958   -0.8761   18.9955 C.ar    1  UNL1        0.1558
     20 C           3.2017   -1.8074   19.6237 C.ar    1  UNL1        0.0392
     21 C           3.3917   -3.2913   19.5152 C.ar    1  UNL1        0.0146
     22 C           4.5757   -3.8441   18.7786 C.ar    1  UNL1        0.0587
     23 CL          4.7657   -5.3280   18.6702 Cl      1  UNL1       -0.0822
     24 C           5.5698   -2.9128   18.1505 C.ar    1  UNL1        0.0259
     25 C           5.3798   -1.4288   18.2589 C.ar    1  UNL1        0.0929
     26 CL          6.3738   -0.4975   17.6308 Cl      1  UNL1       -0.0790
@<TRIPOS>BOND
     1     7     8    2
     2     8     9    1
     3     9    10    2
     4    10     1    1
     5     1     2   ar
     6     2     3   ar
     7     3     4   ar
     8     4    18    1
     9    18    19    1
    10    19    20   ar
    11    20    21   ar
    12    21    22   ar
    13    22    23    1
    14    22    24   ar
    15    24    25   ar
    16    25    26    1
    17     4     5   ar
    18     5     6   ar
    19    10    11    1
    20    11    12    2
    21    12    13    1
    22    13    14    1
    23    14    15    2
    24    15    16    1
    25    16    17    2
    26    17     8    1
    27     6     1   ar
    28    17    12    1
    29    25    19   ar
@<TRIPOS>MOLECULE
*****
 26 29 0 0 0
SMALL
GASTEIGER

@<TRIPOS>ATOM
      1 C           6.2945   -3.4419   21.6172 C.ar    1  UNL1        0.0866
      2 C           7.5235   -4.1297   21.1011 C.ar    1  UNL1        0.0106
      3 C           8.3495   -4.9793   22.0207 C.ar    1  UNL1        0.0377
      4 C           7.9466   -5.1411   23.4565 C.ar    1  UNL1        0.1453
      5 C           6.7177   -4.4532   23.9727 C.ar    1  UNL1        0.0377
      6 C           5.8916   -3.6036   23.0530 C.ar    1  UNL1        0.0106
      7 O           5.7325   -0.9283   17.1043 O.2     1  UNL1       -0.2376
      8 C           5.1874   -1.3354   18.4412 C.2     1  UNL1        0.3788
      9 N           6.0135   -2.1851   19.3608 N.am    1  UNL1        0.0364
     10 C           5.4684   -2.5922   20.6976 C.2     1  UNL1        0.3688
     11 N           4.0972   -2.1498   21.1148 N.2     1  UNL1       -0.0400
     12 C           3.2711   -1.3001   20.1951 C.2     1  UNL1        0.1818
     13 C           1.8999   -0.8577   20.6123 C.3     1  UNL1        0.1000
     14 C           1.0738   -0.0081   19.6927 C.2     1  UNL1       -0.0174
     15 C           1.6190    0.3991   18.3559 C.2     1  UNL1       -0.0038
     16 C           2.9901   -0.0434   17.9387 C.2     1  UNL1        0.0101
     17 C           3.8162   -0.8930   18.8583 C.2     1  UNL1        0.1209
     18 O           8.7728   -5.9907   24.3761 O.3     1  UNL1       -0.4526
     19 C           8.7124   -5.7692   25.8584 C.ar    1  UNL1        0.1558
     20 C           9.4520   -4.6194   26.4757 C.ar    1  UNL1        0.0392
     21 C           9.3916   -4.3979   27.9580 C.ar    1  UNL1        0.0146
     22 C           8.5915   -5.3261   28.8231 C.ar    1  UNL1        0.0587
     23 CL          8.5311   -5.1046   30.3054 Cl      1  UNL1       -0.0822
     24 C           7.8518   -6.4758   28.2058 C.ar    1  UNL1        0.0259
     25 C           7.9123   -6.6973   26.7234 C.ar    1  UNL1        0.0929
     26 CL          7.1726   -7.8471   26.1062 Cl      1  UNL1       -0.0790
@<TRIPOS>BOND
     1     7     8    2
     2     8     9    1
     3     9    10    2
     4    10     1    1
     5     1     2   ar
     6     2     3   ar
     7     3     4   ar
     8     4    18    1
     9    18    19    1
    10    19    20   ar
    11    20    21   ar
    12    21    22   ar
    13    22    23    1
    14    22    24   ar
    15    24    25   ar
    16    25    26    1
    17     4     5   ar
    18     5     6   ar
    19    10    11    1
    20    11    12    2
    21    12    13    1
    22    13    14    1
    23    14    15    2
    24    15    16    1
    25    16    17    2
    26    17     8    1
    27     6     1   ar
    28    17    12    1
    29    25    19   ar
