@<TRIPOS>MOLECULE
*****
 33 36 0 0 0
SMALL
GASTEIGER

@<TRIPOS>ATOM
      1 N           2.6263    2.5992   34.0949 N.ar    1  UNL1       -0.1943
      2 C           1.5482    3.5435   33.6523 C.ar    1  UNL1        0.1013
      3 C           1.1465    3.1673   32.2570 C.ar    1  UNL1        0.0236
      4 C           1.9763    1.9904   31.8371 C.ar    1  UNL1        0.0374
      5 C           2.0173    1.1930   30.5673 C.ar    1  UNL1        0.0058
      6 C           2.9729    0.0446   30.4333 C.ar    1  UNL1        0.0344
      7 C           3.8874   -0.3065   31.5691 C.ar    1  UNL1        0.1334
      8 N           3.8465    0.4909   32.8391 N.ar    1  UNL1       -0.2120
      9 C           2.8909    1.6393   32.9730 C.ar    1  UNL1        0.1648
     10 N           4.8431   -1.4550   31.4351 N.pl3   1  UNL1       -0.2904
     11 C           5.0759   -2.3762   32.5957 C.3     1  UNL1        0.1092
     12 C           6.0315   -3.5246   32.4617 C.3     1  UNL1        0.0904
     13 N           6.7543   -3.7518   31.1671 N.3     1  UNL1       -0.2946
     14 C           6.5214   -2.8305   30.0065 C.3     1  UNL1        0.0904
     15 C           5.5658   -1.6821   30.1405 C.3     1  UNL1        0.1092
     16 H           6.5070   -4.6900   30.8525 H       1  UNL1        0.1233
     17 C           1.1027    1.5441   29.4314 C.ar    1  UNL1        0.0002
     18 C           1.3998    2.7358   28.5701 C.ar    1  UNL1       -0.0001
     19 C           0.4852    3.0869   27.4342 C.ar    1  UNL1        0.0039
     20 C          -0.7265    2.2463   27.1595 C.ar    1  UNL1        0.0714
     21 C          -1.0235    1.0547   28.0208 C.ar    1  UNL1        0.0039
     22 C          -0.1089    0.7036   29.1567 C.ar    1  UNL1       -0.0001
     23 C          -1.6410    2.5974   26.0237 C.3     1  UNL1        0.4186
     24 F          -2.5556    2.9485   24.8878 F       1  UNL1       -0.1659
     25 F          -0.7365    1.8729   25.0714 F       1  UNL1       -0.1659
     26 F          -2.5456    3.3220   26.9759 F       1  UNL1       -0.1659
     27 S           3.3184    2.6124   35.4257 S.O2    1  UNL1        0.0675
     28 O           2.0459    2.1798   36.0917 O.2     1  UNL1       -0.1521
     29 O           4.5909    3.0450   34.7596 O.2     1  UNL1       -0.1521
     30 C           4.0104    2.6256   36.7564 C.3     1  UNL1        0.1751
     31 C           3.7233    1.2130   38.9179 C.3     1  UNL1        0.0019
     32 C           4.2166    1.3436   37.5073 C.3     1  UNL1        0.0258
     33 C           4.9160    0.1922   36.8478 C.3     1  UNL1        0.0019
@<TRIPOS>BOND
     1    31    32    1
     2    32    33    1
     3    32    30    1
     4    30    27    1
     5    27    28    2
     6    27    29    2
     7    27     1    1
     8     1     2   ar
     9     2     3   ar
    10     3     4   ar
    11     4     5   ar
    12     5    17    1
    13    17    18   ar
    14    18    19   ar
    15    19    20   ar
    16    20    23    1
    17    23    24    1
    18    23    25    1
    19    23    26    1
    20    20    21   ar
    21    21    22   ar
    22     5     6   ar
    23     6     7   ar
    24     7    10    1
    25    10    11    1
    26    11    12    1
    27    12    13    1
    28    13    14    1
    29    14    15    1
    30     7     8   ar
    31     8     9   ar
    32     9     1   ar
    33     9     4   ar
    34    22    17   ar
    35    15    10    1
    36    13    16    1
@<TRIPOS>MOLECULE
*****
 33 36 0 0 0
SMALL
GASTEIGER

@<TRIPOS>ATOM
      1 N           2.1214    1.0836   31.4557 N.ar    1  UNL1       -0.1943
      2 C           1.4408    2.1276   32.2904 C.ar    1  UNL1        0.1013
      3 C           2.1728    2.2270   33.5959 C.ar    1  UNL1        0.0236
      4 C           3.3058    1.2444   33.5680 C.ar    1  UNL1        0.0374
      5 C           4.3623    0.9018   34.5762 C.ar    1  UNL1        0.0058
      6 C           5.3870   -0.1475   34.2616 C.ar    1  UNL1        0.0344
      7 C           5.3552   -0.8541   32.9389 C.ar    1  UNL1        0.1334
      8 N           4.2987   -0.5115   31.9307 N.ar    1  UNL1       -0.2120
      9 C           3.2740    0.5377   32.2453 C.ar    1  UNL1        0.1648
     10 N           6.3800   -1.9034   32.6243 N.pl3   1  UNL1       -0.2904
     11 C           5.9489   -3.2345   32.0837 C.3     1  UNL1        0.1092
     12 C           6.9736   -4.2838   31.7691 C.3     1  UNL1        0.0904
     13 N           8.4295   -4.0019   31.9951 N.3     1  UNL1       -0.2946
     14 C           8.8606   -2.6708   32.5357 C.3     1  UNL1        0.0904
     15 C           7.8359   -1.6216   32.8503 C.3     1  UNL1        0.1092
     16 H           8.8953   -4.1191   31.0953 H       1  UNL1        0.1233
     17 C           4.3941    1.6084   35.8989 C.ar    1  UNL1        0.0002
     18 C           4.8081    3.0485   35.9702 C.ar    1  UNL1       -0.0001
     19 C           4.8400    3.7551   37.2928 C.ar    1  UNL1        0.0039
     20 C           4.4578    3.0218   38.5444 C.ar    1  UNL1        0.0714
     21 C           4.0438    1.5818   38.4731 C.ar    1  UNL1        0.0039
     22 C           4.0119    0.8751   37.1504 C.ar    1  UNL1       -0.0001
     23 C           4.4896    3.7284   39.8670 C.3     1  UNL1        0.4186
     24 F           4.5214    4.4351   41.1898 F       1  UNL1       -0.1659
     25 F           3.4406    4.6845   39.3816 F       1  UNL1       -0.1659
     26 F           5.5386    2.7724   40.3526 F       1  UNL1       -0.1659
     27 S           1.7198    0.6599   30.0739 S.O2    1  UNL1        0.0675
     28 O           1.6369    2.0983   29.6569 O.2     1  UNL1       -0.1521
     29 O           1.8027   -0.7786   30.4910 O.2     1  UNL1       -0.1521
     30 C           1.3182    0.2361   28.6922 C.3     1  UNL1        0.1751
     31 C          -1.2118   -0.2890   28.9626 C.3     1  UNL1        0.0019
     32 C          -0.1004    0.4098   28.2370 C.3     1  UNL1        0.0258
     33 C          -0.4077    1.2823   27.0562 C.3     1  UNL1        0.0019
@<TRIPOS>BOND
     1    31    32    1
     2    32    33    1
     3    32    30    1
     4    30    27    1
     5    27    28    2
     6    27    29    2
     7    27     1    1
     8     1     2   ar
     9     2     3   ar
    10     3     4   ar
    11     4     5   ar
    12     5    17    1
    13    17    18   ar
    14    18    19   ar
    15    19    20   ar
    16    20    23    1
    17    23    24    1
    18    23    25    1
    19    23    26    1
    20    20    21   ar
    21    21    22   ar
    22     5     6   ar
    23     6     7   ar
    24     7    10    1
    25    10    11    1
    26    11    12    1
    27    12    13    1
    28    13    14    1
    29    14    15    1
    30     7     8   ar
    31     8     9   ar
    32     9     1   ar
    33     9     4   ar
    34    22    17   ar
    35    15    10    1
    36    13    16    1
@<TRIPOS>MOLECULE
*****
 33 36 0 0 0
SMALL
GASTEIGER

@<TRIPOS>ATOM
      1 N          -1.8309    3.5946   22.2977 N.ar    1  UNL1       -0.1943
      2 C          -0.5165    2.9174   22.5499 C.ar    1  UNL1        0.1013
      3 C          -0.3729    2.7206   24.0300 C.ar    1  UNL1        0.0236
      4 C          -1.5986    3.2762   24.6926 C.ar    1  UNL1        0.0374
      5 C          -2.0106    3.3600   26.1324 C.ar    1  UNL1        0.0058
      6 C          -3.3238    3.9840   26.5016 C.ar    1  UNL1        0.0344
      7 C          -4.2248    4.5241   25.4310 C.ar    1  UNL1        0.1334
      8 N          -3.8128    4.4403   23.9911 N.ar    1  UNL1       -0.2120
      9 C          -2.4997    3.8163   23.6219 C.ar    1  UNL1        0.1648
     10 N          -5.5380    5.1482   25.8003 N.pl3   1  UNL1       -0.2904
     11 C          -5.7552    5.6725   27.1887 C.3     1  UNL1        0.1092
     12 C          -7.0683    6.2965   27.5579 C.3     1  UNL1        0.0904
     13 N          -8.1642    6.3962   26.5386 N.3     1  UNL1       -0.2946
     14 C          -7.9471    5.8719   25.1501 C.3     1  UNL1        0.0904
     15 C          -6.6339    5.2479   24.7809 C.3     1  UNL1        0.1092
     16 H          -8.3922    7.3862   26.4472 H       1  UNL1        0.1233
     17 C          -1.1096    2.8199   27.2031 C.ar    1  UNL1        0.0002
     18 C          -0.0973    3.7155   27.8538 C.ar    1  UNL1       -0.0001
     19 C           0.8037    3.1754   28.9244 C.ar    1  UNL1        0.0039
     20 C           0.6926    1.7396   29.3444 C.ar    1  UNL1        0.0714
     21 C          -0.3196    0.8441   28.6937 C.ar    1  UNL1        0.0039
     22 C          -1.2207    1.3841   27.6230 C.ar    1  UNL1       -0.0001
     23 C           1.5937    1.1995   30.4150 C.3     1  UNL1        0.4186
     24 F           2.4948    0.6594   31.4857 F       1  UNL1       -0.1659
     25 F           1.4020   -0.1874   29.8767 F       1  UNL1       -0.1659
     26 F           1.7854    2.5864   30.9534 F       1  UNL1       -0.1659
     27 S          -2.3801    3.9820   20.9567 S.O2    1  UNL1        0.0675
     28 O          -2.9833    2.6166   20.8093 O.2     1  UNL1       -0.1521
     29 O          -1.7769    5.3474   21.1041 O.2     1  UNL1       -0.1521
     30 C          -2.9293    4.3694   19.6157 C.3     1  UNL1        0.1751
     31 C          -5.2722    5.2068   20.3639 C.3     1  UNL1        0.0019
     32 C          -4.4127    4.4384   19.4042 C.3     1  UNL1        0.0258
     33 C          -5.0367    3.7391   18.2330 C.3     1  UNL1        0.0019
@<TRIPOS>BOND
     1    31    32    1
     2    32    33    1
     3    32    30    1
     4    30    27    1
     5    27    28    2
     6    27    29    2
     7    27     1    1
     8     1     2   ar
     9     2     3   ar
    10     3     4   ar
    11     4     5   ar
    12     5    17    1
    13    17    18   ar
    14    18    19   ar
    15    19    20   ar
    16    20    23    1
    17    23    24    1
    18    23    25    1
    19    23    26    1
    20    20    21   ar
    21    21    22   ar
    22     5     6   ar
    23     6     7   ar
    24     7    10    1
    25    10    11    1
    26    11    12    1
    27    12    13    1
    28    13    14    1
    29    14    15    1
    30     7     8   ar
    31     8     9   ar
    32     9     1   ar
    33     9     4   ar
    34    22    17   ar
    35    15    10    1
    36    13    16    1
@<TRIPOS>MOLECULE
*****
 33 36 0 0 0
SMALL
GASTEIGER

@<TRIPOS>ATOM
      1 N          -2.1078    4.3099   23.3965 N.ar    1  UNL1       -0.1943
      2 C          -1.9080    4.3793   21.9115 C.ar    1  UNL1        0.1013
      3 C          -0.8869    3.3479   21.5324 C.ar    1  UNL1        0.0236
      4 C          -0.4557    2.6411   22.7832 C.ar    1  UNL1        0.0374
      5 C           0.5266    1.5329   23.0219 C.ar    1  UNL1        0.0058
      6 C           0.7543    1.0192   24.4127 C.ar    1  UNL1        0.0344
      7 C          -0.0002    1.6137   25.5647 C.ar    1  UNL1        0.1334
      8 N          -0.9825    2.7219   25.3260 N.ar    1  UNL1       -0.2120
      9 C          -1.2102    3.2356   23.9352 C.ar    1  UNL1        0.1648
     10 N           0.2275    1.0999   26.9555 N.pl3   1  UNL1       -0.2904
     11 C          -0.9170    1.0181   27.9216 C.3     1  UNL1        0.1092
     12 C          -0.6893    0.5044   29.3124 C.3     1  UNL1        0.0904
     13 N           0.6830    0.0725   29.7370 N.3     1  UNL1       -0.2946
     14 C           1.8275    0.1543   28.7710 C.3     1  UNL1        0.0904
     15 C           1.5998    0.6680   27.3802 C.3     1  UNL1        0.1092
     16 H           0.6089   -0.9035   30.0238 H       1  UNL1        0.1233
     17 C           1.2812    0.9383   21.8699 C.ar    1  UNL1        0.0002
     18 C           0.5660    0.0830   20.8663 C.ar    1  UNL1       -0.0001
     19 C           1.3205   -0.5115   19.7143 C.ar    1  UNL1        0.0039
     20 C           2.7903   -0.2508   19.5658 C.ar    1  UNL1        0.0714
     21 C           3.5054    0.6045   20.5693 C.ar    1  UNL1        0.0039
     22 C           2.7509    1.1991   21.7214 C.ar    1  UNL1       -0.0001
     23 C           3.5448   -0.8453   18.4138 C.3     1  UNL1        0.4186
     24 F           4.2993   -1.4398   17.2617 F       1  UNL1       -0.1659
     25 F           4.0584   -1.9321   19.3111 F       1  UNL1       -0.1659
     26 F           3.0312    0.2415   17.5165 F       1  UNL1       -0.1659
     27 S          -3.0413    5.1646   24.2014 S.O2    1  UNL1        0.0675
     28 O          -4.2152    4.4630   23.5852 O.2     1  UNL1       -0.1521
     29 O          -1.8675    5.8663   24.8176 O.2     1  UNL1       -0.1521
     30 C          -3.9748    6.0194   25.0064 C.3     1  UNL1        0.1751
     31 C          -4.3065    4.3468   26.9665 C.3     1  UNL1        0.0019
     32 C          -4.8583    5.3933   26.0443 C.3     1  UNL1        0.0258
     33 C          -6.2936    5.8136   26.1602 C.3     1  UNL1        0.0019
@<TRIPOS>BOND
     1    31    32    1
     2    32    33    1
     3    32    30    1
     4    30    27    1
     5    27    28    2
     6    27    29    2
     7    27     1    1
     8     1     2   ar
     9     2     3   ar
    10     3     4   ar
    11     4     5   ar
    12     5    17    1
    13    17    18   ar
    14    18    19   ar
    15    19    20   ar
    16    20    23    1
    17    23    24    1
    18    23    25    1
    19    23    26    1
    20    20    21   ar
    21    21    22   ar
    22     5     6   ar
    23     6     7   ar
    24     7    10    1
    25    10    11    1
    26    11    12    1
    27    12    13    1
    28    13    14    1
    29    14    15    1
    30     7     8   ar
    31     8     9   ar
    32     9     1   ar
    33     9     4   ar
    34    22    17   ar
    35    15    10    1
    36    13    16    1
@<TRIPOS>MOLECULE
*****
 33 36 0 0 0
SMALL
GASTEIGER

@<TRIPOS>ATOM
      1 N           7.0085   -3.8823   25.9494 N.ar    1  UNL1       -0.1943
      2 C           7.5068   -4.3181   24.6034 C.ar    1  UNL1        0.1013
      3 C           6.7054   -3.6006   23.5579 C.ar    1  UNL1        0.0236
      4 C           5.7119   -2.7213   24.2578 C.ar    1  UNL1        0.0374
      5 C           4.6608   -1.7847   23.7402 C.ar    1  UNL1        0.0058
      6 C           3.7971   -1.0221   24.7006 C.ar    1  UNL1        0.0344
      7 C           3.9844   -1.1963   26.1786 C.ar    1  UNL1        0.1334
      8 N           5.0355   -2.1329   26.6963 N.ar    1  UNL1       -0.2120
      9 C           5.8992   -2.8955   25.7358 C.ar    1  UNL1        0.1648
     10 N           3.1206   -0.4337   27.1391 N.pl3   1  UNL1       -0.2904
     11 C           2.9652   -0.9136   28.5517 C.3     1  UNL1        0.1092
     12 C           2.1014   -0.1511   29.5121 C.3     1  UNL1        0.0904
     13 N           1.3931    1.0914   29.0599 N.3     1  UNL1       -0.2946
     14 C           1.5485    1.5714   27.6473 C.3     1  UNL1        0.0904
     15 C           2.4122    0.8088   26.6869 C.3     1  UNL1        0.1092
     16 H           1.7114    1.8485   29.6648 H       1  UNL1        0.1233
     17 C           4.4735   -1.6105   22.2621 C.ar    1  UNL1        0.0002
     18 C           3.9077   -2.7309   21.4407 C.ar    1  UNL1       -0.0001
     19 C           3.7204   -2.5568   19.9627 C.ar    1  UNL1        0.0039
     20 C           4.0988   -1.2623   19.3060 C.ar    1  UNL1        0.0714
     21 C           4.6646   -0.1420   20.1275 C.ar    1  UNL1        0.0039
     22 C           4.8519   -0.3161   21.6055 C.ar    1  UNL1       -0.0001
     23 C           3.9115   -1.0882   17.8281 C.3     1  UNL1        0.4186
     24 F           3.7242   -0.9141   16.3500 F       1  UNL1       -0.1659
     25 F           4.7241   -2.3243   17.5794 F       1  UNL1       -0.1659
     26 F           3.0988    0.1479   18.0766 F       1  UNL1       -0.1659
     27 S           7.5283   -4.3511   27.2761 S.O2    1  UNL1        0.0675
     28 O           8.5354   -3.2395   27.2743 O.2     1  UNL1       -0.1521
     29 O           6.5211   -5.4626   27.2780 O.2     1  UNL1       -0.1521
     30 C           8.0480   -4.8198   28.6028 C.3     1  UNL1        0.1751
     31 C           6.5369   -3.3388   30.1106 C.3     1  UNL1        0.0019
     32 C           7.2140   -4.6493   29.8378 C.3     1  UNL1        0.0258
     33 C           7.0569   -5.7892   30.8001 C.3     1  UNL1        0.0019
@<TRIPOS>BOND
     1    31    32    1
     2    32    33    1
     3    32    30    1
     4    30    27    1
     5    27    28    2
     6    27    29    2
     7    27     1    1
     8     1     2   ar
     9     2     3   ar
    10     3     4   ar
    11     4     5   ar
    12     5    17    1
    13    17    18   ar
    14    18    19   ar
    15    19    20   ar
    16    20    23    1
    17    23    24    1
    18    23    25    1
    19    23    26    1
    20    20    21   ar
    21    21    22   ar
    22     5     6   ar
    23     6     7   ar
    24     7    10    1
    25    10    11    1
    26    11    12    1
    27    12    13    1
    28    13    14    1
    29    14    15    1
    30     7     8   ar
    31     8     9   ar
    32     9     1   ar
    33     9     4   ar
    34    22    17   ar
    35    15    10    1
    36    13    16    1
@<TRIPOS>MOLECULE
*****
 33 36 0 0 0
SMALL
GASTEIGER

@<TRIPOS>ATOM
      1 N           7.8619   -4.4605   29.0024 N.ar    1  UNL1       -0.1943
      2 C           8.3317   -4.6496   30.4143 C.ar    1  UNL1        0.1013
      3 C           7.5793   -3.6882   31.2859 C.ar    1  UNL1        0.0236
      4 C           6.6444   -2.9050   30.4126 C.ar    1  UNL1        0.0374
      5 C           5.6567   -1.8188   30.7202 C.ar    1  UNL1        0.0058
      6 C           4.8437   -1.2099   29.6164 C.ar    1  UNL1        0.0344
      7 C           5.0183   -1.6872   28.2052 C.ar    1  UNL1        0.1334
      8 N           6.0061   -2.7734   27.8976 N.ar    1  UNL1       -0.2120
      9 C           6.8191   -3.3823   29.0013 C.ar    1  UNL1        0.1648
     10 N           4.2052   -1.0783   27.1015 N.pl3   1  UNL1       -0.2904
     11 C           3.2198    0.0101   27.4085 C.3     1  UNL1        0.1092
     12 C           2.4068    0.6190   26.3048 C.3     1  UNL1        0.0904
     13 N           2.5791    0.1395   24.8940 N.3     1  UNL1       -0.2946
     14 C           3.5646   -0.9489   24.5869 C.3     1  UNL1        0.0904
     15 C           4.3776   -1.5578   25.6907 C.3     1  UNL1        0.1092
     16 H           2.8533    0.9501   24.3389 H       1  UNL1        0.1233
     17 C           5.4820   -1.3415   32.1314 C.ar    1  UNL1        0.0002
     18 C           4.4874   -2.0119   33.0322 C.ar    1  UNL1       -0.0001
     19 C           4.3127   -1.5346   34.4434 C.ar    1  UNL1        0.0039
     20 C           5.1326   -0.3869   34.9540 C.ar    1  UNL1        0.0714
     21 C           6.1272    0.2834   34.0532 C.ar    1  UNL1        0.0039
     22 C           6.3020   -0.1938   32.6419 C.ar    1  UNL1       -0.0001
     23 C           4.9579    0.0904   36.3652 C.3     1  UNL1        0.4186
     24 F           4.7832    0.5676   37.7765 F       1  UNL1       -0.1659
     25 F           3.7523    0.8798   35.9490 F       1  UNL1       -0.1659
     26 F           6.1635   -0.6991   36.7815 F       1  UNL1       -0.1659
     27 S           8.3493   -5.2169   27.8022 S.O2    1  UNL1        0.0675
     28 O           9.2377   -4.0648   27.4369 O.2     1  UNL1       -0.1521
     29 O           7.4609   -6.3690   28.1675 O.2     1  UNL1       -0.1521
     30 C           8.8367   -5.9732   26.6020 C.3     1  UNL1        0.1751
     31 C           8.0902   -7.2366   24.4581 C.3     1  UNL1        0.0019
     32 C           7.9885   -6.0478   25.3672 C.3     1  UNL1        0.0258
     33 C           7.0384   -4.9336   25.0414 C.3     1  UNL1        0.0019
@<TRIPOS>BOND
     1    31    32    1
     2    32    33    1
     3    32    30    1
     4    30    27    1
     5    27    28    2
     6    27    29    2
     7    27     1    1
     8     1     2   ar
     9     2     3   ar
    10     3     4   ar
    11     4     5   ar
    12     5    17    1
    13    17    18   ar
    14    18    19   ar
    15    19    20   ar
    16    20    23    1
    17    23    24    1
    18    23    25    1
    19    23    26    1
    20    20    21   ar
    21    21    22   ar
    22     5     6   ar
    23     6     7   ar
    24     7    10    1
    25    10    11    1
    26    11    12    1
    27    12    13    1
    28    13    14    1
    29    14    15    1
    30     7     8   ar
    31     8     9   ar
    32     9     1   ar
    33     9     4   ar
    34    22    17   ar
    35    15    10    1
    36    13    16    1
@<TRIPOS>MOLECULE
*****
 33 36 0 0 0
SMALL
GASTEIGER

@<TRIPOS>ATOM
      1 N           7.2761   -5.5132   28.4150 N.ar    1  UNL1       -0.1943
      2 C           7.5463   -5.8971   29.8396 C.ar    1  UNL1        0.1013
      3 C           7.1284   -4.7532   30.7153 C.ar    1  UNL1        0.0236
      4 C           6.5999   -3.6623   29.8319 C.ar    1  UNL1        0.0374
      5 C           6.0473   -2.3018   30.1383 C.ar    1  UNL1        0.0058
      6 C           5.5860   -1.4111   29.0230 C.ar    1  UNL1        0.0344
      7 C           5.6773   -1.8807   27.6015 C.ar    1  UNL1        0.1334
      8 N           6.2298   -3.2412   27.2950 N.ar    1  UNL1       -0.2120
      9 C           6.6912   -4.1320   28.4102 C.ar    1  UNL1        0.1648
     10 N           5.2159   -0.9899   26.4862 N.pl3   1  UNL1       -0.2904
     11 C           3.9770   -1.3351   25.7142 C.3     1  UNL1        0.1092
     12 C           3.5157   -0.4444   24.5990 C.3     1  UNL1        0.0904
     13 N           4.2933    0.7916   24.2557 N.3     1  UNL1       -0.2946
     14 C           5.5322    1.1367   25.0277 C.3     1  UNL1        0.0904
     15 C           5.9935    0.2460   26.1429 C.3     1  UNL1        0.1092
     16 H           3.6538    1.5796   24.3576 H       1  UNL1        0.1233
     17 C           5.9560   -1.8321   31.5599 C.ar    1  UNL1        0.0002
     18 C           7.1151   -1.1179   32.1897 C.ar    1  UNL1       -0.0001
     19 C           7.0239   -0.6483   33.6113 C.ar    1  UNL1        0.0039
     20 C           5.7736   -0.8927   34.4032 C.ar    1  UNL1        0.0714
     21 C           4.6146   -1.6069   33.7734 C.ar    1  UNL1        0.0039
     22 C           4.7058   -2.0766   32.3518 C.ar    1  UNL1       -0.0001
     23 C           5.6824   -0.4230   35.8248 C.3     1  UNL1        0.4186
     24 F           5.5911    0.0467   37.2464 F       1  UNL1       -0.1659
     25 F           7.1135    0.0227   35.7694 F       1  UNL1       -0.1659
     26 F           4.2512   -0.8688   35.8803 F       1  UNL1       -0.1659
     27 S           7.5438   -6.3615   27.2072 S.O2    1  UNL1        0.0675
     28 O           6.0692   -6.5688   27.0260 O.2     1  UNL1       -0.1521
     29 O           9.0183   -6.1542   27.3884 O.2     1  UNL1       -0.1521
     30 C           7.8114   -7.2098   25.9994 C.3     1  UNL1        0.1751
     31 C           7.5613   -5.1691   24.4111 C.3     1  UNL1        0.0019
     32 C           8.0511   -6.5636   24.6672 C.3     1  UNL1        0.0258
     33 C           8.7805   -7.3119   23.5910 C.3     1  UNL1        0.0019
@<TRIPOS>BOND
     1    31    32    1
     2    32    33    1
     3    32    30    1
     4    30    27    1
     5    27    28    2
     6    27    29    2
     7    27     1    1
     8     1     2   ar
     9     2     3   ar
    10     3     4   ar
    11     4     5   ar
    12     5    17    1
    13    17    18   ar
    14    18    19   ar
    15    19    20   ar
    16    20    23    1
    17    23    24    1
    18    23    25    1
    19    23    26    1
    20    20    21   ar
    21    21    22   ar
    22     5     6   ar
    23     6     7   ar
    24     7    10    1
    25    10    11    1
    26    11    12    1
    27    12    13    1
    28    13    14    1
    29    14    15    1
    30     7     8   ar
    31     8     9   ar
    32     9     1   ar
    33     9     4   ar
    34    22    17   ar
    35    15    10    1
    36    13    16    1
@<TRIPOS>MOLECULE
*****
 33 36 0 0 0
SMALL
GASTEIGER

@<TRIPOS>ATOM
      1 N           1.1624    1.3421   26.0978 N.ar    1  UNL1       -0.1943
      2 C           0.5367    1.8203   24.8212 C.ar    1  UNL1        0.1013
      3 C           1.2934    1.2120   23.6778 C.ar    1  UNL1        0.0236
      4 C           2.3868    0.3578   24.2478 C.ar    1  UNL1        0.0374
      5 C           3.4457   -0.4829   23.5982 C.ar    1  UNL1        0.0058
      6 C           4.4236   -1.2431   24.4442 C.ar    1  UNL1        0.0344
      7 C           4.3426   -1.1626   25.9398 C.ar    1  UNL1        0.1334
      8 N           3.2837   -0.3220   26.5895 N.ar    1  UNL1       -0.2120
      9 C           2.3058    0.4382   25.7434 C.ar    1  UNL1        0.1648
     10 N           5.3206   -1.9229   26.7858 N.pl3   1  UNL1       -0.2904
     11 C           6.3315   -2.8225   26.1387 C.3     1  UNL1        0.1092
     12 C           7.3094   -3.5827   26.9847 C.3     1  UNL1        0.0904
     13 N           7.2764   -3.4433   28.4779 N.3     1  UNL1       -0.2946
     14 C           6.2654   -2.5438   29.1250 C.3     1  UNL1        0.0904
     15 C           5.2875   -1.7835   28.2790 C.3     1  UNL1        0.1092
     16 H           8.1958   -3.1057   28.7625 H       1  UNL1        0.1233
     17 C           3.5267   -0.5633   22.1025 C.ar    1  UNL1        0.0002
     18 C           4.7293   -0.0236   21.3864 C.ar    1  UNL1       -0.0001
     19 C           4.8104   -0.1040   19.8909 C.ar    1  UNL1        0.0039
     20 C           3.6888   -0.7241   19.1112 C.ar    1  UNL1        0.0714
     21 C           2.4863   -1.2637   19.8272 C.ar    1  UNL1        0.0039
     22 C           2.4052   -1.1834   21.3229 C.ar    1  UNL1       -0.0001
     23 C           3.7699   -0.8045   17.6156 C.3     1  UNL1        0.4186
     24 F           3.8510   -0.8850   16.1200 F       1  UNL1       -0.1659
     25 F           2.7638    0.3022   17.5015 F       1  UNL1       -0.1659
     26 F           4.7760   -1.9113   17.7296 F       1  UNL1       -0.1659
     27 S           0.7219    1.7042   27.4852 S.O2    1  UNL1        0.0675
     28 O          -0.4262    0.7457   27.3709 O.2     1  UNL1       -0.1521
     29 O           1.8701    2.6626   27.5996 O.2     1  UNL1       -0.1521
     30 C           0.2815    2.0663   28.8726 C.3     1  UNL1        0.1751
     31 C           1.7602    0.1989   29.9101 C.3     1  UNL1        0.0019
     32 C           0.9770    1.4694   30.0601 C.3     1  UNL1        0.0258
     33 C           0.8893    2.1430   31.3975 C.3     1  UNL1        0.0019
@<TRIPOS>BOND
     1    31    32    1
     2    32    33    1
     3    32    30    1
     4    30    27    1
     5    27    28    2
     6    27    29    2
     7    27     1    1
     8     1     2   ar
     9     2     3   ar
    10     3     4   ar
    11     4     5   ar
    12     5    17    1
    13    17    18   ar
    14    18    19   ar
    15    19    20   ar
    16    20    23    1
    17    23    24    1
    18    23    25    1
    19    23    26    1
    20    20    21   ar
    21    21    22   ar
    22     5     6   ar
    23     6     7   ar
    24     7    10    1
    25    10    11    1
    26    11    12    1
    27    12    13    1
    28    13    14    1
    29    14    15    1
    30     7     8   ar
    31     8     9   ar
    32     9     1   ar
    33     9     4   ar
    34    22    17   ar
    35    15    10    1
    36    13    16    1
@<TRIPOS>MOLECULE
*****
 33 36 0 0 0
SMALL
GASTEIGER

@<TRIPOS>ATOM
      1 N          -0.0361    2.9574   22.1126 N.ar    1  UNL1       -0.1943
      2 C           1.2129    2.5174   22.8172 C.ar    1  UNL1        0.1013
      3 C           0.9223    2.4676   24.2880 C.ar    1  UNL1        0.0236
      4 C          -0.5062    2.8768   24.4924 C.ar    1  UNL1        0.0374
      5 C          -1.3442    3.0128   25.7290 C.ar    1  UNL1        0.0058
      6 C          -2.7745    3.4516   25.6212 C.ar    1  UNL1        0.0344
      7 C          -3.3668    3.7544   24.2769 C.ar    1  UNL1        0.1334
      8 N          -2.5288    3.6183   23.0401 N.ar    1  UNL1       -0.2120
      9 C          -1.0985    3.1795   23.1480 C.ar    1  UNL1        0.1648
     10 N          -4.7972    4.1932   24.1691 N.pl3   1  UNL1       -0.2904
     11 C          -5.4090    5.0293   25.2538 C.3     1  UNL1        0.1092
     12 C          -6.8393    5.4681   25.1460 C.3     1  UNL1        0.0904
     13 N          -7.6578    5.0708   23.9534 N.3     1  UNL1       -0.2946
     14 C          -7.0461    4.2347   22.8687 C.3     1  UNL1        0.0904
     15 C          -5.6158    3.7959   22.9765 C.3     1  UNL1        0.1092
     16 H          -7.9774    5.9344   23.5147 H       1  UNL1        0.1233
     17 C          -0.7519    2.7101   27.0735 C.ar    1  UNL1        0.0002
     18 C          -0.9127    1.3448   27.6737 C.ar    1  UNL1       -0.0001
     19 C          -0.3204    1.0420   29.0180 C.ar    1  UNL1        0.0039
     20 C           0.4327    2.1045   29.7624 C.ar    1  UNL1        0.0714
     21 C           0.5935    3.4698   29.1622 C.ar    1  UNL1        0.0039
     22 C           0.0012    3.7726   27.8177 C.ar    1  UNL1       -0.0001
     23 C           1.0250    1.8018   31.1067 C.3     1  UNL1        0.4186
     24 F           1.6173    1.4990   32.4511 F       1  UNL1       -0.1659
     25 F           0.2103    2.9050   31.7142 F       1  UNL1       -0.1659
     26 F           1.8398    0.6985   30.4993 F       1  UNL1       -0.1659
     27 S          -0.1948    3.1428   20.6326 S.O2    1  UNL1        0.0675
     28 O           0.4038    4.5140   20.7402 O.2     1  UNL1       -0.1521
     29 O          -0.7933    1.7716   20.5250 O.2     1  UNL1       -0.1521
     30 C          -0.3534    3.3282   19.1526 C.3     1  UNL1        0.1751
     31 C          -1.7980    4.0546   17.1190 C.3     1  UNL1        0.0019
     32 C          -1.6183    3.9170   18.6018 C.3     1  UNL1        0.0258
     33 C          -2.7035    4.3684   19.5339 C.3     1  UNL1        0.0019
@<TRIPOS>BOND
     1    31    32    1
     2    32    33    1
     3    32    30    1
     4    30    27    1
     5    27    28    2
     6    27    29    2
     7    27     1    1
     8     1     2   ar
     9     2     3   ar
    10     3     4   ar
    11     4     5   ar
    12     5    17    1
    13    17    18   ar
    14    18    19   ar
    15    19    20   ar
    16    20    23    1
    17    23    24    1
    18    23    25    1
    19    23    26    1
    20    20    21   ar
    21    21    22   ar
    22     5     6   ar
    23     6     7   ar
    24     7    10    1
    25    10    11    1
    26    11    12    1
    27    12    13    1
    28    13    14    1
    29    14    15    1
    30     7     8   ar
    31     8     9   ar
    32     9     1   ar
    33     9     4   ar
    34    22    17   ar
    35    15    10    1
    36    13    16    1
