@<TRIPOS>MOLECULE
*****
 18 20 0 0 0
SMALL
GASTEIGER

@<TRIPOS>ATOM
      1 C          -9.9627  -19.6482   19.6406 C.3     1  UNL1        0.0312
      2 C         -10.3554  -18.8913   20.8747 C.ar    1  UNL1       -0.0163
      3 C         -11.7903  -18.8600   21.3104 C.ar    1  UNL1       -0.0040
      4 C         -12.1830  -18.1031   22.5446 C.ar    1  UNL1        0.0010
      5 C         -11.1408  -17.3776   23.3429 C.ar    1  UNL1        0.0147
      6 C          -9.7058  -17.4090   22.9071 C.ar    1  UNL1        0.0531
      7 C          -9.3131  -18.1658   21.6731 C.ar    1  UNL1        0.0628
      8 C          -7.8781  -18.1972   21.2373 C.2     1  UNL1        0.2479
      9 O          -7.4854  -18.9541   20.0032 O.2     1  UNL1       -0.2701
     10 N          -6.8358  -17.4717   22.0356 N.am    1  UNL1       -0.2855
     11 C          -7.2285  -16.7148   23.2697 C.3     1  UNL1        0.1653
     12 C          -6.1863  -15.9893   24.0680 C.3     1  UNL1        0.1097
     13 N          -6.5790  -15.2325   25.3021 N.3     1  UNL1       -0.2932
     14 C          -8.0139  -15.2011   25.7378 C.3     1  UNL1        0.0904
     15 C          -9.0562  -15.9266   24.9395 C.3     1  UNL1        0.1093
     16 N          -8.6635  -16.6834   23.7055 N.pl3   1  UNL1       -0.2909
     17 H          -5.8940  -17.4923   21.7496 H       1  UNL1        0.1512
     18 H          -6.2942  -14.2639   25.1566 H       1  UNL1        0.1234
@<TRIPOS>BOND
     1     1     2    1
     2     2     3   ar
     3     3     4   ar
     4     4     5   ar
     5     5     6   ar
     6     6     7   ar
     7     7     8    1
     8     8     9    2
     9     8    10   am
    10    10    11    1
    11    11    12    1
    12    12    13    1
    13    13    14    1
    14    14    15    1
    15    15    16    1
    16     7     2   ar
    17    16    11    1
    18    16     6    1
    19    10    17    1
    20    13    18    1
@<TRIPOS>MOLECULE
*****
 18 20 0 0 0
SMALL
GASTEIGER

@<TRIPOS>ATOM
      1 C          -2.4971  -19.7428   21.3785 C.3     1  UNL1        0.0312
      2 C          -3.9915  -19.7282   21.2510 C.ar    1  UNL1       -0.0163
      3 C          -4.6800  -20.7382   20.3816 C.ar    1  UNL1       -0.0040
      4 C          -6.1746  -20.7236   20.2541 C.ar    1  UNL1        0.0010
      5 C          -6.9806  -19.6990   20.9961 C.ar    1  UNL1        0.0147
      6 C          -6.2921  -18.6890   21.8655 C.ar    1  UNL1        0.0531
      7 C          -4.7976  -18.7036   21.9930 C.ar    1  UNL1        0.0628
      8 C          -4.1092  -17.6935   22.8624 C.2     1  UNL1        0.2479
      9 O          -2.6146  -17.7081   22.9899 O.2     1  UNL1       -0.2701
     10 N          -4.9152  -16.6689   23.6043 N.am    1  UNL1       -0.2855
     11 C          -6.4098  -16.6543   23.4769 C.3     1  UNL1        0.1653
     12 C          -7.2158  -15.6298   24.2188 C.3     1  UNL1        0.1097
     13 N          -8.7102  -15.6152   24.0913 N.3     1  UNL1       -0.2932
     14 C          -9.3987  -16.6252   23.2219 C.3     1  UNL1        0.0904
     15 C          -8.5927  -17.6498   22.4800 C.3     1  UNL1        0.1093
     16 N          -7.0982  -17.6644   22.6075 N.pl3   1  UNL1       -0.2909
     17 H          -4.4633  -16.0060   24.1750 H       1  UNL1        0.1512
     18 H          -8.9662  -14.6951   23.7332 H       1  UNL1        0.1234
@<TRIPOS>BOND
     1     1     2    1
     2     2     3   ar
     3     3     4   ar
     4     4     5   ar
     5     5     6   ar
     6     6     7   ar
     7     7     8    1
     8     8     9    2
     9     8    10   am
    10    10    11    1
    11    11    12    1
    12    12    13    1
    13    13    14    1
    14    14    15    1
    15    15    16    1
    16     7     2   ar
    17    16    11    1
    18    16     6    1
    19    10    17    1
    20    13    18    1
@<TRIPOS>MOLECULE
*****
 18 20 0 0 0
SMALL
GASTEIGER

@<TRIPOS>ATOM
      1 C         -10.8672  -19.0774   20.1264 C.3     1  UNL1        0.0312
      2 C          -9.4350  -18.9314   20.5473 C.ar    1  UNL1       -0.0163
      3 C          -8.3754  -19.7796   19.9087 C.ar    1  UNL1       -0.0040
      4 C          -6.9430  -19.6336   20.3297 C.ar    1  UNL1        0.0010
      5 C          -6.5703  -18.6394   21.3892 C.ar    1  UNL1        0.0147
      6 C          -7.6299  -17.7912   22.0278 C.ar    1  UNL1        0.0531
      7 C          -9.0622  -17.9372   21.6069 C.ar    1  UNL1        0.0628
      8 C         -10.1218  -17.0890   22.2455 C.2     1  UNL1        0.2479
      9 O         -11.5542  -17.2351   21.8246 O.2     1  UNL1       -0.2701
     10 N          -9.7492  -16.0949   23.3051 N.am    1  UNL1       -0.2855
     11 C          -8.3168  -15.9488   23.7261 C.3     1  UNL1        0.1653
     12 C          -7.9441  -14.9547   24.7856 C.3     1  UNL1        0.1097
     13 N          -6.5119  -14.8087   25.2066 N.3     1  UNL1       -0.2932
     14 C          -5.4523  -15.6569   24.5679 C.3     1  UNL1        0.0904
     15 C          -5.8249  -16.6510   23.5084 C.3     1  UNL1        0.1093
     16 N          -7.2572  -16.7970   23.0874 N.pl3   1  UNL1       -0.2909
     17 H         -10.4446  -15.5382   23.7242 H       1  UNL1        0.1512
     18 H          -6.4783  -15.0000   26.2079 H       1  UNL1        0.1234
@<TRIPOS>BOND
     1     1     2    1
     2     2     3   ar
     3     3     4   ar
     4     4     5   ar
     5     5     6   ar
     6     6     7   ar
     7     7     8    1
     8     8     9    2
     9     8    10   am
    10    10    11    1
    11    11    12    1
    12    12    13    1
    13    13    14    1
    14    14    15    1
    15    15    16    1
    16     7     2   ar
    17    16    11    1
    18    16     6    1
    19    10    17    1
    20    13    18    1
@<TRIPOS>MOLECULE
*****
 18 20 0 0 0
SMALL
GASTEIGER

@<TRIPOS>ATOM
      1 C          -4.1823  -20.7027   20.1921 C.3     1  UNL1        0.0312
      2 C          -4.0276  -19.6080   21.2058 C.ar    1  UNL1       -0.0163
      3 C          -2.6679  -19.2663   21.7391 C.ar    1  UNL1       -0.0040
      4 C          -2.5133  -18.1715   22.7529 C.ar    1  UNL1        0.0010
      5 C          -3.7184  -17.4185   23.2332 C.ar    1  UNL1        0.0147
      6 C          -5.0781  -17.7602   22.6999 C.ar    1  UNL1        0.0531
      7 C          -5.2327  -18.8549   21.6862 C.ar    1  UNL1        0.0628
      8 C          -6.5924  -19.1967   21.1529 C.2     1  UNL1        0.2479
      9 O          -6.7470  -20.2915   20.1391 O.2     1  UNL1       -0.2701
     10 N          -7.7975  -18.4437   21.6332 N.am    1  UNL1       -0.2855
     11 C          -7.6429  -17.3489   22.6470 C.3     1  UNL1        0.1653
     12 C          -8.8479  -16.5959   23.1273 C.3     1  UNL1        0.1097
     13 N          -8.6933  -15.5011   24.1410 N.3     1  UNL1       -0.2932
     14 C          -7.3336  -15.1594   24.6743 C.3     1  UNL1        0.0904
     15 C          -6.1285  -15.9124   24.1940 C.3     1  UNL1        0.1093
     16 N          -6.2832  -17.0071   23.1803 N.pl3   1  UNL1       -0.2909
     17 H          -8.6899  -18.6680   21.2832 H       1  UNL1        0.1512
     18 H          -9.2679  -15.7594   24.9432 H       1  UNL1        0.1234
@<TRIPOS>BOND
     1     1     2    1
     2     2     3   ar
     3     3     4   ar
     4     4     5   ar
     5     5     6   ar
     6     6     7   ar
     7     7     8    1
     8     8     9    2
     9     8    10   am
    10    10    11    1
    11    11    12    1
    12    12    13    1
    13    13    14    1
    14    14    15    1
    15    15    16    1
    16     7     2   ar
    17    16    11    1
    18    16     6    1
    19    10    17    1
    20    13    18    1
@<TRIPOS>MOLECULE
*****
 18 20 0 0 0
SMALL
GASTEIGER

@<TRIPOS>ATOM
      1 C          -4.8578  -17.0207   23.4600 C.3     1  UNL1        0.0312
      2 C          -6.2405  -16.5582   23.8125 C.ar    1  UNL1       -0.0163
      3 C          -6.4522  -15.6589   24.9942 C.ar    1  UNL1       -0.0040
      4 C          -7.8349  -15.1964   25.3466 C.ar    1  UNL1        0.0010
      5 C          -9.0060  -15.6333   24.5173 C.ar    1  UNL1        0.0147
      6 C          -8.7943  -16.5326   23.3356 C.ar    1  UNL1        0.0531
      7 C          -7.4117  -16.9950   22.9832 C.ar    1  UNL1        0.0628
      8 C          -7.2000  -17.8943   21.8014 C.2     1  UNL1        0.2479
      9 O          -5.8172  -18.3568   21.4490 O.2     1  UNL1       -0.2701
     10 N          -8.3711  -18.3311   20.9721 N.am    1  UNL1       -0.2855
     11 C          -9.7539  -17.8687   21.3245 C.3     1  UNL1        0.1653
     12 C         -10.9249  -18.3055   20.4952 C.3     1  UNL1        0.1097
     13 N         -12.3076  -17.8430   20.8477 N.3     1  UNL1       -0.2932
     14 C         -12.5192  -16.9437   22.0294 C.3     1  UNL1        0.0904
     15 C         -11.3482  -16.5069   22.8587 C.3     1  UNL1        0.1093
     16 N          -9.9655  -16.9694   22.5063 N.pl3   1  UNL1       -0.2909
     17 H          -8.2321  -18.9214   20.1965 H       1  UNL1        0.1512
     18 H         -12.8655  -18.6810   21.0117 H       1  UNL1        0.1234
@<TRIPOS>BOND
     1     1     2    1
     2     2     3   ar
     3     3     4   ar
     4     4     5   ar
     5     5     6   ar
     6     6     7   ar
     7     7     8    1
     8     8     9    2
     9     8    10   am
    10    10    11    1
    11    11    12    1
    12    12    13    1
    13    13    14    1
    14    14    15    1
    15    15    16    1
    16     7     2   ar
    17    16    11    1
    18    16     6    1
    19    10    17    1
    20    13    18    1
@<TRIPOS>MOLECULE
*****
 18 20 0 0 0
SMALL
GASTEIGER

@<TRIPOS>ATOM
      1 C          -5.8165  -20.9819   20.2960 C.3     1  UNL1        0.0312
      2 C          -6.8405  -19.9760   20.7313 C.ar    1  UNL1       -0.0163
      3 C          -8.2491  -20.0724   20.2247 C.ar    1  UNL1       -0.0040
      4 C          -9.2732  -19.0665   20.6600 C.ar    1  UNL1        0.0010
      5 C          -8.8886  -17.9642   21.6019 C.ar    1  UNL1        0.0147
      6 C          -7.4801  -17.8679   22.1085 C.ar    1  UNL1        0.0531
      7 C          -6.4560  -18.8737   21.6732 C.ar    1  UNL1        0.0628
      8 C          -5.0474  -18.7774   22.1798 C.2     1  UNL1        0.2479
      9 O          -4.0234  -19.7833   21.7444 O.2     1  UNL1       -0.2701
     10 N          -4.6629  -17.6751   23.1216 N.am    1  UNL1       -0.2855
     11 C          -5.6870  -16.6692   23.5570 C.3     1  UNL1        0.1653
     12 C          -5.3024  -15.5669   24.4988 C.3     1  UNL1        0.1097
     13 N          -6.3265  -14.5611   24.9341 N.3     1  UNL1       -0.2932
     14 C          -7.7351  -14.6574   24.4275 C.3     1  UNL1        0.0904
     15 C          -8.1196  -15.7597   23.4856 C.3     1  UNL1        0.1093
     16 N          -7.0956  -16.7655   23.0504 N.pl3   1  UNL1       -0.2909
     17 H          -3.7384  -17.6119   23.4541 H       1  UNL1        0.1512
     18 H          -5.9757  -13.6445   24.6561 H       1  UNL1        0.1234
@<TRIPOS>BOND
     1     1     2    1
     2     2     3   ar
     3     3     4   ar
     4     4     5   ar
     5     5     6   ar
     6     6     7   ar
     7     7     8    1
     8     8     9    2
     9     8    10   am
    10    10    11    1
    11    11    12    1
    12    12    13    1
    13    13    14    1
    14    14    15    1
    15    15    16    1
    16     7     2   ar
    17    16    11    1
    18    16     6    1
    19    10    17    1
    20    13    18    1
@<TRIPOS>MOLECULE
*****
 18 20 0 0 0
SMALL
GASTEIGER

@<TRIPOS>ATOM
      1 C         -12.0456  -17.7997   21.0540 C.3     1  UNL1        0.0312
      2 C         -10.8108  -17.5349   21.8633 C.ar    1  UNL1       -0.0163
      3 C         -10.8820  -16.6503   23.0727 C.ar    1  UNL1       -0.0040
      4 C          -9.6471  -16.3856   23.8820 C.ar    1  UNL1        0.0010
      5 C          -8.3411  -17.0054   23.4821 C.ar    1  UNL1        0.0147
      6 C          -8.2699  -17.8900   22.2727 C.ar    1  UNL1        0.0531
      7 C          -9.5047  -18.1548   21.4634 C.ar    1  UNL1        0.0628
      8 C          -9.4335  -19.0393   20.2541 C.2     1  UNL1        0.2479
      9 O         -10.6684  -19.3041   19.4447 O.2     1  UNL1       -0.2701
     10 N          -8.1274  -19.6592   19.8541 N.am    1  UNL1       -0.2855
     11 C          -6.8925  -19.3944   20.6635 C.3     1  UNL1        0.1653
     12 C          -5.5865  -20.0143   20.2635 C.3     1  UNL1        0.1097
     13 N          -4.3517  -19.7495   21.0728 N.3     1  UNL1       -0.2932
     14 C          -4.4229  -18.8650   22.2822 C.3     1  UNL1        0.0904
     15 C          -5.7289  -18.2451   22.6821 C.3     1  UNL1        0.1093
     16 N          -6.9637  -18.5099   21.8728 N.pl3   1  UNL1       -0.2909
     17 H          -8.0807  -20.2397   19.0604 H       1  UNL1        0.1512
     18 H          -3.6697  -19.3300   20.4409 H       1  UNL1        0.1234
@<TRIPOS>BOND
     1     1     2    1
     2     2     3   ar
     3     3     4   ar
     4     4     5   ar
     5     5     6   ar
     6     6     7   ar
     7     7     8    1
     8     8     9    2
     9     8    10   am
    10    10    11    1
    11    11    12    1
    12    12    13    1
    13    13    14    1
    14    14    15    1
    15    15    16    1
    16     7     2   ar
    17    16    11    1
    18    16     6    1
    19    10    17    1
    20    13    18    1
@<TRIPOS>MOLECULE
*****
 18 20 0 0 0
SMALL
GASTEIGER

@<TRIPOS>ATOM
      1 C         -17.4903  -10.6524   18.5140 C.3     1  UNL1        0.0312
      2 C         -17.4339   -9.2022   18.8930 C.ar    1  UNL1       -0.0163
      3 C         -18.6933   -8.4718   19.2542 C.ar    1  UNL1       -0.0040
      4 C         -18.6369   -7.0215   19.6332 C.ar    1  UNL1        0.0010
      5 C         -17.3211   -6.3017   19.6511 C.ar    1  UNL1        0.0147
      6 C         -16.0616   -7.0321   19.2900 C.ar    1  UNL1        0.0531
      7 C         -16.1180   -8.4822   18.9109 C.ar    1  UNL1        0.0628
      8 C         -14.8586   -9.2126   18.5498 C.2     1  UNL1        0.2479
      9 O         -14.9151  -10.6629   18.1707 O.2     1  UNL1       -0.2701
     10 N         -13.5428   -8.4928   18.5677 N.am    1  UNL1       -0.2855
     11 C         -13.4863   -7.0425   18.9467 C.3     1  UNL1        0.1653
     12 C         -12.1705   -6.3227   18.9647 C.3     1  UNL1        0.1097
     13 N         -12.1141   -4.8725   19.3437 N.3     1  UNL1       -0.2932
     14 C         -13.3735   -4.1421   19.7048 C.3     1  UNL1        0.0904
     15 C         -14.6893   -4.8620   19.6869 C.3     1  UNL1        0.1093
     16 N         -14.7457   -6.3121   19.3079 N.pl3   1  UNL1       -0.2909
     17 H         -12.7162   -8.9721   18.3307 H       1  UNL1        0.1512
     18 H         -11.7030   -4.3771   18.5525 H       1  UNL1        0.1234
@<TRIPOS>BOND
     1     1     2    1
     2     2     3   ar
     3     3     4   ar
     4     4     5   ar
     5     5     6   ar
     6     6     7   ar
     7     7     8    1
     8     8     9    2
     9     8    10   am
    10    10    11    1
    11    11    12    1
    12    12    13    1
    13    13    14    1
    14    14    15    1
    15    15    16    1
    16     7     2   ar
    17    16    11    1
    18    16     6    1
    19    10    17    1
    20    13    18    1
@<TRIPOS>MOLECULE
*****
 18 20 0 0 0
SMALL
GASTEIGER

@<TRIPOS>ATOM
      1 C          -2.7038  -19.7305   21.6368 C.3     1  UNL1        0.0312
      2 C          -3.7769  -18.8408   22.1908 C.ar    1  UNL1       -0.0163
      3 C          -3.4416  -17.8295   23.2467 C.ar    1  UNL1       -0.0040
      4 C          -4.5147  -16.9397   23.8007 C.ar    1  UNL1        0.0010
      5 C          -5.9230  -17.0614   23.2990 C.ar    1  UNL1        0.0147
      6 C          -6.2583  -18.0727   22.2432 C.ar    1  UNL1        0.0531
      7 C          -5.1853  -18.9624   21.6891 C.ar    1  UNL1        0.0628
      8 C          -5.5206  -19.9738   20.6333 C.2     1  UNL1        0.2479
      9 O          -4.4474  -20.8635   20.0792 O.2     1  UNL1       -0.2701
     10 N          -6.9289  -20.0954   20.1315 N.am    1  UNL1       -0.2855
     11 C          -8.0020  -19.2057   20.6856 C.3     1  UNL1        0.1653
     12 C          -9.4103  -19.3274   20.1838 C.3     1  UNL1        0.1097
     13 N         -10.4833  -18.4377   20.7379 N.3     1  UNL1       -0.2932
     14 C         -10.1480  -17.4263   21.7937 C.3     1  UNL1        0.0904
     15 C          -8.7397  -17.3047   22.2955 C.3     1  UNL1        0.1093
     16 N          -7.6667  -18.1944   21.7414 N.pl3   1  UNL1       -0.2909
     17 H          -7.1489  -20.7592   19.4385 H       1  UNL1        0.1512
     18 H         -11.1982  -19.0491   21.1322 H       1  UNL1        0.1234
@<TRIPOS>BOND
     1     1     2    1
     2     2     3   ar
     3     3     4   ar
     4     4     5   ar
     5     5     6   ar
     6     6     7   ar
     7     7     8    1
     8     8     9    2
     9     8    10   am
    10    10    11    1
    11    11    12    1
    12    12    13    1
    13    13    14    1
    14    14    15    1
    15    15    16    1
    16     7     2   ar
    17    16    11    1
    18    16     6    1
    19    10    17    1
    20    13    18    1
