@<TRIPOS>MOLECULE
*****
 45 50 0 0 0
SMALL
GASTEIGER

@<TRIPOS>ATOM
      1 C           4.4059   -2.3853   21.5824 C.ar    1  UNL1        0.0531
      2 C           3.8046   -1.8992   20.2971 C.ar    1  UNL1        0.0058
      3 C           2.7993   -0.7859   20.3133 C.ar    1  UNL1        0.0160
      4 C           2.3955   -0.1588   21.6146 C.ar    1  UNL1        0.0648
      5 C           2.9969   -0.6451   22.9000 C.ar    1  UNL1       -0.0061
      6 C           4.0021   -1.7583   22.8839 C.ar    1  UNL1        0.0015
      7 C           2.4090    0.1603   24.0207 C.3     1  UNL1        0.0419
      8 C           3.4002   -0.8734   24.4668 C.3     1  UNL1        0.0311
      9 C           3.7207   -1.0253   25.9242 C.3     1  UNL1        0.1512
     10 S           3.0500   -0.1435   26.9355 S.O2    1  UNL1       -0.0100
     11 O           2.6788    0.4508   28.2618 O.2     1  UNL1       -0.1730
     12 O           3.9123   -0.9708   27.8423 O.2     1  UNL1       -0.1730
     13 C           2.0588    0.8901   26.4894 C.3     1  UNL1        0.1512
     14 C           1.7383    1.0420   25.0320 C.3     1  UNL1        0.0311
     15 C           1.4443    1.1442   23.4279 C.3     1  UNL1        0.0997
     16 N           1.4360    0.9470   21.9410 N.pl3   1  UNL1       -0.1923
     17 O           5.3363   -4.5614   20.5103 O.2     1  UNL1       -0.2701
     18 C           5.4111   -3.4986   21.5663 C.2     1  UNL1        0.2461
     19 N           6.4910   -3.5491   22.6061 N.am    1  UNL1       -0.2956
     20 H           6.5401   -2.8515   23.2991 H       1  UNL1        0.1501
     21 C           7.4962   -4.6623   22.5899 C.3     1  UNL1        0.1369
     22 C           7.7427   -5.4683   23.8308 C.ar    1  UNL1        0.0893
     23 N           7.2982   -4.9462   25.1649 N.ar    1  UNL1       -0.2457
     24 C           7.5447   -5.7520   26.4057 C.ar    1  UNL1        0.1024
     25 C           8.2356   -7.0802   26.3125 C.ar    1  UNL1        0.0913
     26 C           8.6801   -7.6024   24.9783 C.ar    1  UNL1        0.0181
     27 C           8.4336   -6.7964   23.7375 C.ar    1  UNL1        0.0728
     28 CL          8.8781   -7.3185   22.4034 Cl      1  UNL1       -0.0810
     29 C           8.4821   -7.8861   27.5533 C.3     1  UNL1        0.4200
     30 F           8.7285   -8.6921   28.7941 F       1  UNL1       -0.1658
     31 F           9.2058   -8.9177   26.7395 F       1  UNL1       -0.1658
     32 F           7.7583   -6.8547   28.3671 F       1  UNL1       -0.1658
     33 C           0.6308    2.1490   24.1887 C.3     1  UNL1        0.0203
     34 C           0.4737    3.5252   24.7643 C.3     1  UNL1        0.0018
     35 C          -0.6209    2.5131   24.9307 C.3     1  UNL1        0.0018
     36 S           0.6127    1.7199   20.9537 S.O2    1  UNL1        0.0765
     37 O          -0.3476    0.5717   20.8556 O.2     1  UNL1       -0.1497
     38 O           1.5730    2.8681   21.0518 O.2     1  UNL1       -0.1497
     39 C          -0.2106    2.4928   19.9664 C.ar    1  UNL1        0.1256
     40 C           0.2798    2.6750   18.5606 C.ar    1  UNL1        0.0225
     41 C          -0.5435    3.4479   17.5733 C.ar    1  UNL1        0.0310
     42 C          -1.8572    4.0387   17.9918 C.ar    1  UNL1        0.1402
     43 F          -2.6805    4.8116   17.0044 F       1  UNL1       -0.2042
     44 C          -2.3477    3.8565   19.3976 C.ar    1  UNL1        0.0310
     45 C          -1.5244    3.0836   20.3849 C.ar    1  UNL1        0.0225
@<TRIPOS>BOND
     1    17    18    2
     2    18    19   am
     3    19    21    1
     4    21    22    1
     5    22    23   ar
     6    23    24   ar
     7    24    25   ar
     8    25    29    1
     9    29    30    1
    10    29    31    1
    11    29    32    1
    12    25    26   ar
    13    26    27   ar
    14    27    28    1
    15    18     1    1
    16     1     2   ar
    17     2     3   ar
    18     3     4   ar
    19     4     5   ar
    20     5     6   ar
    21     5     7    1
    22     7     8    1
    23     8     9    1
    24     9    10    1
    25    10    11    2
    26    10    12    2
    27    10    13    1
    28    13    14    1
    29     7    15    1
    30    15    33    1
    31    33    34    1
    32    34    35    1
    33    15    16    1
    34    16    36    1
    35    36    37    2
    36    36    38    2
    37    36    39    1
    38    39    40   ar
    39    40    41   ar
    40    41    42   ar
    41    42    43    1
    42    42    44   ar
    43    44    45   ar
    44    27    22   ar
    45     6     1   ar
    46    14     7    1
    47    35    33    1
    48    45    39   ar
    49    16     4    1
    50    19    20    1
@<TRIPOS>MOLECULE
*****
 45 50 0 0 0
SMALL
GASTEIGER

@<TRIPOS>ATOM
      1 C           3.2253   -0.4752   26.2478 C.ar    1  UNL1        0.0531
      2 C           2.2287    0.5827   25.8768 C.ar    1  UNL1        0.0058
      3 C           1.9031    0.8334   24.4341 C.ar    1  UNL1        0.0160
      4 C           2.5740    0.0262   23.3626 C.ar    1  UNL1        0.0648
      5 C           3.5707   -1.0317   23.7337 C.ar    1  UNL1       -0.0061
      6 C           3.8963   -1.2824   25.1762 C.ar    1  UNL1        0.0015
      7 C           4.0682   -1.6642   22.4678 C.3     1  UNL1        0.0419
      8 C           4.6754   -2.2354   23.7148 C.3     1  UNL1        0.0311
      9 C           5.6848   -3.3407   23.6191 C.3     1  UNL1        0.1512
     10 S           6.0870   -3.8750   22.2764 S.O2    1  UNL1       -0.0100
     11 O           6.7843   -4.7081   21.2421 O.2     1  UNL1       -0.1730
     12 O           6.9364   -4.7355   23.1642 O.2     1  UNL1       -0.1730
     13 C           5.4799   -3.3038   21.0294 C.3     1  UNL1        0.1512
     14 C           4.4705   -2.1984   21.1251 C.3     1  UNL1        0.0311
     15 C           3.3791   -0.9971   21.3144 C.3     1  UNL1        0.0997
     16 N           2.4557    0.0476   21.8674 N.pl3   1  UNL1       -0.1923
     17 O           2.4570   -1.0702   28.6574 O.2     1  UNL1       -0.2701
     18 C           3.5509   -0.7259   27.6904 C.2     1  UNL1        0.2461
     19 N           4.9704   -0.6323   28.1661 N.am    1  UNL1       -0.2956
     20 H           5.6883   -0.4064   27.5315 H       1  UNL1        0.1501
     21 C           5.2960   -0.8831   29.6087 C.3     1  UNL1        0.1369
     22 C           6.0191   -2.1352   30.0077 C.ar    1  UNL1        0.0893
     23 N           6.8630   -2.8657   29.0056 N.ar    1  UNL1       -0.2457
     24 C           7.5861   -4.1178   29.4045 C.ar    1  UNL1        0.1024
     25 C           7.4653   -4.6396   30.8057 C.ar    1  UNL1        0.0913
     26 C           6.6214   -3.9091   31.8079 C.ar    1  UNL1        0.0181
     27 C           5.8983   -2.6569   31.4088 C.ar    1  UNL1        0.0728
     28 CL          5.0544   -1.9265   32.4110 Cl      1  UNL1       -0.0810
     29 C           8.1884   -5.8917   31.2046 C.3     1  UNL1        0.4200
     30 F           8.9115   -7.1439   31.6036 F       1  UNL1       -0.1658
     31 F           9.3572   -5.4873   30.3559 F       1  UNL1       -0.1658
     32 F           7.0196   -6.2963   32.0534 F       1  UNL1       -0.1658
     33 C           3.5786   -1.3185   19.8629 C.3     1  UNL1        0.0203
     34 C           4.1535   -0.9692   18.5222 C.3     1  UNL1        0.0018
     35 C           3.3491   -2.2242   18.6894 C.3     1  UNL1        0.0018
     36 S           1.5695    0.9543   21.0660 S.O2    1  UNL1        0.0765
     37 O           0.5035   -0.1008   21.0508 O.2     1  UNL1       -0.1497
     38 O           2.6356    2.0095   21.0811 O.2     1  UNL1       -0.1497
     39 C           0.6833    1.8612   20.2645 C.ar    1  UNL1        0.1256
     40 C           0.9840    2.1166   18.8173 C.ar    1  UNL1        0.0225
     41 C           0.0978    3.0235   18.0159 C.ar    1  UNL1        0.0310
     42 C          -1.0890    3.6749   18.6616 C.ar    1  UNL1        0.1402
     43 F          -1.9752    4.5817   17.8601 F       1  UNL1       -0.2042
     44 C          -1.3898    3.4195   20.1088 C.ar    1  UNL1        0.0310
     45 C          -0.5036    2.5126   20.9103 C.ar    1  UNL1        0.0225
@<TRIPOS>BOND
     1    17    18    2
     2    18    19   am
     3    19    21    1
     4    21    22    1
     5    22    23   ar
     6    23    24   ar
     7    24    25   ar
     8    25    29    1
     9    29    30    1
    10    29    31    1
    11    29    32    1
    12    25    26   ar
    13    26    27   ar
    14    27    28    1
    15    18     1    1
    16     1     2   ar
    17     2     3   ar
    18     3     4   ar
    19     4     5   ar
    20     5     6   ar
    21     5     7    1
    22     7     8    1
    23     8     9    1
    24     9    10    1
    25    10    11    2
    26    10    12    2
    27    10    13    1
    28    13    14    1
    29     7    15    1
    30    15    33    1
    31    33    34    1
    32    34    35    1
    33    15    16    1
    34    16    36    1
    35    36    37    2
    36    36    38    2
    37    36    39    1
    38    39    40   ar
    39    40    41   ar
    40    41    42   ar
    41    42    43    1
    42    42    44   ar
    43    44    45   ar
    44    27    22   ar
    45     6     1   ar
    46    14     7    1
    47    35    33    1
    48    45    39   ar
    49    16     4    1
    50    19    20    1
@<TRIPOS>MOLECULE
*****
 45 50 0 0 0
SMALL
GASTEIGER

@<TRIPOS>ATOM
      1 C           2.7726    0.3262   26.4187 C.ar    1  UNL1        0.0531
      2 C           1.7978    1.3570   25.9318 C.ar    1  UNL1        0.0058
      3 C           1.4897    1.4655   24.4677 C.ar    1  UNL1        0.0160
      4 C           2.1564    0.5431   23.4907 C.ar    1  UNL1        0.0648
      5 C           3.1312   -0.4878   23.9777 C.ar    1  UNL1       -0.0061
      6 C           3.4394   -0.5962   25.4416 C.ar    1  UNL1        0.0015
      7 C           3.6294   -1.2533   22.7877 C.3     1  UNL1        0.0419
      8 C           4.2153   -1.7049   24.0926 C.3     1  UNL1        0.0311
      9 C           5.2063   -2.8304   24.1202 C.3     1  UNL1        0.1512
     10 S           5.6115   -3.5044   22.8428 S.O2    1  UNL1       -0.0100
     11 O           6.3037   -4.4492   21.9057 O.2     1  UNL1       -0.1730
     12 O           6.4378   -4.2841   23.8223 O.2     1  UNL1       -0.1730
     13 C           5.0257   -3.0528   21.5379 C.3     1  UNL1        0.1512
     14 C           4.0346   -1.9272   21.5104 C.3     1  UNL1        0.0311
     15 C           2.9624   -0.6955   21.5654 C.3     1  UNL1        0.0997
     16 N           2.0521    0.4147   21.9998 N.pl3   1  UNL1       -0.1923
     17 O           4.2989    0.8889   28.4445 O.2     1  UNL1       -0.2701
     18 C           3.0807    0.2177   27.8827 C.2     1  UNL1        0.2461
     19 N           2.1706   -0.5619   28.7849 N.am    1  UNL1       -0.2956
     20 H           1.3711   -1.0024   28.4162 H       1  UNL1        0.1501
     21 C           2.4788   -0.6704   30.2489 C.3     1  UNL1        0.1369
     22 C           2.1725    0.4759   31.1667 C.ar    1  UNL1        0.0893
     23 N           1.0431    1.4103   30.8486 N.ar    1  UNL1       -0.2457
     24 C           0.7368    2.5566   31.7664 C.ar    1  UNL1        0.1024
     25 C           1.5600    2.7684   33.0024 C.ar    1  UNL1        0.0913
     26 C           2.6895    1.8339   33.3205 C.ar    1  UNL1        0.0181
     27 C           2.9957    0.6876   32.4027 C.ar    1  UNL1        0.0728
     28 CL          4.1251   -0.2468   32.7208 Cl      1  UNL1       -0.0810
     29 C           1.2538    3.9145   33.9201 C.3     1  UNL1        0.4200
     30 F           0.9475    5.0608   34.8379 F       1  UNL1       -0.1658
     31 F           1.9007    3.1782   35.0556 F       1  UNL1       -0.1658
     32 F           0.6068    4.6509   32.7847 F       1  UNL1       -0.1658
     33 C           3.1695   -1.1654   20.1560 C.3     1  UNL1        0.0203
     34 C           2.9786   -2.2056   19.0923 C.3     1  UNL1        0.0018
     35 C           3.7189   -0.9393   18.7787 C.3     1  UNL1        0.0018
     36 S           1.1890    1.2498   21.1012 S.O2    1  UNL1        0.0765
     37 O           0.1197    0.1990   21.1516 O.2     1  UNL1       -0.1497
     38 O           2.2582    2.3007   21.0509 O.2     1  UNL1       -0.1497
     39 C           0.3258    2.0850   20.2026 C.ar    1  UNL1        0.1256
     40 C          -0.9029    2.7497   20.7487 C.ar    1  UNL1        0.0225
     41 C          -1.7660    3.5849   19.8501 C.ar    1  UNL1        0.0310
     42 C          -1.4004    3.7554   18.4054 C.ar    1  UNL1        0.1402
     43 F          -2.2635    4.5906   17.5067 F       1  UNL1       -0.2042
     44 C          -0.1716    3.0906   17.8592 C.ar    1  UNL1        0.0310
     45 C           0.6916    2.2555   18.7578 C.ar    1  UNL1        0.0225
@<TRIPOS>BOND
     1    17    18    2
     2    18    19   am
     3    19    21    1
     4    21    22    1
     5    22    23   ar
     6    23    24   ar
     7    24    25   ar
     8    25    29    1
     9    29    30    1
    10    29    31    1
    11    29    32    1
    12    25    26   ar
    13    26    27   ar
    14    27    28    1
    15    18     1    1
    16     1     2   ar
    17     2     3   ar
    18     3     4   ar
    19     4     5   ar
    20     5     6   ar
    21     5     7    1
    22     7     8    1
    23     8     9    1
    24     9    10    1
    25    10    11    2
    26    10    12    2
    27    10    13    1
    28    13    14    1
    29     7    15    1
    30    15    33    1
    31    33    34    1
    32    34    35    1
    33    15    16    1
    34    16    36    1
    35    36    37    2
    36    36    38    2
    37    36    39    1
    38    39    40   ar
    39    40    41   ar
    40    41    42   ar
    41    42    43    1
    42    42    44   ar
    43    44    45   ar
    44    27    22   ar
    45     6     1   ar
    46    14     7    1
    47    35    33    1
    48    45    39   ar
    49    16     4    1
    50    19    20    1
@<TRIPOS>MOLECULE
*****
 45 50 0 0 0
SMALL
GASTEIGER

@<TRIPOS>ATOM
      1 C           1.4548    0.8206   22.9199 C.ar    1  UNL1        0.0531
      2 C           1.4864    1.2473   24.3576 C.ar    1  UNL1        0.0058
      3 C           2.4543    0.6078   25.3086 C.ar    1  UNL1        0.0160
      4 C           3.3905   -0.4583   24.8220 C.ar    1  UNL1        0.0648
      5 C           3.3589   -0.8850   23.3842 C.ar    1  UNL1       -0.0061
      6 C           2.3911   -0.2455   22.4332 C.ar    1  UNL1        0.0015
      7 C           4.3946   -1.9534   23.1949 C.3     1  UNL1        0.0419
      8 C           3.6355   -1.6115   21.9471 C.3     1  UNL1        0.0311
      9 C           3.9452   -2.3216   20.6627 C.3     1  UNL1        0.1512
     10 S           5.0139   -3.3735   20.6260 S.O2    1  UNL1       -0.0100
     11 O           5.9293   -4.4347   20.0914 O.2     1  UNL1       -0.1730
     12 O           4.5727   -3.4002   19.1926 O.2     1  UNL1       -0.1730
     13 C           5.7729   -3.7154   21.8737 C.3     1  UNL1        0.1512
     14 C           5.4633   -3.0053   23.1582 C.3     1  UNL1        0.0311
     15 C           5.0663   -2.1870   24.5156 C.3     1  UNL1        0.0997
     16 N           4.4458   -1.2630   25.5212 N.pl3   1  UNL1       -0.1923
     17 O          -0.1565    0.6406   20.8898 O.2     1  UNL1       -0.2701
     18 C           0.4870    1.4601   21.9689 C.2     1  UNL1        0.2461
     19 N           0.1627    2.9190   22.0970 N.am    1  UNL1       -0.2956
     20 H           0.5851    3.4569   22.8052 H       1  UNL1        0.1501
     21 C          -0.8051    3.5585   21.1460 C.3     1  UNL1        0.1369
     22 C          -2.2489    3.6999   21.5274 C.ar    1  UNL1        0.0893
     23 N          -3.2915    2.8706   20.8381 N.ar    1  UNL1       -0.2457
     24 C          -4.7352    3.0120   21.2194 C.ar    1  UNL1        0.1024
     25 C          -5.1365    3.9828   22.2902 C.ar    1  UNL1        0.0913
     26 C          -4.0939    4.8121   22.9796 C.ar    1  UNL1        0.0181
     27 C          -2.6501    4.6707   22.5982 C.ar    1  UNL1        0.0728
     28 CL         -1.6075    5.5000   23.2876 Cl      1  UNL1       -0.0810
     29 C          -6.5802    4.1242   22.6716 C.3     1  UNL1        0.4200
     30 F          -8.0240    4.2656   23.0531 F       1  UNL1       -0.1658
     31 F          -6.9483    4.2690   21.2247 F       1  UNL1       -0.1658
     32 F          -6.2122    3.9794   24.1186 F       1  UNL1       -0.1658
     33 C           6.1656   -3.1717   24.7836 C.3     1  UNL1        0.0203
     34 C           7.6266   -3.5094   24.8205 C.3     1  UNL1        0.0018
     35 C           6.6087   -4.5396   25.2109 C.3     1  UNL1        0.0018
     36 S           4.8155   -1.1615   26.9713 S.O2    1  UNL1        0.0765
     37 O           6.0204   -0.3457   26.6069 O.2     1  UNL1       -0.1497
     38 O           3.6107   -1.9774   27.3356 O.2     1  UNL1       -0.1497
     39 C           5.1853   -1.0600   28.4214 C.ar    1  UNL1        0.1256
     40 C           6.5608   -1.4517   28.8739 C.ar    1  UNL1        0.0225
     41 C           6.9305   -1.3502   30.3241 C.ar    1  UNL1        0.0310
     42 C           5.9249   -0.8571   31.3218 C.ar    1  UNL1        0.1402
     43 F           6.2946   -0.7556   32.7720 F       1  UNL1       -0.2042
     44 C           4.5493   -0.4654   30.8693 C.ar    1  UNL1        0.0310
     45 C           4.1796   -0.5669   29.4192 C.ar    1  UNL1        0.0225
@<TRIPOS>BOND
     1    17    18    2
     2    18    19   am
     3    19    21    1
     4    21    22    1
     5    22    23   ar
     6    23    24   ar
     7    24    25   ar
     8    25    29    1
     9    29    30    1
    10    29    31    1
    11    29    32    1
    12    25    26   ar
    13    26    27   ar
    14    27    28    1
    15    18     1    1
    16     1     2   ar
    17     2     3   ar
    18     3     4   ar
    19     4     5   ar
    20     5     6   ar
    21     5     7    1
    22     7     8    1
    23     8     9    1
    24     9    10    1
    25    10    11    2
    26    10    12    2
    27    10    13    1
    28    13    14    1
    29     7    15    1
    30    15    33    1
    31    33    34    1
    32    34    35    1
    33    15    16    1
    34    16    36    1
    35    36    37    2
    36    36    38    2
    37    36    39    1
    38    39    40   ar
    39    40    41   ar
    40    41    42   ar
    41    42    43    1
    42    42    44   ar
    43    44    45   ar
    44    27    22   ar
    45     6     1   ar
    46    14     7    1
    47    35    33    1
    48    45    39   ar
    49    16     4    1
    50    19    20    1
@<TRIPOS>MOLECULE
*****
 45 50 0 0 0
SMALL
GASTEIGER

@<TRIPOS>ATOM
      1 C           0.0298    1.7115   27.5145 C.ar    1  UNL1        0.0531
      2 C           1.1958    1.1814   26.7339 C.ar    1  UNL1        0.0058
      3 C           1.2512    1.3709   25.2469 C.ar    1  UNL1        0.0160
      4 C           0.1407    2.0904   24.5406 C.ar    1  UNL1        0.0648
      5 C          -1.0254    2.6206   25.3213 C.ar    1  UNL1       -0.0061
      6 C          -1.0808    2.4311   26.8082 C.ar    1  UNL1        0.0015
      7 C          -1.9651    3.2835   24.3582 C.3     1  UNL1        0.0419
      8 C          -2.4239    3.3263   25.7856 C.3     1  UNL1        0.0311
      9 C          -3.7211    3.9926   26.1367 C.3     1  UNL1        0.1512
     10 S          -4.5594    4.6162   25.0604 S.O2    1  UNL1       -0.0100
     11 O          -5.6939    5.3422   24.4003 O.2     1  UNL1       -0.1730
     12 O          -5.4123    4.9111   26.2585 O.2     1  UNL1       -0.1730
     13 C          -4.1005    4.5734   23.6330 C.3     1  UNL1        0.1512
     14 C          -2.8033    3.9071   23.2819 C.3     1  UNL1        0.0311
     15 C          -1.3797    3.1631   22.9823 C.3     1  UNL1        0.0997
     16 N          -0.0784    2.4258   23.0950 N.pl3   1  UNL1       -0.1923
     17 O          -0.6327    0.2768   29.5767 O.2     1  UNL1       -0.2701
     18 C          -0.0257    1.5221   29.0014 C.2     1  UNL1        0.2461
     19 N           0.5258    2.5779   29.9131 N.am    1  UNL1       -0.2956
     20 H           0.9242    3.3952   29.5355 H       1  UNL1        0.1501
     21 C           0.4703    2.3884   31.4000 C.3     1  UNL1        0.1369
     22 C           1.6215    1.7487   32.1181 C.ar    1  UNL1        0.0893
     23 N           2.2679    0.5188   31.5528 N.ar    1  UNL1       -0.2457
     24 C           3.4190   -0.1209   32.2707 C.ar    1  UNL1        0.1024
     25 C           3.9239    0.4692   33.5541 C.ar    1  UNL1        0.0913
     26 C           3.2775    1.6991   34.1194 C.ar    1  UNL1        0.0181
     27 C           2.1263    2.3389   33.4014 C.ar    1  UNL1        0.0728
     28 CL          1.4799    3.5687   33.9667 Cl      1  UNL1       -0.0810
     29 C           5.0750   -0.1705   34.2720 C.3     1  UNL1        0.4200
     30 F           6.2262   -0.8102   34.9901 F       1  UNL1       -0.1658
     31 F           4.2770   -1.4310   34.4285 F       1  UNL1       -0.1658
     32 F           5.8731    1.0899   34.1156 F       1  UNL1       -0.1658
     33 C          -1.9889    3.6880   21.7160 C.3     1  UNL1        0.0203
     34 C          -2.1726    4.8003   20.7267 C.3     1  UNL1        0.0018
     35 C          -2.8604    3.4848   20.5122 C.3     1  UNL1        0.0018
     36 S           0.8423    2.0838   21.9613 S.O2    1  UNL1        0.0765
     37 O           1.6654    3.3011   22.2625 O.2     1  UNL1       -0.1497
     38 O           0.0192    0.8665   21.6601 O.2     1  UNL1       -0.1497
     39 C           1.7630    1.7418   20.8276 C.ar    1  UNL1        0.1256
     40 C           3.1998    2.1699   20.8730 C.ar    1  UNL1        0.0225
     41 C           4.1205    1.8279   19.7392 C.ar    1  UNL1        0.0310
     42 C           3.6044    1.0578   18.5600 C.ar    1  UNL1        0.1402
     43 F           4.5251    0.7159   17.4263 F       1  UNL1       -0.2042
     44 C           2.1674    0.6297   18.5146 C.ar    1  UNL1        0.0310
     45 C           1.2467    0.9717   19.6483 C.ar    1  UNL1        0.0225
@<TRIPOS>BOND
     1    17    18    2
     2    18    19   am
     3    19    21    1
     4    21    22    1
     5    22    23   ar
     6    23    24   ar
     7    24    25   ar
     8    25    29    1
     9    29    30    1
    10    29    31    1
    11    29    32    1
    12    25    26   ar
    13    26    27   ar
    14    27    28    1
    15    18     1    1
    16     1     2   ar
    17     2     3   ar
    18     3     4   ar
    19     4     5   ar
    20     5     6   ar
    21     5     7    1
    22     7     8    1
    23     8     9    1
    24     9    10    1
    25    10    11    2
    26    10    12    2
    27    10    13    1
    28    13    14    1
    29     7    15    1
    30    15    33    1
    31    33    34    1
    32    34    35    1
    33    15    16    1
    34    16    36    1
    35    36    37    2
    36    36    38    2
    37    36    39    1
    38    39    40   ar
    39    40    41   ar
    40    41    42   ar
    41    42    43    1
    42    42    44   ar
    43    44    45   ar
    44    27    22   ar
    45     6     1   ar
    46    14     7    1
    47    35    33    1
    48    45    39   ar
    49    16     4    1
    50    19    20    1
@<TRIPOS>MOLECULE
*****
 45 50 0 0 0
SMALL
GASTEIGER

@<TRIPOS>ATOM
      1 C           2.6968    0.5819   26.4857 C.ar    1  UNL1        0.0531
      2 C           2.0177    1.5288   27.4303 C.ar    1  UNL1        0.0058
      3 C           2.3701    1.5153   28.8883 C.ar    1  UNL1        0.0160
      4 C           3.4017    0.5550   29.4016 C.ar    1  UNL1        0.0648
      5 C           4.0809   -0.3920   28.4570 C.ar    1  UNL1       -0.0061
      6 C           3.7284   -0.3785   26.9991 C.ar    1  UNL1        0.0015
      7 C           5.0507   -1.2193   29.2476 C.3     1  UNL1        0.0419
      8 C           5.0207   -1.5467   27.7841 C.3     1  UNL1        0.0311
      9 C           5.9135   -2.6209   27.2375 C.3     1  UNL1        0.1512
     10 S           6.8364   -3.3678   28.1543 S.O2    1  UNL1       -0.0100
     11 O           7.8739   -4.3464   28.6189 O.2     1  UNL1       -0.1730
     12 O           7.1667   -4.0350   26.8522 O.2     1  UNL1       -0.1730
     13 C           6.8663   -3.0404   29.6178 C.3     1  UNL1        0.1512
     14 C           5.9735   -1.9661   30.1644 C.3     1  UNL1        0.0311
     15 C           4.9709   -0.7837   30.6808 C.3     1  UNL1        0.0997
     16 N           3.9518    0.3128   30.7760 N.pl3   1  UNL1       -0.1923
     17 O           1.1941    1.4267   24.5419 O.2     1  UNL1       -0.2701
     18 C           2.3444    0.5954   25.0278 C.2     1  UNL1        0.2461
     19 N           3.1421   -0.2223   24.0557 N.am    1  UNL1       -0.2956
     20 H           3.8971   -0.7679   24.3747 H       1  UNL1        0.1501
     21 C           2.7897   -0.2088   22.5978 C.3     1  UNL1        0.1369
     22 C           3.2036   -1.3492   21.7156 C.ar    1  UNL1        0.0893
     23 N           4.0784   -2.4393   22.2598 N.ar    1  UNL1       -0.2457
     24 C           4.4923   -3.5797   21.3777 C.ar    1  UNL1        0.1024
     25 C           4.0313   -3.6300   19.9512 C.ar    1  UNL1        0.0913
     26 C           3.1564   -2.5398   19.4068 C.ar    1  UNL1        0.0181
     27 C           2.7426   -1.3994   20.2891 C.ar    1  UNL1        0.0728
     28 CL          1.8677   -0.3093   19.7448 Cl      1  UNL1       -0.0810
     29 C           4.4451   -4.7703   19.0690 C.3     1  UNL1        0.4200
     30 F           4.8590   -5.9106   18.1868 F       1  UNL1       -0.1658
     31 F           3.5631   -5.6966   19.8525 F       1  UNL1       -0.1658
     32 F           5.3272   -3.8440   18.2854 F       1  UNL1       -0.1658
     33 C           5.7700   -1.3460   31.8188 C.3     1  UNL1        0.0203
     34 C           6.9478   -1.2647   32.7441 C.3     1  UNL1        0.0018
     35 C           5.9763   -2.4011   32.8649 C.3     1  UNL1        0.0018
     36 S           3.5528    1.0395   32.0260 S.O2    1  UNL1        0.0765
     37 O           4.6945    1.9937   31.8356 O.2     1  UNL1       -0.1497
     38 O           2.4112    0.0853   32.2163 O.2     1  UNL1       -0.1497
     39 C           3.1539    1.7663   33.2760 C.ar    1  UNL1        0.1256
     40 C           3.7065    1.3361   34.6025 C.ar    1  UNL1        0.0225
     41 C           3.3075    2.0628   35.8526 C.ar    1  UNL1        0.0310
     42 C           2.3559    3.2198   35.7762 C.ar    1  UNL1        0.1402
     43 F           1.9569    3.9465   37.0263 F       1  UNL1       -0.2042
     44 C           1.8032    3.6500   34.4497 C.ar    1  UNL1        0.0310
     45 C           2.2022    2.9233   33.1996 C.ar    1  UNL1        0.0225
@<TRIPOS>BOND
     1    17    18    2
     2    18    19   am
     3    19    21    1
     4    21    22    1
     5    22    23   ar
     6    23    24   ar
     7    24    25   ar
     8    25    29    1
     9    29    30    1
    10    29    31    1
    11    29    32    1
    12    25    26   ar
    13    26    27   ar
    14    27    28    1
    15    18     1    1
    16     1     2   ar
    17     2     3   ar
    18     3     4   ar
    19     4     5   ar
    20     5     6   ar
    21     5     7    1
    22     7     8    1
    23     8     9    1
    24     9    10    1
    25    10    11    2
    26    10    12    2
    27    10    13    1
    28    13    14    1
    29     7    15    1
    30    15    33    1
    31    33    34    1
    32    34    35    1
    33    15    16    1
    34    16    36    1
    35    36    37    2
    36    36    38    2
    37    36    39    1
    38    39    40   ar
    39    40    41   ar
    40    41    42   ar
    41    42    43    1
    42    42    44   ar
    43    44    45   ar
    44    27    22   ar
    45     6     1   ar
    46    14     7    1
    47    35    33    1
    48    45    39   ar
    49    16     4    1
    50    19    20    1
@<TRIPOS>MOLECULE
*****
 45 50 0 0 0
SMALL
GASTEIGER

@<TRIPOS>ATOM
      1 C           3.0984    0.5607   27.2638 C.ar    1  UNL1        0.0531
      2 C           2.5820    1.3120   28.4550 C.ar    1  UNL1        0.0058
      3 C           3.0741    0.9680   29.8296 C.ar    1  UNL1        0.0160
      4 C           4.0824   -0.1272   30.0130 C.ar    1  UNL1        0.0648
      5 C           4.5988   -0.8785   28.8218 C.ar    1  UNL1       -0.0061
      6 C           4.1068   -0.5345   27.4471 C.ar    1  UNL1        0.0015
      7 C           5.5823   -1.9009   29.3092 C.3     1  UNL1        0.0419
      8 C           5.3864   -1.9031   27.8221 C.3     1  UNL1        0.0311
      9 C           6.1452   -2.8744   26.9672 C.3     1  UNL1        0.1512
     10 S           7.0999   -3.8433   27.5994 S.O2    1  UNL1       -0.0100
     11 O           8.1081   -4.9461   27.7309 O.2     1  UNL1       -0.1730
     12 O           7.2541   -4.2286   26.1579 O.2     1  UNL1       -0.1730
     13 C           7.2958   -3.8410   29.0865 C.3     1  UNL1        0.1512
     14 C           6.5370   -2.8698   29.9414 C.3     1  UNL1        0.0311
     15 C           5.6737   -1.7814   30.8017 C.3     1  UNL1        0.0997
     16 N           4.7468   -0.6853   31.2367 N.pl3   1  UNL1       -0.1923
     17 O           2.1975    2.3121   25.5692 O.2     1  UNL1       -0.2701
     18 C           2.6064    0.9047   25.8892 C.2     1  UNL1        0.2461
     19 N           2.5233   -0.1586   24.8344 N.am    1  UNL1       -0.2956
     20 H           2.7916   -1.0823   25.0444 H       1  UNL1        0.1501
     21 C           2.0313    0.1853   23.4598 C.3     1  UNL1        0.1369
     22 C           2.6357   -0.4795   22.2587 C.ar    1  UNL1        0.0893
     23 N           3.9853   -1.1265   22.3593 N.ar    1  UNL1       -0.2457
     24 C           4.5898   -1.7913   21.1583 C.ar    1  UNL1        0.1024
     25 C           3.8448   -1.8091   19.8565 C.ar    1  UNL1        0.0913
     26 C           2.4951   -1.1621   19.7558 C.ar    1  UNL1        0.0181
     27 C           1.8907   -0.4973   20.9570 C.ar    1  UNL1        0.0728
     28 CL          0.5411    0.1497   20.8563 Cl      1  UNL1       -0.0810
     29 C           4.4492   -2.4739   18.6555 C.3     1  UNL1        0.4200
     30 F           5.0537   -3.1387   17.4544 F       1  UNL1       -0.1658
     31 F           3.4711   -3.6034   18.7884 F       1  UNL1       -0.1658
     32 F           5.4273   -1.3445   18.5225 F       1  UNL1       -0.1658
     33 C           6.5400   -2.6124   31.7012 C.3     1  UNL1        0.0203
     34 C           6.7717   -3.8740   32.4787 C.3     1  UNL1        0.0018
     35 C           7.8086   -2.7901   32.4816 C.3     1  UNL1        0.0018
     36 S           4.5234   -0.2276   32.6475 S.O2    1  UNL1        0.0765
     37 O           3.5361   -1.3384   32.8515 O.2     1  UNL1       -0.1497
     38 O           5.5106    0.8832   32.4435 O.2     1  UNL1       -0.1497
     39 C           4.3000    0.2301   34.0584 C.ar    1  UNL1        0.1256
     40 C           4.8859   -0.5461   35.2004 C.ar    1  UNL1        0.0225
     41 C           4.6625   -0.0884   36.6113 C.ar    1  UNL1        0.0310
     42 C           3.8531    1.1455   36.8802 C.ar    1  UNL1        0.1402
     43 F           3.6297    1.6032   38.2911 F       1  UNL1       -0.2042
     44 C           3.2671    1.9218   35.7382 C.ar    1  UNL1        0.0310
     45 C           3.4905    1.4641   34.3273 C.ar    1  UNL1        0.0225
@<TRIPOS>BOND
     1    17    18    2
     2    18    19   am
     3    19    21    1
     4    21    22    1
     5    22    23   ar
     6    23    24   ar
     7    24    25   ar
     8    25    29    1
     9    29    30    1
    10    29    31    1
    11    29    32    1
    12    25    26   ar
    13    26    27   ar
    14    27    28    1
    15    18     1    1
    16     1     2   ar
    17     2     3   ar
    18     3     4   ar
    19     4     5   ar
    20     5     6   ar
    21     5     7    1
    22     7     8    1
    23     8     9    1
    24     9    10    1
    25    10    11    2
    26    10    12    2
    27    10    13    1
    28    13    14    1
    29     7    15    1
    30    15    33    1
    31    33    34    1
    32    34    35    1
    33    15    16    1
    34    16    36    1
    35    36    37    2
    36    36    38    2
    37    36    39    1
    38    39    40   ar
    39    40    41   ar
    40    41    42   ar
    41    42    43    1
    42    42    44   ar
    43    44    45   ar
    44    27    22   ar
    45     6     1   ar
    46    14     7    1
    47    35    33    1
    48    45    39   ar
    49    16     4    1
    50    19    20    1
@<TRIPOS>MOLECULE
*****
 45 50 0 0 0
SMALL
GASTEIGER

@<TRIPOS>ATOM
      1 C           5.3718   -2.2934   25.5022 C.ar    1  UNL1        0.0531
      2 C           4.3029   -1.2461   25.6046 C.ar    1  UNL1        0.0058
      3 C           3.9182   -0.6957   26.9459 C.ar    1  UNL1        0.0160
      4 C           4.6025   -1.1926   28.1847 C.ar    1  UNL1        0.0648
      5 C           5.6715   -2.2399   28.0824 C.ar    1  UNL1       -0.0061
      6 C           6.0562   -2.7903   26.7411 C.ar    1  UNL1        0.0015
      7 C           6.1663   -2.5342   29.4675 C.3     1  UNL1        0.0419
      8 C           6.8450   -3.3331   28.3946 C.3     1  UNL1        0.0311
      9 C           7.9151   -4.3196   28.7576 C.3     1  UNL1        0.1512
     10 S           8.3065   -4.5071   30.1934 S.O2    1  UNL1       -0.0100
     11 O           9.0197   -5.0359   31.4024 O.2     1  UNL1       -0.1730
     12 O           9.2328   -5.4897   29.5404 O.2     1  UNL1       -0.1730
     13 C           7.6279   -3.7081   31.2663 C.3     1  UNL1        0.1512
     14 C           6.5578   -2.7217   30.9033 C.3     1  UNL1        0.0311
     15 C           5.4031   -1.6687   30.4260 C.3     1  UNL1        0.0997
     16 N           4.4367   -0.8396   29.6332 N.pl3   1  UNL1       -0.1923
     17 O           7.2045   -2.9843   23.7951 O.2     1  UNL1       -0.2701
     18 C           5.7565   -2.8438   24.1609 C.2     1  UNL1        0.2461
     19 N           4.6933   -3.2537   23.1854 N.am    1  UNL1       -0.2956
     20 H           3.7430   -3.1615   23.4255 H       1  UNL1        0.1501
     21 C           5.0780   -3.8041   21.8441 C.3     1  UNL1        0.1369
     22 C           5.2611   -2.8785   20.6781 C.ar    1  UNL1        0.0893
     23 N           6.1051   -1.6471   20.8233 N.ar    1  UNL1       -0.2457
     24 C           6.2882   -0.7214   19.6573 C.ar    1  UNL1        0.1024
     25 C           5.6273   -1.0272   18.3459 C.ar    1  UNL1        0.0913
     26 C           4.7832   -2.2588   18.2007 C.ar    1  UNL1        0.0181
     27 C           4.6001   -3.1844   19.3667 C.ar    1  UNL1        0.0728
     28 CL          3.7561   -4.4158   19.2215 Cl      1  UNL1       -0.0810
     29 C           5.8103   -0.1017   17.1799 C.3     1  UNL1        0.4200
     30 F           5.9935    0.8240   16.0139 F       1  UNL1       -0.1658
     31 F           4.3862   -0.3352   16.7709 F       1  UNL1       -0.1658
     32 F           7.2345    0.1319   17.5888 F       1  UNL1       -0.1658
     33 C           5.5762   -1.6378   31.9156 C.3     1  UNL1        0.0203
     34 C           6.2749   -1.1054   33.1314 C.3     1  UNL1        0.0018
     35 C           5.1772   -2.1168   33.2799 C.3     1  UNL1        0.0018
     36 S           3.4735    0.1659   30.1909 S.O2    1  UNL1        0.0765
     37 O           4.5165    1.2363   30.0624 O.2     1  UNL1       -0.1497
     38 O           2.4305   -0.9044   30.3195 O.2     1  UNL1       -0.1497
     39 C           2.5103    1.1715   30.7487 C.ar    1  UNL1        0.1256
     40 C           2.4608    1.4231   32.2266 C.ar    1  UNL1        0.0225
     41 C           1.4975    2.4287   32.7843 C.ar    1  UNL1        0.0310
     42 C           0.5839    3.1827   31.8642 C.ar    1  UNL1        0.1402
     43 F          -0.3794    4.1882   32.4219 F       1  UNL1       -0.2042
     44 C           0.6334    2.9311   30.3862 C.ar    1  UNL1        0.0310
     45 C           1.5966    1.9255   29.8284 C.ar    1  UNL1        0.0225
@<TRIPOS>BOND
     1    17    18    2
     2    18    19   am
     3    19    21    1
     4    21    22    1
     5    22    23   ar
     6    23    24   ar
     7    24    25   ar
     8    25    29    1
     9    29    30    1
    10    29    31    1
    11    29    32    1
    12    25    26   ar
    13    26    27   ar
    14    27    28    1
    15    18     1    1
    16     1     2   ar
    17     2     3   ar
    18     3     4   ar
    19     4     5   ar
    20     5     6   ar
    21     5     7    1
    22     7     8    1
    23     8     9    1
    24     9    10    1
    25    10    11    2
    26    10    12    2
    27    10    13    1
    28    13    14    1
    29     7    15    1
    30    15    33    1
    31    33    34    1
    32    34    35    1
    33    15    16    1
    34    16    36    1
    35    36    37    2
    36    36    38    2
    37    36    39    1
    38    39    40   ar
    39    40    41   ar
    40    41    42   ar
    41    42    43    1
    42    42    44   ar
    43    44    45   ar
    44    27    22   ar
    45     6     1   ar
    46    14     7    1
    47    35    33    1
    48    45    39   ar
    49    16     4    1
    50    19    20    1
@<TRIPOS>MOLECULE
*****
 45 50 0 0 0
SMALL
GASTEIGER

@<TRIPOS>ATOM
      1 C           4.4332   -0.7502   34.1479 C.ar    1  UNL1        0.0531
      2 C           4.9040   -0.3964   35.5274 C.ar    1  UNL1        0.0058
      3 C           4.5169    0.9181   36.1378 C.ar    1  UNL1        0.0160
      4 C           3.6591    1.8785   35.3687 C.ar    1  UNL1        0.0648
      5 C           3.1883    1.5246   33.9891 C.ar    1  UNL1       -0.0061
      6 C           3.5753    0.2102   33.3787 C.ar    1  UNL1        0.0015
      7 C           2.3592    2.6644   33.4757 C.3     1  UNL1        0.0419
      8 C           2.4903    1.5226   32.5118 C.3     1  UNL1        0.0311
      9 C           1.8204    1.5919   31.1715 C.3     1  UNL1        0.1512
     10 S           1.0195    2.8030   30.7951 S.O2    1  UNL1       -0.0100
     11 O           0.1604    3.7292   29.9863 O.2     1  UNL1       -0.1730
     12 O           0.8522    1.9829   29.5504 O.2     1  UNL1       -0.1730
     13 C           0.8884    3.9448   31.7590 C.3     1  UNL1        0.1512
     14 C           1.5583    3.8755   33.0992 C.3     1  UNL1        0.0311
     15 C           2.3177    3.7227   34.5380 C.3     1  UNL1        0.0997
     16 N           3.1210    3.2370   35.7079 N.pl3   1  UNL1       -0.1923
     17 O           3.8785   -3.2301   33.6069 O.2     1  UNL1       -0.2701
     18 C           4.8202   -2.0646   33.5374 C.2     1  UNL1        0.2461
     19 N           6.1490   -2.2135   32.8575 N.am    1  UNL1       -0.2956
     20 H           6.7670   -1.4486   32.8119 H       1  UNL1        0.1501
     21 C           6.5360   -3.5279   32.2471 C.3     1  UNL1        0.1369
     22 C           6.5360   -3.6913   30.7560 C.ar    1  UNL1        0.0893
     23 N           6.1609   -2.5367   29.8750 N.ar    1  UNL1       -0.2457
     24 C           6.1609   -2.7000   28.3839 C.ar    1  UNL1        0.1024
     25 C           6.5360   -4.0181   27.7738 C.ar    1  UNL1        0.0913
     26 C           6.9111   -5.1728   28.6549 C.ar    1  UNL1        0.0181
     27 C           6.9111   -5.0093   30.1460 C.ar    1  UNL1        0.0728
     28 CL          7.2861   -6.1639   31.0270 Cl      1  UNL1       -0.0810
     29 C           6.5360   -4.1815   26.2828 C.3     1  UNL1        0.4200
     30 F           6.5360   -4.3449   24.7918 F       1  UNL1       -0.1658
     31 F           6.6886   -2.6981   26.1202 F       1  UNL1       -0.1658
     32 F           6.3834   -5.6649   26.4453 F       1  UNL1       -0.1658
     33 C           1.5989    5.0361   34.4463 C.3     1  UNL1        0.0203
     34 C           1.6024    6.4981   34.1111 C.3     1  UNL1        0.0018
     35 C           0.3506    5.8489   34.6226 C.3     1  UNL1        0.0018
     36 S           3.3467    3.9794   36.9915 S.O2    1  UNL1        0.0765
     37 O           4.6051    4.5705   36.4284 O.2     1  UNL1       -0.1497
     38 O           2.0882    3.3884   37.5545 O.2     1  UNL1       -0.1497
     39 C           3.5723    4.7219   38.2752 C.ar    1  UNL1        0.1256
     40 C           3.6850    3.9686   39.5674 C.ar    1  UNL1        0.0225
     41 C           3.9106    4.7111   40.8511 C.ar    1  UNL1        0.0310
     42 C           4.0237    6.2068   40.8426 C.ar    1  UNL1        0.1402
     43 F           4.2493    6.9492   42.1263 F       1  UNL1       -0.2042
     44 C           3.9111    6.9601   39.5503 C.ar    1  UNL1        0.0310
     45 C           3.6854    6.2176   38.2666 C.ar    1  UNL1        0.0225
@<TRIPOS>BOND
     1    17    18    2
     2    18    19   am
     3    19    21    1
     4    21    22    1
     5    22    23   ar
     6    23    24   ar
     7    24    25   ar
     8    25    29    1
     9    29    30    1
    10    29    31    1
    11    29    32    1
    12    25    26   ar
    13    26    27   ar
    14    27    28    1
    15    18     1    1
    16     1     2   ar
    17     2     3   ar
    18     3     4   ar
    19     4     5   ar
    20     5     6   ar
    21     5     7    1
    22     7     8    1
    23     8     9    1
    24     9    10    1
    25    10    11    2
    26    10    12    2
    27    10    13    1
    28    13    14    1
    29     7    15    1
    30    15    33    1
    31    33    34    1
    32    34    35    1
    33    15    16    1
    34    16    36    1
    35    36    37    2
    36    36    38    2
    37    36    39    1
    38    39    40   ar
    39    40    41   ar
    40    41    42   ar
    41    42    43    1
    42    42    44   ar
    43    44    45   ar
    44    27    22   ar
    45     6     1   ar
    46    14     7    1
    47    35    33    1
    48    45    39   ar
    49    16     4    1
    50    19    20    1
