@<TRIPOS>MOLECULE
*****
 35 38 0 0 0
SMALL
GASTEIGER

@<TRIPOS>ATOM
      1 N         -15.3421   -5.8791   18.2098 N.am    1  UNL1       -0.2828
      2 C         -14.1929   -6.4789   18.9645 C.2     1  UNL1        0.2407
      3 O         -13.6655   -5.7986   20.1930 O.2     1  UNL1       -0.2733
      4 H         -15.6882   -6.3256   17.4036 H       1  UNL1        0.1549
      5 C         -17.9368   -3.3375   19.8093 C.ar    1  UNL1        0.0152
      6 C         -17.3149   -4.6176   19.3355 C.ar    1  UNL1        0.0158
      7 C         -15.9640   -4.5989   18.6837 C.ar    1  UNL1        0.0504
      8 C         -15.2350   -3.3002   18.5058 C.ar    1  UNL1        0.0147
      9 C         -15.8569   -2.0201   18.9797 C.ar    1  UNL1        0.0014
     10 C         -17.2078   -2.0388   19.6314 C.ar    1  UNL1        0.0012
     11 C         -15.1279   -0.7212   18.8018 C.ar    1  UNL1        0.0031
     12 C         -13.7126   -0.7174   18.3049 C.ar    1  UNL1        0.0207
     13 C         -12.9836    0.5815   18.1271 C.ar    1  UNL1        0.0989
     14 N         -13.6700    1.8765   18.4461 N.ar    1  UNL1       -0.2423
     15 C         -15.0853    1.8727   18.9430 C.ar    1  UNL1        0.0989
     16 C         -15.8142    0.5738   19.1209 C.ar    1  UNL1        0.0207
     17 O         -20.3113   -4.3670   20.0364 O.co2   1  UNL1       -0.5446
     18 C         -19.2876   -3.3562   20.4611 C.2     1  UNL1        0.0729
     19 O         -19.6149   -2.3641   21.5374 O.co2   1  UNL1       -0.5446
     20 C         -13.5710   -7.7591   18.4907 C.3     1  UNL1        0.1365
     21 N         -14.1529   -9.0762   18.9110 N.3     1  UNL1       -0.2860
     22 H         -14.3492   -9.0062   19.9095 H       1  UNL1        0.1240
     23 C         -15.4036   -9.5860   18.2585 C.3     1  UNL1        0.1160
     24 C         -16.7447   -9.2389   18.8339 C.ar    1  UNL1        0.0820
     25 C         -18.0634   -9.8089   18.4026 C.ar    1  UNL1        0.0530
     26 S         -19.1362   -9.1831   19.2437 S.2     1  UNL1       -0.0643
     27 C         -18.4805   -8.2264   20.1949 C.ar    1  UNL1        0.1341
     28 N         -17.0024   -8.2609   19.9415 N.ar    1  UNL1       -0.2392
     29 C         -12.3672   -7.7221   17.5965 C.3     1  UNL1        0.0514
     30 C         -11.4513   -6.5343   17.6204 C.ar    1  UNL1       -0.0203
     31 C         -10.5150   -6.3323   18.7747 C.ar    1  UNL1       -0.0042
     32 C          -9.5992   -5.1446   18.7986 C.ar    1  UNL1       -0.0003
     33 C          -9.6198   -4.1589   17.6682 C.ar    1  UNL1       -0.0000
     34 C         -10.5561   -4.3609   16.5139 C.ar    1  UNL1       -0.0003
     35 C         -11.4719   -5.5486   16.4900 C.ar    1  UNL1       -0.0042
@<TRIPOS>UNITY_ATOM_ATTR
17 1
charge -1
@<TRIPOS>BOND
     1    17    18   ar
     2    18    19   ar
     3    18     5    1
     4     5     6   ar
     5     6     7   ar
     6     7     1    1
     7     1     2   am
     8     2     3    2
     9     2    20    1
    10    20    29    1
    11    29    30    1
    12    30    31   ar
    13    31    32   ar
    14    32    33   ar
    15    33    34   ar
    16    34    35   ar
    17    20    21    1
    18    21    23    1
    19    23    24    1
    20    24    25   ar
    21    25    26   ar
    22    26    27   ar
    23    27    28   ar
    24     7     8   ar
    25     8     9   ar
    26     9    11    1
    27    11    12   ar
    28    12    13   ar
    29    13    14   ar
    30    14    15   ar
    31    15    16   ar
    32     9    10   ar
    33    10     5   ar
    34    35    30   ar
    35    28    24   ar
    36    16    11   ar
    37     1     4    1
    38    21    22    1
@<TRIPOS>MOLECULE
*****
 35 38 0 0 0
SMALL
GASTEIGER

@<TRIPOS>ATOM
      1 N           5.0389   -3.4231   23.8941 N.am    1  UNL1       -0.2828
      2 C           6.0239   -2.6050   24.6755 C.2     1  UNL1        0.2407
      3 O           6.4744   -1.2731   24.1529 O.2     1  UNL1       -0.2733
      4 H           4.7433   -4.2973   24.2371 H       1  UNL1        0.1549
      5 C           4.4403   -2.9950   19.9943 C.ar    1  UNL1        0.0152
      6 C           4.9748   -3.5089   21.2982 C.ar    1  UNL1        0.0158
      7 C           4.5044   -2.9092   22.5902 C.ar    1  UNL1        0.0504
      8 C           3.4995   -1.7956   22.5782 C.ar    1  UNL1        0.0147
      9 C           2.9651   -1.2818   21.2742 C.ar    1  UNL1        0.0014
     10 C           3.4355   -1.8815   19.9823 C.ar    1  UNL1        0.0012
     11 C           1.9601   -0.1682   21.2622 C.ar    1  UNL1        0.0031
     12 C           1.8465    0.7523   22.4411 C.ar    1  UNL1        0.0207
     13 C           0.8415    1.8659   22.4290 C.ar    1  UNL1        0.0989
     14 N          -0.0497    2.0590   21.2381 N.ar    1  UNL1       -0.2423
     15 C           0.0640    1.1384   20.0591 C.ar    1  UNL1        0.0989
     16 C           1.0689    0.0249   20.0712 C.ar    1  UNL1        0.0207
     17 O           4.6521   -5.0430   18.4097 O.co2   1  UNL1       -0.5446
     18 C           4.9107   -3.5947   18.7024 C.2     1  UNL1        0.0729
     19 O           5.6397   -2.7462   17.7031 O.co2   1  UNL1       -0.5446
     20 C           6.5585   -3.1189   25.9794 C.3     1  UNL1        0.1365
     21 N           5.7351   -2.9979   27.2274 N.3     1  UNL1       -0.2860
     22 H           5.3304   -3.9174   27.4035 H       1  UNL1        0.1240
     23 C           6.3763   -2.5545   28.5089 C.3     1  UNL1        0.1160
     24 C           6.6197   -3.5458   29.6079 C.ar    1  UNL1        0.0820
     25 C           6.8519   -5.0174   29.4325 C.ar    1  UNL1        0.0530
     26 S           7.0494   -5.6207   30.7915 S.2     1  UNL1       -0.0643
     27 C           6.9393   -4.5221   31.8069 C.ar    1  UNL1        0.1341
     28 N           6.6738   -3.2397   31.0754 N.ar    1  UNL1       -0.2392
     29 C           7.9163   -3.7537   26.0354 C.3     1  UNL1        0.0514
     30 C           8.1918   -5.0053   25.2558 C.ar    1  UNL1       -0.0203
     31 C           8.8851   -4.9246   23.9281 C.ar    1  UNL1       -0.0042
     32 C           9.1606   -6.1761   23.1485 C.ar    1  UNL1       -0.0003
     33 C           8.7428   -7.5083   23.6967 C.ar    1  UNL1       -0.0000
     34 C           8.0496   -7.5891   25.0244 C.ar    1  UNL1       -0.0003
     35 C           7.7741   -6.3375   25.8040 C.ar    1  UNL1       -0.0042
@<TRIPOS>UNITY_ATOM_ATTR
17 1
charge -1
@<TRIPOS>BOND
     1    17    18   ar
     2    18    19   ar
     3    18     5    1
     4     5     6   ar
     5     6     7   ar
     6     7     1    1
     7     1     2   am
     8     2     3    2
     9     2    20    1
    10    20    29    1
    11    29    30    1
    12    30    31   ar
    13    31    32   ar
    14    32    33   ar
    15    33    34   ar
    16    34    35   ar
    17    20    21    1
    18    21    23    1
    19    23    24    1
    20    24    25   ar
    21    25    26   ar
    22    26    27   ar
    23    27    28   ar
    24     7     8   ar
    25     8     9   ar
    26     9    11    1
    27    11    12   ar
    28    12    13   ar
    29    13    14   ar
    30    14    15   ar
    31    15    16   ar
    32     9    10   ar
    33    10     5   ar
    34    35    30   ar
    35    28    24   ar
    36    16    11   ar
    37     1     4    1
    38    21    22    1
@<TRIPOS>MOLECULE
*****
 35 38 0 0 0
SMALL
GASTEIGER

@<TRIPOS>ATOM
      1 N           4.9973   -3.3993   24.1051 N.am    1  UNL1       -0.2828
      2 C           5.9945   -2.5730   24.8619 C.2     1  UNL1        0.2407
      3 O           6.4988   -1.2861   24.2789 O.2     1  UNL1       -0.2733
      4 H           4.6664   -4.2439   24.4877 H       1  UNL1        0.1549
      5 C           4.4520   -3.1885   20.1797 C.ar    1  UNL1        0.0152
      6 C           4.9448   -3.6489   21.5195 C.ar    1  UNL1        0.0158
      7 C           4.5044   -2.9388   22.7652 C.ar    1  UNL1        0.0504
      8 C           3.5712   -1.7683   22.6712 C.ar    1  UNL1        0.0147
      9 C           3.0784   -1.3079   21.3314 C.ar    1  UNL1        0.0014
     10 C           3.5188   -2.0180   20.0857 C.ar    1  UNL1        0.0012
     11 C           2.1451   -0.1373   21.2373 C.ar    1  UNL1        0.0031
     12 C           1.0134   -0.1576   20.2530 C.ar    1  UNL1        0.0207
     13 C           0.0801    1.0130   20.1589 C.ar    1  UNL1        0.0989
     14 N           0.2786    2.2039   21.0491 N.ar    1  UNL1       -0.2423
     15 C           1.4104    2.2241   22.0334 C.ar    1  UNL1        0.0989
     16 C           2.3436    1.0536   22.1275 C.ar    1  UNL1        0.0207
     17 O           4.7475   -5.3878   18.8286 O.co2   1  UNL1       -0.5446
     18 C           4.8924   -3.8986   18.9340 C.2     1  UNL1        0.0729
     19 O           5.4777   -3.1194   17.7937 O.co2   1  UNL1       -0.5446
     20 C           6.4874   -3.0334   26.2017 C.3     1  UNL1        0.1365
     21 N           5.6618   -2.7874   27.4297 N.3     1  UNL1       -0.2860
     22 H           6.0939   -3.3179   28.1861 H       1  UNL1        0.1240
     23 C           5.4697   -1.3888   27.9365 C.3     1  UNL1        0.1160
     24 C           4.2169   -1.0248   28.6768 C.ar    1  UNL1        0.0820
     25 C           4.1299   -0.6274   30.1206 C.ar    1  UNL1        0.0530
     26 S           2.6904   -0.3514   30.4395 S.2     1  UNL1       -0.0643
     27 C           1.8878   -0.5781   29.1926 C.ar    1  UNL1        0.1341
     28 N           2.8312   -0.9943   28.1033 N.ar    1  UNL1       -0.2392
     29 C           7.8059   -3.7398   26.3135 C.3     1  UNL1        0.0514
     30 C           8.0597   -4.9849   25.5163 C.ar    1  UNL1       -0.0203
     31 C           7.5639   -6.3095   26.0161 C.ar    1  UNL1       -0.0042
     32 C           7.8177   -7.5545   25.2190 C.ar    1  UNL1       -0.0003
     33 C           8.5671   -7.4750   23.9221 C.ar    1  UNL1       -0.0000
     34 C           9.0628   -6.1504   23.4223 C.ar    1  UNL1       -0.0003
     35 C           8.8091   -4.9054   24.2195 C.ar    1  UNL1       -0.0042
@<TRIPOS>UNITY_ATOM_ATTR
17 1
charge -1
@<TRIPOS>BOND
     1    17    18   ar
     2    18    19   ar
     3    18     5    1
     4     5     6   ar
     5     6     7   ar
     6     7     1    1
     7     1     2   am
     8     2     3    2
     9     2    20    1
    10    20    29    1
    11    29    30    1
    12    30    31   ar
    13    31    32   ar
    14    32    33   ar
    15    33    34   ar
    16    34    35   ar
    17    20    21    1
    18    21    23    1
    19    23    24    1
    20    24    25   ar
    21    25    26   ar
    22    26    27   ar
    23    27    28   ar
    24     7     8   ar
    25     8     9   ar
    26     9    11    1
    27    11    12   ar
    28    12    13   ar
    29    13    14   ar
    30    14    15   ar
    31    15    16   ar
    32     9    10   ar
    33    10     5   ar
    34    35    30   ar
    35    28    24   ar
    36    16    11   ar
    37     1     4    1
    38    21    22    1
@<TRIPOS>MOLECULE
*****
 35 38 0 0 0
SMALL
GASTEIGER

@<TRIPOS>ATOM
      1 N         -15.3824   -5.3959   17.7027 N.am    1  UNL1       -0.2828
      2 C         -14.4565   -6.2547   18.5121 C.2     1  UNL1        0.2407
      3 O         -13.9614   -5.7752   19.8445 O.2     1  UNL1       -0.2733
      4 H         -15.7074   -5.7106   16.8283 H       1  UNL1        0.1549
      5 C         -17.4969   -2.6009   19.5647 C.ar    1  UNL1        0.0152
      6 C         -17.0661   -3.9392   19.0419 C.ar    1  UNL1        0.0158
      7 C         -15.8132   -4.0576   18.2256 C.ar    1  UNL1        0.0504
      8 C         -14.9911   -2.8377   17.9322 C.ar    1  UNL1        0.0147
      9 C         -15.4219   -1.4995   18.4551 C.ar    1  UNL1        0.0014
     10 C         -16.6748   -1.3811   19.2714 C.ar    1  UNL1        0.0012
     11 C         -14.5998   -0.2795   18.1618 C.ar    1  UNL1        0.0031
     12 C         -15.2519    1.0704   18.1130 C.ar    1  UNL1        0.0207
     13 C         -14.4298    2.2903   17.8197 C.ar    1  UNL1        0.0989
     14 N         -12.9556    2.1602   17.5751 N.ar    1  UNL1       -0.2423
     15 C         -12.3035    0.8102   17.6238 C.ar    1  UNL1        0.0989
     16 C         -13.1256   -0.4096   17.9172 C.ar    1  UNL1        0.0207
     17 O         -19.6300   -3.6803   20.5818 O.co2   1  UNL1       -0.5446
     18 C         -18.7498   -2.4825   20.3810 C.2     1  UNL1        0.0729
     19 O         -19.1224   -1.1664   20.9964 O.co2   1  UNL1       -0.5446
     20 C         -14.0257   -7.5930   17.9893 C.3     1  UNL1        0.1365
     21 N         -13.0908   -7.6756   16.8191 N.3     1  UNL1       -0.2860
     22 H         -13.2805   -6.8628   16.2328 H       1  UNL1        0.1240
     23 C         -11.6083   -7.7104   17.0446 C.3     1  UNL1        0.1160
     24 C         -10.8917   -6.4783   17.5120 C.ar    1  UNL1        0.0820
     25 C         -10.5194   -6.1591   18.9296 C.ar    1  UNL1        0.0530
     26 S          -9.8192   -4.8327   18.9375 S.2     1  UNL1       -0.0643
     27 C          -9.7586   -4.3321   17.5248 C.ar    1  UNL1        0.1341
     28 N         -10.4215   -5.3491   16.6438 N.ar    1  UNL1       -0.2392
     29 C         -14.5298   -8.8488   18.6366 C.3     1  UNL1        0.0514
     30 C         -16.0006   -9.0379   18.8624 C.ar    1  UNL1       -0.0203
     31 C         -16.6986   -8.2674   19.9437 C.ar    1  UNL1       -0.0042
     32 C         -18.1694   -8.4565   20.1695 C.ar    1  UNL1       -0.0003
     33 C         -18.9422   -9.4160   19.3139 C.ar    1  UNL1       -0.0000
     34 C         -18.2442  -10.1864   18.2326 C.ar    1  UNL1       -0.0003
     35 C         -16.7735   -9.9974   18.0068 C.ar    1  UNL1       -0.0042
@<TRIPOS>UNITY_ATOM_ATTR
17 1
charge -1
@<TRIPOS>BOND
     1    17    18   ar
     2    18    19   ar
     3    18     5    1
     4     5     6   ar
     5     6     7   ar
     6     7     1    1
     7     1     2   am
     8     2     3    2
     9     2    20    1
    10    20    29    1
    11    29    30    1
    12    30    31   ar
    13    31    32   ar
    14    32    33   ar
    15    33    34   ar
    16    34    35   ar
    17    20    21    1
    18    21    23    1
    19    23    24    1
    20    24    25   ar
    21    25    26   ar
    22    26    27   ar
    23    27    28   ar
    24     7     8   ar
    25     8     9   ar
    26     9    11    1
    27    11    12   ar
    28    12    13   ar
    29    13    14   ar
    30    14    15   ar
    31    15    16   ar
    32     9    10   ar
    33    10     5   ar
    34    35    30   ar
    35    28    24   ar
    36    16    11   ar
    37     1     4    1
    38    21    22    1
@<TRIPOS>MOLECULE
*****
 35 38 0 0 0
SMALL
GASTEIGER

@<TRIPOS>ATOM
      1 N           3.7177   -1.4778   25.5621 N.am    1  UNL1       -0.2828
      2 C           4.6921   -0.6011   26.2914 C.2     1  UNL1        0.2407
      3 O           5.8460    0.0124   25.5549 O.2     1  UNL1       -0.2733
      4 H           2.9604   -1.8804   26.0454 H       1  UNL1        0.1549
      5 C           5.0563   -3.0428   22.1696 C.ar    1  UNL1        0.0152
      6 C           4.8768   -2.7794   23.6353 C.ar    1  UNL1        0.0158
      7 C           3.8973   -1.7411   24.0963 C.ar    1  UNL1        0.0504
      8 C           3.0973   -0.9662   23.0916 C.ar    1  UNL1        0.0147
      9 C           3.2768   -1.2296   21.6258 C.ar    1  UNL1        0.0014
     10 C           4.2564   -2.2678   21.1648 C.ar    1  UNL1        0.0012
     11 C           2.4768   -0.4546   20.6210 C.ar    1  UNL1        0.0031
     12 C           1.1316    0.0933   20.9951 C.ar    1  UNL1        0.0207
     13 C           0.3316    0.8683   19.9903 C.ar    1  UNL1        0.0989
     14 N           0.8769    1.0952   18.6115 N.ar    1  UNL1       -0.2423
     15 C           2.2223    0.5472   18.2375 C.ar    1  UNL1        0.0989
     16 C           3.0222   -0.2277   19.2422 C.ar    1  UNL1        0.0207
     17 O           6.9695   -4.7208   22.6929 O.co2   1  UNL1       -0.5446
     18 C           6.0359   -4.0810   21.7085 C.2     1  UNL1        0.0729
     19 O           6.0818   -4.4795   20.2632 O.co2   1  UNL1       -0.5446
     20 C           4.5126   -0.3377   27.7571 C.3     1  UNL1        0.1365
     21 N           5.1877   -1.2193   28.7657 N.3     1  UNL1       -0.2860
     22 H           4.4542   -1.5925   29.3683 H       1  UNL1        0.1240
     23 C           6.0097   -2.3880   28.3094 C.3     1  UNL1        0.1160
     24 C           6.4012   -3.4567   29.2865 C.ar    1  UNL1        0.0820
     25 C           6.7275   -3.2495   30.7359 C.ar    1  UNL1        0.0530
     26 S           7.0631   -4.5848   31.3310 S.2     1  UNL1       -0.0643
     27 C           6.9441   -5.6174   30.2494 C.ar    1  UNL1        0.1341
     28 N           6.5350   -4.9201   28.9859 N.ar    1  UNL1       -0.2392
     29 C           3.6581    0.8072   28.2143 C.3     1  UNL1        0.0514
     30 C           2.1649    0.7207   28.1007 C.ar    1  UNL1       -0.0203
     31 C           1.3907   -0.1551   29.0407 C.ar    1  UNL1       -0.0042
     32 C          -0.1025   -0.2417   28.9271 C.ar    1  UNL1       -0.0003
     33 C          -0.8214    0.5476   27.8736 C.ar    1  UNL1       -0.0000
     34 C          -0.0472    1.4235   26.9336 C.ar    1  UNL1       -0.0003
     35 C           1.4459    1.5100   27.0471 C.ar    1  UNL1       -0.0042
@<TRIPOS>UNITY_ATOM_ATTR
17 1
charge -1
@<TRIPOS>BOND
     1    17    18   ar
     2    18    19   ar
     3    18     5    1
     4     5     6   ar
     5     6     7   ar
     6     7     1    1
     7     1     2   am
     8     2     3    2
     9     2    20    1
    10    20    29    1
    11    29    30    1
    12    30    31   ar
    13    31    32   ar
    14    32    33   ar
    15    33    34   ar
    16    34    35   ar
    17    20    21    1
    18    21    23    1
    19    23    24    1
    20    24    25   ar
    21    25    26   ar
    22    26    27   ar
    23    27    28   ar
    24     7     8   ar
    25     8     9   ar
    26     9    11    1
    27    11    12   ar
    28    12    13   ar
    29    13    14   ar
    30    14    15   ar
    31    15    16   ar
    32     9    10   ar
    33    10     5   ar
    34    35    30   ar
    35    28    24   ar
    36    16    11   ar
    37     1     4    1
    38    21    22    1
@<TRIPOS>MOLECULE
*****
 35 38 0 0 0
SMALL
GASTEIGER

@<TRIPOS>ATOM
      1 N         -15.9510   -3.3684   18.5407 N.am    1  UNL1       -0.2828
      2 C         -16.5076   -3.8492   19.8480 C.2     1  UNL1        0.2407
      3 O         -15.5798   -4.2338   20.9622 O.2     1  UNL1       -0.2733
      4 H         -16.5599   -3.1160   17.8095 H       1  UNL1        0.1549
      5 C         -12.3342   -1.8346   17.9780 C.ar    1  UNL1        0.0152
      6 C         -13.8186   -1.9308   18.1711 C.ar    1  UNL1        0.0158
      7 C         -14.4665   -3.2721   18.3476 C.ar    1  UNL1        0.0504
      8 C         -13.6301   -4.5171   18.3310 C.ar    1  UNL1        0.0147
      9 C         -12.1457   -4.4208   18.1379 C.ar    1  UNL1        0.0014
     10 C         -11.4978   -3.0795   17.9614 C.ar    1  UNL1        0.0012
     11 C         -11.3092   -5.6659   18.1212 C.ar    1  UNL1        0.0031
     12 C         -10.1563   -5.8075   19.0702 C.ar    1  UNL1        0.0207
     13 C          -9.3197   -7.0525   19.0535 C.ar    1  UNL1        0.0989
     14 N          -9.6363   -8.1559   18.0879 N.ar    1  UNL1       -0.2423
     15 C         -10.7893   -8.0142   17.1389 C.ar    1  UNL1        0.0989
     16 C         -11.6258   -6.7692   17.1556 C.ar    1  UNL1        0.0207
     17 O         -12.3967    0.7481   18.2534 O.co2   1  UNL1       -0.5446
     18 C         -11.6863   -0.4933   17.8016 C.2     1  UNL1        0.0729
     19 O         -10.3279   -0.3934   17.1733 O.co2   1  UNL1       -0.5446
     20 C         -17.9920   -3.9455   20.0411 C.3     1  UNL1        0.1365
     21 N         -18.6970   -2.9682   20.9345 N.3     1  UNL1       -0.2860
     22 H         -18.0781   -2.7936   21.7263 H       1  UNL1        0.1240
     23 C         -19.1085   -1.6275   20.4025 C.3     1  UNL1        0.1160
     24 C         -18.0761   -0.6925   19.8459 C.ar    1  UNL1        0.0820
     25 C         -17.3108    0.3385   20.6214 C.ar    1  UNL1        0.0530
     26 S         -16.3894    1.0439   19.6709 S.2     1  UNL1       -0.0643
     27 C         -16.5854    0.4489   18.3079 C.ar    1  UNL1        0.1341
     28 N         -17.6278   -0.6242   18.4162 N.ar    1  UNL1       -0.2392
     29 C         -18.7714   -5.0189   19.3409 C.3     1  UNL1        0.0514
     30 C         -18.1200   -6.3321   19.0224 C.ar    1  UNL1       -0.0203
     31 C         -18.0214   -7.3954   20.0758 C.ar    1  UNL1       -0.0042
     32 C         -17.3701   -8.7085   19.7573 C.ar    1  UNL1       -0.0003
     33 C         -16.8174   -8.9583   18.3854 C.ar    1  UNL1       -0.0000
     34 C         -16.9161   -7.8950   17.3320 C.ar    1  UNL1       -0.0003
     35 C         -17.5674   -6.5819   17.6505 C.ar    1  UNL1       -0.0042
@<TRIPOS>UNITY_ATOM_ATTR
17 1
charge -1
@<TRIPOS>BOND
     1    17    18   ar
     2    18    19   ar
     3    18     5    1
     4     5     6   ar
     5     6     7   ar
     6     7     1    1
     7     1     2   am
     8     2     3    2
     9     2    20    1
    10    20    29    1
    11    29    30    1
    12    30    31   ar
    13    31    32   ar
    14    32    33   ar
    15    33    34   ar
    16    34    35   ar
    17    20    21    1
    18    21    23    1
    19    23    24    1
    20    24    25   ar
    21    25    26   ar
    22    26    27   ar
    23    27    28   ar
    24     7     8   ar
    25     8     9   ar
    26     9    11    1
    27    11    12   ar
    28    12    13   ar
    29    13    14   ar
    30    14    15   ar
    31    15    16   ar
    32     9    10   ar
    33    10     5   ar
    34    35    30   ar
    35    28    24   ar
    36    16    11   ar
    37     1     4    1
    38    21    22    1
@<TRIPOS>MOLECULE
*****
 35 38 0 0 0
SMALL
GASTEIGER

@<TRIPOS>ATOM
      1 N           5.3197   -3.1705   23.4195 N.am    1  UNL1       -0.2828
      2 C           6.7596   -2.8602   23.1359 C.2     1  UNL1        0.2407
      3 O           7.2545   -1.4471   23.2278 O.2     1  UNL1       -0.2733
      4 H           4.9949   -4.0979   23.3592 H       1  UNL1        0.1549
      5 C           3.3053   -0.5392   25.6032 C.ar    1  UNL1        0.0152
      6 C           4.2502   -1.6420   25.2278 C.ar    1  UNL1        0.0158
      7 C           4.3747   -2.0676   23.7949 C.ar    1  UNL1        0.0504
      8 C           3.5543   -1.3905   22.7374 C.ar    1  UNL1        0.0147
      9 C           2.6094   -0.2878   23.1128 C.ar    1  UNL1        0.0014
     10 C           2.4849    0.1379   24.5457 C.ar    1  UNL1        0.0012
     11 C           1.7889    0.3894   22.0552 C.ar    1  UNL1        0.0031
     12 C           1.6101   -0.2593   20.7147 C.ar    1  UNL1        0.0207
     13 C           0.7897    0.4179   19.6571 C.ar    1  UNL1        0.0989
     14 N           0.1480    1.7438   19.9402 N.ar    1  UNL1       -0.2423
     15 C           0.3268    2.3925   21.2809 C.ar    1  UNL1        0.0989
     16 C           1.1472    1.7154   22.3383 C.ar    1  UNL1        0.0207
     17 O           2.8324   -1.1220   28.0906 O.co2   1  UNL1       -0.5446
     18 C           3.1808   -0.1136   27.0362 C.2     1  UNL1        0.0729
     19 O           3.4046    1.3205   27.4148 O.co2   1  UNL1       -0.5446
     20 C           7.7046   -3.9629   22.7606 C.3     1  UNL1        0.1365
     21 N           7.6742   -4.5377   21.3753 N.3     1  UNL1       -0.2860
     22 H           7.0819   -5.3672   21.4137 H       1  UNL1        0.1240
     23 C           7.1806   -3.7059   20.2289 C.3     1  UNL1        0.1160
     24 C           5.7401   -3.7765   19.8166 C.ar    1  UNL1        0.0820
     25 C           4.8455   -2.6061   19.5339 C.ar    1  UNL1        0.0530
     26 S           3.4938   -3.1362   19.1572 S.2     1  UNL1       -0.0643
     27 C           3.5531   -4.6342   19.2070 C.ar    1  UNL1        0.1341
     28 N           4.9414   -5.0299   19.6145 N.ar    1  UNL1       -0.2392
     29 C           8.6800   -4.4910   23.7703 C.3     1  UNL1        0.0514
     30 C           8.2719   -5.5933   24.7023 C.ar    1  UNL1       -0.0203
     31 C           8.9344   -6.9360   24.6115 C.ar    1  UNL1       -0.0042
     32 C           8.5263   -8.0382   25.5433 C.ar    1  UNL1       -0.0003
     33 C           7.4557   -7.7978   26.5660 C.ar    1  UNL1       -0.0000
     34 C           6.7931   -6.4552   26.6568 C.ar    1  UNL1       -0.0003
     35 C           7.2012   -5.3529   25.7249 C.ar    1  UNL1       -0.0042
@<TRIPOS>UNITY_ATOM_ATTR
17 1
charge -1
@<TRIPOS>BOND
     1    17    18   ar
     2    18    19   ar
     3    18     5    1
     4     5     6   ar
     5     6     7   ar
     6     7     1    1
     7     1     2   am
     8     2     3    2
     9     2    20    1
    10    20    29    1
    11    29    30    1
    12    30    31   ar
    13    31    32   ar
    14    32    33   ar
    15    33    34   ar
    16    34    35   ar
    17    20    21    1
    18    21    23    1
    19    23    24    1
    20    24    25   ar
    21    25    26   ar
    22    26    27   ar
    23    27    28   ar
    24     7     8   ar
    25     8     9   ar
    26     9    11    1
    27    11    12   ar
    28    12    13   ar
    29    13    14   ar
    30    14    15   ar
    31    15    16   ar
    32     9    10   ar
    33    10     5   ar
    34    35    30   ar
    35    28    24   ar
    36    16    11   ar
    37     1     4    1
    38    21    22    1
@<TRIPOS>MOLECULE
*****
 35 38 0 0 0
SMALL
GASTEIGER

@<TRIPOS>ATOM
      1 N           5.1727   -0.5517   26.3190 N.am    1  UNL1       -0.2828
      2 C           4.4221   -0.9706   27.5482 C.2     1  UNL1        0.2407
      3 O           3.2259   -1.8677   27.4272 O.2     1  UNL1       -0.2733
      4 H           5.9578    0.0371   26.3983 H       1  UNL1        0.1549
      5 C           4.9443   -2.6968   22.9878 C.ar    1  UNL1        0.0152
      6 C           5.3897   -2.2186   24.3379 C.ar    1  UNL1        0.0158
      7 C           4.7272   -1.0299   24.9688 C.ar    1  UNL1        0.0504
      8 C           3.6193   -0.3192   24.2495 C.ar    1  UNL1        0.0147
      9 C           3.1738   -0.7974   22.8993 C.ar    1  UNL1        0.0014
     10 C           3.8363   -1.9862   22.2685 C.ar    1  UNL1        0.0012
     11 C           2.0658   -0.0868   22.1799 C.ar    1  UNL1        0.0031
     12 C           1.6547   -0.5333   20.8082 C.ar    1  UNL1        0.0207
     13 C           0.5467    0.1774   20.0889 C.ar    1  UNL1        0.0989
     14 N          -0.1501    1.3344   20.7413 N.ar    1  UNL1       -0.2423
     15 C           0.2610    1.7809   22.1130 C.ar    1  UNL1        0.0989
     16 C           1.3690    1.0703   22.8323 C.ar    1  UNL1        0.0207
     17 O           6.6741   -4.6319   23.1011 O.co2   1  UNL1       -0.5446
     18 C           5.6068   -3.8855   22.3570 C.2     1  UNL1        0.0729
     19 O           5.2020   -4.3279   20.9821 O.co2   1  UNL1       -0.5446
     20 C           4.8675   -0.4925   28.8984 C.3     1  UNL1        0.1365
     21 N           3.9563    0.3607   29.7301 N.3     1  UNL1       -0.2860
     22 H           4.5517    0.9096   30.3503 H       1  UNL1        0.1240
     23 C           3.0179    1.3243   29.0661 C.3     1  UNL1        0.1160
     24 C           1.5934    0.9292   28.8120 C.ar    1  UNL1        0.0820
     25 C           0.6483    1.6012   27.8605 C.ar    1  UNL1        0.0530
     26 S          -0.6654    0.8801   27.9252 S.2     1  UNL1       -0.0643
     27 C          -0.5322   -0.2377   28.9167 C.ar    1  UNL1        0.1341
     28 N           0.8638   -0.2073   29.4647 N.ar    1  UNL1       -0.2392
     29 C           6.2242   -0.8676   29.4168 C.3     1  UNL1        0.0514
     30 C           6.4320   -2.1962   30.0816 C.ar    1  UNL1       -0.0203
     31 C           6.3733   -2.3042   31.5765 C.ar    1  UNL1       -0.0042
     32 C           6.5812   -3.6326   32.2413 C.ar    1  UNL1       -0.0003
     33 C           6.8477   -4.8531   31.4111 C.ar    1  UNL1       -0.0000
     34 C           6.9063   -4.7452   29.9161 C.ar    1  UNL1       -0.0003
     35 C           6.6985   -3.4167   29.2514 C.ar    1  UNL1       -0.0042
@<TRIPOS>UNITY_ATOM_ATTR
17 1
charge -1
@<TRIPOS>BOND
     1    17    18   ar
     2    18    19   ar
     3    18     5    1
     4     5     6   ar
     5     6     7   ar
     6     7     1    1
     7     1     2   am
     8     2     3    2
     9     2    20    1
    10    20    29    1
    11    29    30    1
    12    30    31   ar
    13    31    32   ar
    14    32    33   ar
    15    33    34   ar
    16    34    35   ar
    17    20    21    1
    18    21    23    1
    19    23    24    1
    20    24    25   ar
    21    25    26   ar
    22    26    27   ar
    23    27    28   ar
    24     7     8   ar
    25     8     9   ar
    26     9    11    1
    27    11    12   ar
    28    12    13   ar
    29    13    14   ar
    30    14    15   ar
    31    15    16   ar
    32     9    10   ar
    33    10     5   ar
    34    35    30   ar
    35    28    24   ar
    36    16    11   ar
    37     1     4    1
    38    21    22    1
@<TRIPOS>MOLECULE
*****
 35 38 0 0 0
SMALL
GASTEIGER

@<TRIPOS>ATOM
      1 N           5.0569   -2.8945   24.5013 N.am    1  UNL1       -0.2828
      2 C           6.4314   -2.4222   24.8722 C.2     1  UNL1        0.2407
      3 O           7.2610   -1.6704   23.8738 O.2     1  UNL1       -0.2733
      4 H           4.5124   -3.3879   25.1566 H       1  UNL1        0.1549
      5 C           4.3523   -3.2129   20.6087 C.ar    1  UNL1        0.0152
      6 C           4.8972   -3.4924   21.9780 C.ar    1  UNL1        0.0158
      7 C           4.5119   -2.6150   23.1320 C.ar    1  UNL1        0.0504
      8 C           3.5816   -1.4582   22.9168 C.ar    1  UNL1        0.0147
      9 C           3.0367   -1.1788   21.5475 C.ar    1  UNL1        0.0014
     10 C           3.4220   -2.0561   20.3935 C.ar    1  UNL1        0.0012
     11 C           2.1063   -0.0220   21.3322 C.ar    1  UNL1        0.0031
     12 C           2.2695    1.2319   22.1391 C.ar    1  UNL1        0.0207
     13 C           1.3392    2.3888   21.9238 C.ar    1  UNL1        0.0989
     14 N           0.2457    2.2916   20.9016 N.ar    1  UNL1       -0.2423
     15 C           0.0825    1.0376   20.0947 C.ar    1  UNL1        0.0989
     16 C           1.0128   -0.1191   20.3100 C.ar    1  UNL1        0.0207
     17 O           5.6250   -3.5558   18.3698 O.co2   1  UNL1       -0.5446
     18 C           4.7377   -4.0903   19.4547 C.2     1  UNL1        0.0729
     19 O           4.2357   -5.5021   19.3856 O.co2   1  UNL1       -0.5446
     20 C           6.9764   -2.7017   26.2415 C.3     1  UNL1        0.1365
     21 N           8.4397   -2.9761   26.4247 N.3     1  UNL1       -0.2860
     22 H           8.5715   -3.2289   27.4040 H       1  UNL1        0.1240
     23 C           9.1111   -4.0405   25.6085 C.3     1  UNL1        0.1160
     24 C           8.7959   -5.4859   25.8560 C.ar    1  UNL1        0.0820
     25 C           7.6889   -6.2692   25.2149 C.ar    1  UNL1        0.0530
     26 S           7.7411   -7.6693   25.7507 S.2     1  UNL1       -0.0643
     27 C           8.8805   -7.7512   26.7230 C.ar    1  UNL1        0.1341
     28 N           9.5323   -6.4018   26.7880 N.ar    1  UNL1       -0.2392
     29 C           6.0582   -2.7067   27.4275 C.3     1  UNL1        0.0514
     30 C           6.4188   -3.4949   28.6519 C.ar    1  UNL1       -0.0203
     31 C           6.6328   -2.7925   29.9599 C.ar    1  UNL1       -0.0042
     32 C           6.9934   -3.5805   31.1841 C.ar    1  UNL1       -0.0003
     33 C           7.1400   -5.0710   31.1004 C.ar    1  UNL1       -0.0000
     34 C           6.9260   -5.7733   29.7924 C.ar    1  UNL1       -0.0003
     35 C           6.5654   -4.9853   28.5681 C.ar    1  UNL1       -0.0042
@<TRIPOS>UNITY_ATOM_ATTR
17 1
charge -1
@<TRIPOS>BOND
     1    17    18   ar
     2    18    19   ar
     3    18     5    1
     4     5     6   ar
     5     6     7   ar
     6     7     1    1
     7     1     2   am
     8     2     3    2
     9     2    20    1
    10    20    29    1
    11    29    30    1
    12    30    31   ar
    13    31    32   ar
    14    32    33   ar
    15    33    34   ar
    16    34    35   ar
    17    20    21    1
    18    21    23    1
    19    23    24    1
    20    24    25   ar
    21    25    26   ar
    22    26    27   ar
    23    27    28   ar
    24     7     8   ar
    25     8     9   ar
    26     9    11    1
    27    11    12   ar
    28    12    13   ar
    29    13    14   ar
    30    14    15   ar
    31    15    16   ar
    32     9    10   ar
    33    10     5   ar
    34    35    30   ar
    35    28    24   ar
    36    16    11   ar
    37     1     4    1
    38    21    22    1
