@<TRIPOS>MOLECULE
*****
 56 60 0 0 0
SMALL
GASTEIGER

@<TRIPOS>ATOM
      1 C           2.9424    0.3903   24.0931 C.3     1  UNL1        0.0760
      2 C           1.2759    1.3552   25.8372 C.2     1  UNL1        0.2407
      3 O           2.3646    2.2211   26.3984 O.2     1  UNL1       -0.2733
      4 N           1.5648    0.4398   24.6845 N.am    1  UNL1       -0.3043
      5 H           0.8503   -0.1285   24.3161 H       1  UNL1        0.1494
      6 C          -0.1017    1.4047   26.4286 C.3     1  UNL1        0.1556
      7 N          -2.5025    4.4472   25.5748 N.am    1  UNL1       -0.2567
      8 C          -2.7639    5.8499   26.0376 C.3     1  UNL1        0.1168
      9 C          -1.4328    3.6273   26.2331 C.2     1  UNL1        0.3046
     10 O          -0.6244    4.2101   27.3542 O.2     1  UNL1       -0.2526
     11 N          -1.1715    2.2247   25.7703 N.am    1  UNL1       -0.2821
     12 H          -1.7021    1.8422   25.0345 H       1  UNL1        0.1514
     13 C          -3.3110    3.8644   24.4538 C.3     1  UNL1        0.1413
     14 C          -1.0897    3.3420   21.3139 C.ar    1  UNL1        0.0875
     15 N          -1.2560    3.4221   22.8025 N.ar    1  UNL1       -0.2453
     16 C          -2.7003    3.7045   23.0930 C.ar    1  UNL1        0.0858
     17 C          -3.4266    3.7989   21.7840 C.ar    1  UNL1        0.0530
     18 S          -2.4312    3.5748   20.6844 S.2     1  UNL1       -0.0705
     19 C           1.4120    3.8960   20.8844 C.3     1  UNL1        0.0069
     20 C           0.1929    3.0757   20.5830 C.3     1  UNL1        0.0465
     21 C           0.2562    1.9892   19.5508 C.3     1  UNL1        0.0069
     22 C          -0.4095    0.6342   27.6782 C.3     1  UNL1        0.0742
     23 C           0.3674    0.8998   28.9336 C.ar    1  UNL1        0.0563
     24 C           1.2532   -0.0789   29.6459 C.ar    1  UNL1        0.1131
     25 N           1.8282    0.6071   30.8496 N.ar    1  UNL1       -0.2229
     26 C           1.2976    2.0097   30.8812 C.ar    1  UNL1        0.1748
     27 N           0.3948    2.1906   29.6971 N.ar    1  UNL1       -0.3381
     28 H          -0.0940    3.0123   29.4622 H       1  UNL1        0.1672
     29 C           3.9921   -0.4863   24.7092 C.3     1  UNL1        0.0216
     30 C           4.0116   -1.9561   24.4107 C.3     1  UNL1        0.0217
     31 C           5.2495   -2.5913   23.8501 C.3     1  UNL1        0.0792
     32 N           5.8979   -3.7354   24.5715 N.am    1  UNL1       -0.2720
     33 C           6.6984   -3.4813   25.8145 C.2     1  UNL1        0.4019
     34 O           6.8504   -2.0831   26.3359 O.2     1  UNL1       -0.2264
     35 H           5.7981   -4.6531   24.2293 H       1  UNL1        0.1527
     36 O           7.3468   -4.6255   26.5359 O.3     1  UNL1       -0.4291
     37 C           6.6684   -5.2458   27.7212 C.3     1  UNL1        0.2447
     38 C           7.0843   -4.8605   29.1100 C.ar    1  UNL1        0.0714
     39 C           6.8911   -5.6841   30.3487 C.ar    1  UNL1        0.1053
     40 N           7.4539   -4.9166   31.5081 N.ar    1  UNL1       -0.2350
     41 C           7.9949   -3.6187   30.9860 C.ar    1  UNL1        0.1343
     42 S           7.7665   -3.5840   29.5039 S.2     1  UNL1       -0.0652
     43 C           5.8389   -2.0823   22.5681 C.3     1  UNL1        0.0460
     44 C           5.4729   -2.7294   21.2653 C.ar    1  UNL1       -0.0205
     45 C           6.1310   -2.2811   19.9942 C.ar    1  UNL1       -0.0042
     46 C           5.7649   -2.9282   18.6914 C.ar    1  UNL1       -0.0003
     47 C           4.7407   -4.0237   18.6598 C.ar    1  UNL1       -0.0000
     48 C           4.0827   -4.4721   19.9310 C.ar    1  UNL1       -0.0003
     49 C           4.4487   -3.8249   21.2337 C.ar    1  UNL1       -0.0042
     50 C           3.2703    1.2176   22.8854 C.3     1  UNL1        0.0459
     51 C           3.1889    0.6107   21.5161 C.ar    1  UNL1       -0.0205
     52 C           2.3181   -0.5869   21.2770 C.ar    1  UNL1       -0.0042
     53 C           2.2367   -1.1937   19.9077 C.ar    1  UNL1       -0.0003
     54 C           3.0262   -0.6030   18.7774 C.ar    1  UNL1       -0.0000
     55 C           3.8971    0.5947   19.0164 C.ar    1  UNL1       -0.0003
     56 C           3.9785    1.2016   20.3858 C.ar    1  UNL1       -0.0042
@<TRIPOS>BOND
     1    19    20    1
     2    20    21    1
     3    20    14    1
     4    14    15   ar
     5    15    16   ar
     6    16    13    1
     7    13     7    1
     8     7     8    1
     9     7     9   am
    10     9    10    2
    11     9    11   am
    12    11     6    1
    13     6    22    1
    14    22    23    1
    15    23    24   ar
    16    24    25   ar
    17    25    26   ar
    18    26    27   ar
    19     6     2    1
    20     2     3    2
    21     2     4   am
    22     4     1    1
    23     1    29    1
    24    29    30    1
    25    31    30    1
    26    31    43    1
    27    43    44    1
    28    44    45   ar
    29    45    46   ar
    30    46    47   ar
    31    47    48   ar
    32    48    49   ar
    33    31    32    1
    34    32    33   am
    35    33    34    2
    36    33    36    1
    37    36    37    1
    38    37    38    1
    39    38    39   ar
    40    39    40   ar
    41    40    41   ar
    42    41    42   ar
    43     1    50    1
    44    50    51    1
    45    51    52   ar
    46    52    53   ar
    47    53    54   ar
    48    54    55   ar
    49    55    56   ar
    50    16    17   ar
    51    17    18   ar
    52    18    14   ar
    53    27    23   ar
    54    49    44   ar
    55    42    38   ar
    56    56    51   ar
    57    11    12    1
    58    27    28    1
    59     4     5    1
    60    32    35    1
@<TRIPOS>MOLECULE
*****
 56 60 0 0 0
SMALL
GASTEIGER

@<TRIPOS>ATOM
      1 C           4.6103   -2.3701   23.5573 C.3     1  UNL1        0.0760
      2 C           5.9821   -2.2672   25.7614 C.2     1  UNL1        0.2407
      3 O           7.2478   -2.1348   24.9674 O.2     1  UNL1       -0.2733
      4 N           4.6633   -2.3848   25.0563 N.am    1  UNL1       -0.3043
      5 H           3.8326   -2.4717   25.5775 H       1  UNL1        0.1494
      6 C           6.0351   -2.2819   27.2603 C.3     1  UNL1        0.1556
      7 N           3.9359    0.0594   29.6813 N.am    1  UNL1       -0.2567
      8 C           4.1260    1.2955   30.5096 C.3     1  UNL1        0.1168
      9 C           5.0806   -0.4932   28.8850 C.2     1  UNL1        0.3046
     10 O           6.4155    0.1903   28.9169 O.2     1  UNL1       -0.2526
     11 N           4.8904   -1.7292   28.0568 N.am    1  UNL1       -0.2821
     12 H           4.0142   -2.1777   28.0359 H       1  UNL1        0.1514
     13 C           2.6010   -0.6240   29.6495 C.3     1  UNL1        0.1413
     14 C           0.2409    1.1562   27.1341 C.ar    1  UNL1        0.0875
     15 N           1.6163    0.7749   27.5955 N.ar    1  UNL1       -0.2453
     16 C           1.4764   -0.0361   28.8496 C.ar    1  UNL1        0.0858
     17 C           0.0145   -0.1562   29.1632 C.ar    1  UNL1        0.0530
     18 S          -0.7491    0.5807   28.1031 S.2     1  UNL1       -0.0705
     19 C          -1.4361    2.6123   25.7861 C.3     1  UNL1        0.0069
     20 C          -0.0870    1.9700   25.9175 C.3     1  UNL1        0.0465
     21 C           0.9342    2.1414   24.8323 C.3     1  UNL1        0.0069
     22 C           7.2328   -2.8492   27.9629 C.3     1  UNL1        0.0742
     23 C           7.0532   -3.6841   29.1961 C.ar    1  UNL1        0.0563
     24 C           6.9432   -5.1794   29.2402 C.ar    1  UNL1        0.1131
     25 N           6.7741   -5.5898   30.6730 N.ar    1  UNL1       -0.2229
     26 C           6.7796   -4.3480   31.5145 C.ar    1  UNL1        0.1748
     27 N           6.9521   -3.1703   30.6017 N.ar    1  UNL1       -0.3381
     28 H           6.9919   -2.2259   30.8769 H       1  UNL1        0.1672
     29 C           4.2429   -1.1095   22.8322 C.3     1  UNL1        0.0216
     30 C           2.7997   -0.7551   22.6282 C.3     1  UNL1        0.0217
     31 C           2.3729   -0.0350   21.3835 C.3     1  UNL1        0.0792
     32 N           1.8384    1.3637   21.4722 N.am    1  UNL1       -0.2720
     33 C           0.4240    1.6533   21.0652 C.2     1  UNL1        0.4019
     34 O          -0.4559    0.5443   20.5696 O.2     1  UNL1       -0.2264
     35 H           2.4159    2.0917   21.7975 H       1  UNL1        0.1527
     36 O          -0.1105    3.0521   21.1539 O.3     1  UNL1       -0.4291
     37 C          -0.8326    3.6545   19.9853 C.3     1  UNL1        0.2447
     38 C          -2.3319    3.6393   19.9412 C.ar    1  UNL1        0.0714
     39 C          -3.2433    3.2570   21.0694 C.ar    1  UNL1        0.1053
     40 N          -4.6577    3.3851   20.5866 N.ar    1  UNL1       -0.2350
     41 C          -4.6204    3.8468   19.1599 C.ar    1  UNL1        0.1343
     42 S          -3.1829    4.0038   18.7610 S.2     1  UNL1       -0.0652
     43 C           2.4806   -0.7136   20.0502 C.3     1  UNL1        0.0460
     44 C           3.5823   -0.3378   19.1041 C.ar    1  UNL1       -0.0205
     45 C           4.8242    0.3235   19.6239 C.ar    1  UNL1       -0.0042
     46 C           5.9259    0.6994   18.6778 C.ar    1  UNL1       -0.0003
     47 C           5.7856    0.4139   17.2119 C.ar    1  UNL1       -0.0000
     48 C           4.5437   -0.2474   16.6921 C.ar    1  UNL1       -0.0003
     49 C           3.4420   -0.6232   17.6382 C.ar    1  UNL1       -0.0042
     50 C           4.9247   -3.6161   22.7835 C.3     1  UNL1        0.0459
     51 C           5.1083   -3.5490   21.2963 C.ar    1  UNL1       -0.0205
     52 C           4.0449   -4.0852   20.3844 C.ar    1  UNL1       -0.0042
     53 C           4.2285   -4.0181   18.8972 C.ar    1  UNL1       -0.0003
     54 C           5.4755   -3.4147   18.3219 C.ar    1  UNL1       -0.0000
     55 C           6.5389   -2.8785   19.2338 C.ar    1  UNL1       -0.0003
     56 C           6.3554   -2.9456   20.7210 C.ar    1  UNL1       -0.0042
@<TRIPOS>BOND
     1    19    20    1
     2    20    21    1
     3    20    14    1
     4    14    15   ar
     5    15    16   ar
     6    16    13    1
     7    13     7    1
     8     7     8    1
     9     7     9   am
    10     9    10    2
    11     9    11   am
    12    11     6    1
    13     6    22    1
    14    22    23    1
    15    23    24   ar
    16    24    25   ar
    17    25    26   ar
    18    26    27   ar
    19     6     2    1
    20     2     3    2
    21     2     4   am
    22     4     1    1
    23     1    29    1
    24    29    30    1
    25    31    30    1
    26    31    43    1
    27    43    44    1
    28    44    45   ar
    29    45    46   ar
    30    46    47   ar
    31    47    48   ar
    32    48    49   ar
    33    31    32    1
    34    32    33   am
    35    33    34    2
    36    33    36    1
    37    36    37    1
    38    37    38    1
    39    38    39   ar
    40    39    40   ar
    41    40    41   ar
    42    41    42   ar
    43     1    50    1
    44    50    51    1
    45    51    52   ar
    46    52    53   ar
    47    53    54   ar
    48    54    55   ar
    49    55    56   ar
    50    16    17   ar
    51    17    18   ar
    52    18    14   ar
    53    27    23   ar
    54    49    44   ar
    55    42    38   ar
    56    56    51   ar
    57    11    12    1
    58    27    28    1
    59     4     5    1
    60    32    35    1
@<TRIPOS>MOLECULE
*****
 56 60 0 0 0
SMALL
GASTEIGER

@<TRIPOS>ATOM
      1 C           2.6849    0.5864   24.1414 C.3     1  UNL1        0.0760
      2 C           0.9172    1.7996   25.6089 C.2     1  UNL1        0.2407
      3 O           1.8797    2.9273   25.8362 O.2     1  UNL1       -0.2733
      4 N           1.3197    0.6291   24.7615 N.am    1  UNL1       -0.3043
      5 H           0.6879   -0.1110   24.6123 H       1  UNL1        0.1494
      6 C          -0.4480    1.8422   26.2290 C.3     1  UNL1        0.1556
      7 N          -2.8853    4.6449   24.8308 N.am    1  UNL1       -0.2567
      8 C          -3.0532    6.1343   24.8905 C.3     1  UNL1        0.1168
      9 C          -1.7506    3.9883   25.5598 C.2     1  UNL1        0.3046
     10 O          -0.7839    4.8210   26.3485 O.2     1  UNL1       -0.2526
     11 N          -1.5827    2.4989   25.5000 N.am    1  UNL1       -0.2821
     12 H          -2.2172    1.9524   24.9824 H       1  UNL1        0.1514
     13 C          -3.8520    3.8121   24.0421 C.3     1  UNL1        0.1413
     14 C          -4.2108    3.5732   20.1847 C.ar    1  UNL1        0.0875
     15 N          -4.8141    3.7223   21.5498 N.ar    1  UNL1       -0.2453
     16 C          -3.7005    3.6944   22.5544 C.ar    1  UNL1        0.0858
     17 C          -2.4089    3.5279   21.8101 C.ar    1  UNL1        0.0530
     18 S          -2.7242    3.4531   20.3455 S.2     1  UNL1       -0.0705
     19 C          -4.2523    3.8639   17.6032 C.3     1  UNL1        0.0069
     20 C          -4.9620    3.5486   18.8866 C.3     1  UNL1        0.0465
     21 C          -6.4229    3.2086   18.8719 C.3     1  UNL1        0.0069
     22 C          -0.6785    1.2283   27.5780 C.3     1  UNL1        0.0742
     23 C           0.4896    0.8159   28.4239 C.ar    1  UNL1        0.0563
     24 C           1.0973    1.6155   29.5381 C.ar    1  UNL1        0.1131
     25 N           2.2384    0.8253   30.1069 N.ar    1  UNL1       -0.2229
     26 C           2.3359   -0.4627   29.3442 C.ar    1  UNL1        0.1748
     27 N           1.2551   -0.4685   28.3041 N.ar    1  UNL1       -0.3381
     28 H           1.0791   -1.1888   27.6565 H       1  UNL1        0.1672
     29 C           3.7669   -0.2432   24.7664 C.3     1  UNL1        0.0216
     30 C           3.8389   -1.7153   24.4876 C.3     1  UNL1        0.0217
     31 C           5.1091   -2.3185   23.9652 C.3     1  UNL1        0.0792
     32 N           5.7863   -3.4182   24.7281 N.am    1  UNL1       -0.2720
     33 C           6.6580   -3.0889   25.9036 C.2     1  UNL1        0.4019
     34 O           6.8525   -1.6600   26.3162 O.2     1  UNL1       -0.2264
     35 H           5.6587   -4.3561   24.4573 H       1  UNL1        0.1527
     36 O           7.3352   -4.1887   26.6664 O.3     1  UNL1       -0.4291
     37 C           8.0930   -3.8740   27.9221 C.3     1  UNL1        0.2447
     38 C           7.6248   -4.4213   29.2378 C.ar    1  UNL1        0.0714
     39 C           7.3119   -5.8581   29.5340 C.ar    1  UNL1        0.1053
     40 N           6.8809   -5.9528   30.9676 N.ar    1  UNL1       -0.2350
     41 C           6.9274   -4.5744   31.5575 C.ar    1  UNL1        0.1343
     42 S           7.3871   -3.6280   30.4884 S.2     1  UNL1       -0.0652
     43 C           5.7020   -1.8219   22.6800 C.3     1  UNL1        0.0460
     44 C           5.4231   -2.5460   21.3962 C.ar    1  UNL1       -0.0205
     45 C           4.3311   -3.5726   21.3361 C.ar    1  UNL1       -0.0042
     46 C           4.0523   -4.2966   20.0524 C.ar    1  UNL1       -0.0003
     47 C           4.8654   -3.9941   18.8288 C.ar    1  UNL1       -0.0000
     48 C           5.9575   -2.9675   18.8889 C.ar    1  UNL1       -0.0003
     49 C           6.2363   -2.2435   20.1726 C.ar    1  UNL1       -0.0042
     50 C           2.9679    1.3735   22.8961 C.3     1  UNL1        0.0459
     51 C           3.0029    0.6836   21.5646 C.ar    1  UNL1       -0.0205
     52 C           2.0308   -0.4189   21.2654 C.ar    1  UNL1       -0.0042
     53 C           2.0658   -1.1087   19.9339 C.ar    1  UNL1       -0.0003
     54 C           3.0728   -0.6961   18.9016 C.ar    1  UNL1       -0.0000
     55 C           4.0450    0.4064   19.2009 C.ar    1  UNL1       -0.0003
     56 C           4.0100    1.0963   20.5324 C.ar    1  UNL1       -0.0042
@<TRIPOS>BOND
     1    19    20    1
     2    20    21    1
     3    20    14    1
     4    14    15   ar
     5    15    16   ar
     6    16    13    1
     7    13     7    1
     8     7     8    1
     9     7     9   am
    10     9    10    2
    11     9    11   am
    12    11     6    1
    13     6    22    1
    14    22    23    1
    15    23    24   ar
    16    24    25   ar
    17    25    26   ar
    18    26    27   ar
    19     6     2    1
    20     2     3    2
    21     2     4   am
    22     4     1    1
    23     1    29    1
    24    29    30    1
    25    31    30    1
    26    31    43    1
    27    43    44    1
    28    44    45   ar
    29    45    46   ar
    30    46    47   ar
    31    47    48   ar
    32    48    49   ar
    33    31    32    1
    34    32    33   am
    35    33    34    2
    36    33    36    1
    37    36    37    1
    38    37    38    1
    39    38    39   ar
    40    39    40   ar
    41    40    41   ar
    42    41    42   ar
    43     1    50    1
    44    50    51    1
    45    51    52   ar
    46    52    53   ar
    47    53    54   ar
    48    54    55   ar
    49    55    56   ar
    50    16    17   ar
    51    17    18   ar
    52    18    14   ar
    53    27    23   ar
    54    49    44   ar
    55    42    38   ar
    56    56    51   ar
    57    11    12    1
    58    27    28    1
    59     4     5    1
    60    32    35    1
@<TRIPOS>MOLECULE
*****
 56 60 0 0 0
SMALL
GASTEIGER

@<TRIPOS>ATOM
      1 C           5.1881   -2.2373   23.6733 C.3     1  UNL1        0.0760
      2 C           5.9537   -2.1264   26.1536 C.2     1  UNL1        0.2407
      3 O           7.1611   -1.3354   25.7455 O.2     1  UNL1       -0.2733
      4 N           4.9672   -2.5773   25.1175 N.am    1  UNL1       -0.3043
      5 H           4.1747   -3.0964   25.3853 H       1  UNL1        0.1494
      6 C           5.7328   -2.4664   27.5977 C.3     1  UNL1        0.1556
      7 N           3.7465    0.0079   29.9816 N.am    1  UNL1       -0.2567
      8 C           4.0108    1.2018   30.8504 C.3     1  UNL1        0.1168
      9 C           4.8718   -0.6323   29.2240 C.2     1  UNL1        0.3046
     10 O           6.2614   -0.0785   29.3352 O.2     1  UNL1       -0.2526
     11 N           4.6075   -1.8262   28.3553 N.am    1  UNL1       -0.2821
     12 H           3.6954   -2.1896   28.2824 H       1  UNL1        0.1514
     13 C           2.3569   -0.5458   29.8704 C.3     1  UNL1        0.1413
     14 C           0.4327    1.2727   27.0320 C.ar    1  UNL1        0.0875
     15 N           1.7161    0.8308   27.6705 N.ar    1  UNL1       -0.2453
     16 C           1.3757    0.0755   28.9210 C.ar    1  UNL1        0.0858
     17 C          -0.1180    0.0505   29.0553 C.ar    1  UNL1        0.0530
     18 S          -0.7009    0.7904   27.8879 S.2     1  UNL1       -0.0705
     19 C           1.5346    2.4610   25.0013 C.3     1  UNL1        0.0069
     20 C           0.3053    2.0588   25.7609 C.3     1  UNL1        0.0465
     21 C          -1.0515    2.4426   25.2493 C.3     1  UNL1        0.0069
     22 C           6.6371   -3.4466   28.2843 C.3     1  UNL1        0.0742
     23 C           7.0306   -4.7171   27.5908 C.ar    1  UNL1        0.0563
     24 C           8.4049   -5.0647   27.1004 C.ar    1  UNL1        0.1131
     25 N           8.3425   -6.4255   26.4724 N.ar    1  UNL1       -0.2229
     26 C           6.9297   -6.9189   26.5747 C.ar    1  UNL1        0.1748
     27 N           6.1189   -5.8630   27.2659 N.ar    1  UNL1       -0.3381
     28 H           5.1572   -5.9134   27.4704 H       1  UNL1        0.1672
     29 C           4.5895   -0.9887   23.0967 C.3     1  UNL1        0.0216
     30 C           3.1111   -0.9076   22.8562 C.3     1  UNL1        0.0217
     31 C           2.5869   -0.2109   21.6356 C.3     1  UNL1        0.0792
     32 N           2.0320    1.1783   21.7452 N.am    1  UNL1       -0.2720
     33 C           0.6080    1.4498   21.3593 C.2     1  UNL1        0.4019
     34 O          -0.2609    0.3320   20.8640 O.2     1  UNL1       -0.2264
     35 H           2.6023    1.9120   22.0703 H       1  UNL1        0.1527
     36 O           0.0531    2.8391   21.4689 O.3     1  UNL1       -0.4291
     37 C          -0.9580    3.3236   20.4725 C.3     1  UNL1        0.2447
     38 C          -2.3990    3.4529   20.8685 C.ar    1  UNL1        0.0714
     39 C          -2.9233    3.5429   22.2710 C.ar    1  UNL1        0.1053
     40 N          -4.4170    3.6605   22.2009 N.ar    1  UNL1       -0.2350
     41 C          -4.8159    3.6431   20.7550 C.ar    1  UNL1        0.1343
     42 S          -3.5687    3.5148   19.9316 S.2     1  UNL1       -0.0652
     43 C           2.6176   -0.9035   20.3054 C.3     1  UNL1        0.0460
     44 C           3.6275   -0.4993   19.2725 C.ar    1  UNL1       -0.0205
     45 C           3.3775   -0.7948   17.8233 C.ar    1  UNL1       -0.0042
     46 C           4.3873   -0.3905   16.7905 C.ar    1  UNL1       -0.0003
     47 C           5.6471    0.3092   17.2068 C.ar    1  UNL1       -0.0000
     48 C           5.8971    0.6047   18.6559 C.ar    1  UNL1       -0.0003
     49 C           4.8872    0.2005   19.6888 C.ar    1  UNL1       -0.0042
     50 C           6.0077   -3.1460   22.8058 C.3     1  UNL1        0.0459
     51 C           5.5792   -3.4241   21.3955 C.ar    1  UNL1       -0.0205
     52 C           6.4440   -2.9902   20.2494 C.ar    1  UNL1       -0.0042
     53 C           6.0155   -3.2684   18.8391 C.ar    1  UNL1       -0.0003
     54 C           4.7220   -3.9805   18.5749 C.ar    1  UNL1       -0.0000
     55 C           3.8570   -4.4144   19.7210 C.ar    1  UNL1       -0.0003
     56 C           4.2856   -4.1363   21.1313 C.ar    1  UNL1       -0.0042
@<TRIPOS>BOND
     1    19    20    1
     2    20    21    1
     3    20    14    1
     4    14    15   ar
     5    15    16   ar
     6    16    13    1
     7    13     7    1
     8     7     8    1
     9     7     9   am
    10     9    10    2
    11     9    11   am
    12    11     6    1
    13     6    22    1
    14    22    23    1
    15    23    24   ar
    16    24    25   ar
    17    25    26   ar
    18    26    27   ar
    19     6     2    1
    20     2     3    2
    21     2     4   am
    22     4     1    1
    23     1    29    1
    24    29    30    1
    25    31    30    1
    26    31    43    1
    27    43    44    1
    28    44    45   ar
    29    45    46   ar
    30    46    47   ar
    31    47    48   ar
    32    48    49   ar
    33    31    32    1
    34    32    33   am
    35    33    34    2
    36    33    36    1
    37    36    37    1
    38    37    38    1
    39    38    39   ar
    40    39    40   ar
    41    40    41   ar
    42    41    42   ar
    43     1    50    1
    44    50    51    1
    45    51    52   ar
    46    52    53   ar
    47    53    54   ar
    48    54    55   ar
    49    55    56   ar
    50    16    17   ar
    51    17    18   ar
    52    18    14   ar
    53    27    23   ar
    54    49    44   ar
    55    42    38   ar
    56    56    51   ar
    57    11    12    1
    58    27    28    1
    59     4     5    1
    60    32    35    1
@<TRIPOS>MOLECULE
*****
 56 60 0 0 0
SMALL
GASTEIGER

@<TRIPOS>ATOM
      1 C           4.2497   -1.5216   23.3981 C.3     1  UNL1        0.0760
      2 C           5.4611   -1.5924   25.6955 C.2     1  UNL1        0.2407
      3 O           5.9754   -0.2020   25.4671 O.2     1  UNL1       -0.2733
      4 N           4.5982   -2.2522   24.6610 N.am    1  UNL1       -0.3043
      5 H           4.2607   -3.1648   24.8108 H       1  UNL1        0.1494
      6 C           5.8096   -2.3230   26.9583 C.3     1  UNL1        0.1556
      7 N           5.5202   -0.4502   30.4452 N.am    1  UNL1       -0.2567
      8 C           6.3257    0.4801   31.3030 C.3     1  UNL1        0.1168
      9 C           6.0676   -0.9215   29.1307 C.2     1  UNL1        0.3046
     10 O           7.4206   -0.4625   28.6738 O.2     1  UNL1       -0.2526
     11 N           5.2621   -1.8517   28.2729 N.am    1  UNL1       -0.2821
     12 H           4.3741   -2.1529   28.5728 H       1  UNL1        0.1514
     13 C           4.1671   -0.9092   30.9021 C.3     1  UNL1        0.1413
     14 C           0.8657    0.4757   29.4025 C.ar    1  UNL1        0.0875
     15 N           1.9169   -0.5904   29.4949 N.ar    1  UNL1       -0.2453
     16 C           2.9404   -0.1465   30.4977 C.ar    1  UNL1        0.0858
     17 C           2.5218    1.1939   31.0249 C.ar    1  UNL1        0.0530
     18 S           1.2396    1.5785   30.3481 S.2     1  UNL1       -0.0705
     19 C          -1.4613   -0.5161   28.8099 C.3     1  UNL1        0.0069
     20 C          -0.3464    0.4445   28.5195 C.3     1  UNL1        0.0465
     21 C          -0.4437    1.3739   27.3462 C.3     1  UNL1        0.0069
     22 C           6.7055   -3.5249   26.9065 C.3     1  UNL1        0.0742
     23 C           7.0588   -4.2520   28.1700 C.ar    1  UNL1        0.0563
     24 C           8.2241   -3.9498   29.0648 C.ar    1  UNL1        0.1131
     25 N           8.1944   -4.9200   30.2084 N.ar    1  UNL1       -0.2229
     26 C           7.0106   -5.8218   30.0205 C.ar    1  UNL1        0.1748
     27 N           6.3088   -5.4090   28.7607 N.ar    1  UNL1       -0.3381
     28 H           5.4982   -5.8245   28.3871 H       1  UNL1        0.1672
     29 C           2.8971   -0.8915   23.2451 C.3     1  UNL1        0.0216
     30 C           2.6864    0.1957   22.2335 C.3     1  UNL1        0.0217
     31 C           1.6541    0.0296   21.1579 C.3     1  UNL1        0.0792
     32 N           0.2733    0.5827   21.3518 N.am    1  UNL1       -0.2720
     33 C          -0.0793    1.9311   20.7971 C.2     1  UNL1        0.4019
     34 O           0.9490    2.7264   20.0487 O.2     1  UNL1       -0.2264
     35 H          -0.4016    0.0607   21.8430 H       1  UNL1        0.1527
     36 O          -1.4600    2.4841   20.9910 O.3     1  UNL1       -0.4291
     37 C          -1.6455    3.8399   21.6053 C.3     1  UNL1        0.2447
     38 C          -1.8606    3.9703   23.0840 C.ar    1  UNL1        0.0714
     39 C          -3.1042    3.5890   23.8311 C.ar    1  UNL1        0.1053
     40 N          -2.8821    3.8879   25.2841 N.ar    1  UNL1       -0.2350
     41 C          -1.5013    4.4540   25.4351 C.ar    1  UNL1        0.1343
     42 S          -0.8700    4.5049   24.0754 S.2     1  UNL1       -0.0652
     43 C           2.0025   -0.6895   19.8885 C.3     1  UNL1        0.0460
     44 C           3.1394   -0.2036   19.0391 C.ar    1  UNL1       -0.0205
     45 C           4.0087    0.9199   19.5207 C.ar    1  UNL1       -0.0042
     46 C           5.1455    1.4057   18.6713 C.ar    1  UNL1       -0.0003
     47 C           5.4131    0.7680   17.3402 C.ar    1  UNL1       -0.0000
     48 C           4.5438   -0.3555   16.8586 C.ar    1  UNL1       -0.0003
     49 C           3.4070   -0.8414   17.7080 C.ar    1  UNL1       -0.0042
     50 C           5.2539   -1.4211   22.2883 C.3     1  UNL1        0.0459
     51 C           5.1492   -2.3276   21.0978 C.ar    1  UNL1       -0.0205
     52 C           6.0990   -2.1681   19.9479 C.ar    1  UNL1       -0.0042
     53 C           5.9943   -3.0746   18.7574 C.ar    1  UNL1       -0.0003
     54 C           4.9399   -4.1406   18.7168 C.ar    1  UNL1       -0.0000
     55 C           3.9900   -4.3002   19.8668 C.ar    1  UNL1       -0.0003
     56 C           4.0947   -3.3936   21.0573 C.ar    1  UNL1       -0.0042
@<TRIPOS>BOND
     1    19    20    1
     2    20    21    1
     3    20    14    1
     4    14    15   ar
     5    15    16   ar
     6    16    13    1
     7    13     7    1
     8     7     8    1
     9     7     9   am
    10     9    10    2
    11     9    11   am
    12    11     6    1
    13     6    22    1
    14    22    23    1
    15    23    24   ar
    16    24    25   ar
    17    25    26   ar
    18    26    27   ar
    19     6     2    1
    20     2     3    2
    21     2     4   am
    22     4     1    1
    23     1    29    1
    24    29    30    1
    25    31    30    1
    26    31    43    1
    27    43    44    1
    28    44    45   ar
    29    45    46   ar
    30    46    47   ar
    31    47    48   ar
    32    48    49   ar
    33    31    32    1
    34    32    33   am
    35    33    34    2
    36    33    36    1
    37    36    37    1
    38    37    38    1
    39    38    39   ar
    40    39    40   ar
    41    40    41   ar
    42    41    42   ar
    43     1    50    1
    44    50    51    1
    45    51    52   ar
    46    52    53   ar
    47    53    54   ar
    48    54    55   ar
    49    55    56   ar
    50    16    17   ar
    51    17    18   ar
    52    18    14   ar
    53    27    23   ar
    54    49    44   ar
    55    42    38   ar
    56    56    51   ar
    57    11    12    1
    58    27    28    1
    59     4     5    1
    60    32    35    1
@<TRIPOS>MOLECULE
*****
 56 60 0 0 0
SMALL
GASTEIGER

@<TRIPOS>ATOM
      1 C           5.1305   -2.3781   23.9072 C.3     1  UNL1        0.0760
      2 C           6.1236   -2.3273   26.3074 C.2     1  UNL1        0.2407
      3 O           7.4600   -1.9410   25.7464 O.2     1  UNL1       -0.2733
      4 N           4.9589   -2.5459   25.3878 N.am    1  UNL1       -0.3043
      5 H           4.0817   -2.7994   25.7561 H       1  UNL1        0.1494
      6 C           5.9520   -2.4951   27.7881 C.3     1  UNL1        0.1556
      7 N           3.4614    0.1956   29.3069 N.am    1  UNL1       -0.2567
      8 C           2.0283    0.6179   29.1718 C.3     1  UNL1        0.1168
      9 C           3.9902   -0.9386   28.4800 C.2     1  UNL1        0.3046
     10 O           3.0860   -1.6505   27.5178 O.2     1  UNL1       -0.2526
     11 N           5.4231   -1.3609   28.6151 N.am    1  UNL1       -0.2821
     12 H           6.0165   -0.8936   29.2466 H       1  UNL1        0.1514
     13 C           4.3655    0.9075   30.2691 C.3     1  UNL1        0.1413
     14 C           4.8148    0.4209   34.0936 C.ar    1  UNL1        0.0875
     15 N           4.8567    1.2863   32.8692 N.ar    1  UNL1       -0.2453
     16 C           4.4591    0.4447   31.6929 C.ar    1  UNL1        0.0858
     17 C           4.1714   -0.9408   32.1903 C.ar    1  UNL1        0.0530
     18 S           4.3913   -0.9556   33.6740 S.2     1  UNL1       -0.0705
     19 C           4.5387    0.1322   36.6608 C.3     1  UNL1        0.0069
     20 C           5.1394    0.8555   35.4921 C.3     1  UNL1        0.0465
     21 C           6.0647    2.0136   35.7217 C.3     1  UNL1        0.0069
     22 C           6.3091   -3.7970   28.4418 C.3     1  UNL1        0.0742
     23 C           6.8873   -4.9134   27.6235 C.ar    1  UNL1        0.0563
     24 C           8.3192   -5.0431   27.1959 C.ar    1  UNL1        0.1131
     25 N           8.4519   -6.3059   26.3973 N.ar    1  UNL1       -0.2229
     26 C           7.1020   -6.9566   26.3314 C.ar    1  UNL1        0.1748
     27 N           6.1351   -6.0960   27.0892 N.ar    1  UNL1       -0.3381
     28 H           5.1752   -6.2758   27.2140 H       1  UNL1        0.1672
     29 C           4.6204   -1.1417   23.2283 C.3     1  UNL1        0.0216
     30 C           3.1446   -0.9337   23.0591 C.3     1  UNL1        0.0217
     31 C           2.6168   -0.2808   21.8159 C.3     1  UNL1        0.0792
     32 N           2.0149    1.0912   21.8871 N.am    1  UNL1       -0.2720
     33 C           0.6217    1.3261   21.3830 C.2     1  UNL1        0.4019
     34 O          -0.1694    0.1889   20.8077 O.2     1  UNL1       -0.2264
     35 H           2.5341    1.8376   22.2647 H       1  UNL1        0.1527
     36 O           0.0197    2.6982   21.4542 O.3     1  UNL1       -0.4291
     37 C          -1.3002    2.9731   20.7969 C.3     1  UNL1        0.2447
     38 C          -1.3432    3.5262   19.4032 C.ar    1  UNL1        0.0714
     39 C          -2.4599    4.3321   18.8086 C.ar    1  UNL1        0.1053
     40 N          -2.0840    4.6745   17.3974 N.ar    1  UNL1       -0.2350
     41 C          -0.7350    4.0802   17.1198 C.ar    1  UNL1        0.1343
     42 S          -0.2772    3.3705   18.3595 S.2     1  UNL1       -0.0652
     43 C           2.6910   -1.0000   20.5017 C.3     1  UNL1        0.0460
     44 C           3.6741   -0.5571   19.4588 C.ar    1  UNL1       -0.0205
     45 C           4.9212    0.1709   19.8647 C.ar    1  UNL1       -0.0042
     46 C           5.9041    0.6137   18.8219 C.ar    1  UNL1       -0.0003
     47 C           5.6400    0.3286   17.3731 C.ar    1  UNL1       -0.0000
     48 C           4.3929   -0.3993   16.9672 C.ar    1  UNL1       -0.0003
     49 C           3.4100   -0.8422   18.0100 C.ar    1  UNL1       -0.0042
     50 C           5.8124   -3.4469   23.1053 C.3     1  UNL1        0.0459
     51 C           5.4857   -3.6171   21.6513 C.ar    1  UNL1       -0.0205
     52 C           4.2132   -4.2985   21.2433 C.ar    1  UNL1       -0.0042
     53 C           3.8865   -4.4687   19.7893 C.ar    1  UNL1       -0.0003
     54 C           4.8321   -3.9575   18.7432 C.ar    1  UNL1       -0.0000
     55 C           6.1046   -3.2760   19.1512 C.ar    1  UNL1       -0.0003
     56 C           6.4314   -3.1058   20.6052 C.ar    1  UNL1       -0.0042
@<TRIPOS>BOND
     1    19    20    1
     2    20    21    1
     3    20    14    1
     4    14    15   ar
     5    15    16   ar
     6    16    13    1
     7    13     7    1
     8     7     8    1
     9     7     9   am
    10     9    10    2
    11     9    11   am
    12    11     6    1
    13     6    22    1
    14    22    23    1
    15    23    24   ar
    16    24    25   ar
    17    25    26   ar
    18    26    27   ar
    19     6     2    1
    20     2     3    2
    21     2     4   am
    22     4     1    1
    23     1    29    1
    24    29    30    1
    25    31    30    1
    26    31    43    1
    27    43    44    1
    28    44    45   ar
    29    45    46   ar
    30    46    47   ar
    31    47    48   ar
    32    48    49   ar
    33    31    32    1
    34    32    33   am
    35    33    34    2
    36    33    36    1
    37    36    37    1
    38    37    38    1
    39    38    39   ar
    40    39    40   ar
    41    40    41   ar
    42    41    42   ar
    43     1    50    1
    44    50    51    1
    45    51    52   ar
    46    52    53   ar
    47    53    54   ar
    48    54    55   ar
    49    55    56   ar
    50    16    17   ar
    51    17    18   ar
    52    18    14   ar
    53    27    23   ar
    54    49    44   ar
    55    42    38   ar
    56    56    51   ar
    57    11    12    1
    58    27    28    1
    59     4     5    1
    60    32    35    1
@<TRIPOS>MOLECULE
*****
 56 60 0 0 0
SMALL
GASTEIGER

@<TRIPOS>ATOM
      1 C           5.1820   -2.3529   24.1903 C.3     1  UNL1        0.0760
      2 C           6.1701   -2.2097   26.5889 C.2     1  UNL1        0.2407
      3 O           7.4308   -1.6157   26.0341 O.2     1  UNL1       -0.2733
      4 N           5.0456   -2.5783   25.6669 N.am    1  UNL1       -0.3043
      5 H           4.2182   -2.9681   26.0311 H       1  UNL1        0.1494
      6 C           6.0337   -2.4350   28.0656 C.3     1  UNL1        0.1556
      7 N           3.4590    0.1487   29.6292 N.am    1  UNL1       -0.2567
      8 C           2.0341    0.5809   29.4469 C.3     1  UNL1        0.1168
      9 C           4.0339   -0.9271   28.7563 C.2     1  UNL1        0.3046
     10 O           3.1840   -1.5708   27.7011 O.2     1  UNL1       -0.2526
     11 N           5.4587   -1.3592   28.9385 N.am    1  UNL1       -0.2821
     12 H           6.0164   -0.9367   29.6311 H       1  UNL1        0.1514
     13 C           4.3088    0.7925   30.6843 C.3     1  UNL1        0.1413
     14 C           4.9916   -0.2356   34.3644 C.ar    1  UNL1        0.0875
     15 N           5.0212    0.7797   33.2607 N.ar    1  UNL1       -0.2453
     16 C           4.4645    0.1374   32.0248 C.ar    1  UNL1        0.0858
     17 C           4.0907   -1.2750   32.3646 C.ar    1  UNL1        0.0530
     18 S           4.4165   -1.5055   33.8106 S.2     1  UNL1       -0.0705
     19 C           6.9192   -0.0711   36.0986 C.3     1  UNL1        0.0069
     20 C           5.4556   -0.0191   35.7743 C.3     1  UNL1        0.0465
     21 C           4.4559    0.2494   36.8599 C.3     1  UNL1        0.0069
     22 C           6.4722   -3.7362   28.6693 C.3     1  UNL1        0.0742
     23 C           6.9029   -4.8670   27.7829 C.ar    1  UNL1        0.0563
     24 C           8.2800   -5.0755   27.2259 C.ar    1  UNL1        0.1131
     25 N           8.2604   -6.3252   26.3965 N.ar    1  UNL1       -0.2229
     26 C           6.8711   -6.8891   26.4409 C.ar    1  UNL1        0.1748
     27 N           6.0322   -5.9879   27.2976 N.ar    1  UNL1       -0.3381
     28 H           5.0776   -6.1105   27.5051 H       1  UNL1        0.1672
     29 C           4.7431   -1.0519   23.5864 C.3     1  UNL1        0.0216
     30 C           3.3588   -0.5348   23.8439 C.3     1  UNL1        0.0217
     31 C           2.5849    0.1196   22.7380 C.3     1  UNL1        0.0792
     32 N           2.0767    1.5209   22.9055 N.am    1  UNL1       -0.2720
     33 C           0.9515    1.8019   23.8569 C.2     1  UNL1        0.4019
     34 O           0.3347    0.6817   24.6408 O.2     1  UNL1       -0.2264
     35 H           2.4816    2.2561   22.3910 H       1  UNL1        0.1527
     36 O           0.4434    3.2033   24.0244 O.3     1  UNL1       -0.4291
     37 C          -0.9418    3.5580   23.5711 C.3     1  UNL1        0.2447
     38 C          -2.0576    3.6484   24.5695 C.ar    1  UNL1        0.0714
     39 C          -1.9381    3.4246   26.0479 C.ar    1  UNL1        0.1053
     40 N          -3.2954    3.6164   26.6570 N.ar    1  UNL1       -0.2350
     41 C          -4.2538    3.9587   25.5550 C.ar    1  UNL1        0.1343
     42 S          -3.4887    3.9785   24.2649 S.2     1  UNL1       -0.0652
     43 C           2.3191   -0.6274   21.4647 C.3     1  UNL1        0.0460
     44 C           3.0967   -0.2972   20.2251 C.ar    1  UNL1       -0.0205
     45 C           4.4542    0.3311   20.3365 C.ar    1  UNL1       -0.0042
     46 C           5.2317    0.6612   19.0970 C.ar    1  UNL1       -0.0003
     47 C           4.6518    0.3631   17.7461 C.ar    1  UNL1       -0.0000
     48 C           3.2943   -0.2652   17.6348 C.ar    1  UNL1       -0.0003
     49 C           2.5168   -0.5953   18.8743 C.ar    1  UNL1       -0.0042
     50 C           5.7574   -3.4286   23.3174 C.3     1  UNL1        0.0459
     51 C           5.4944   -3.4168   21.8407 C.ar    1  UNL1       -0.0205
     52 C           6.5265   -2.8703   20.8994 C.ar    1  UNL1       -0.0042
     53 C           6.2635   -2.8584   19.4227 C.ar    1  UNL1       -0.0003
     54 C           4.9685   -3.3932   18.8872 C.ar    1  UNL1       -0.0000
     55 C           3.9363   -3.9398   19.8285 C.ar    1  UNL1       -0.0003
     56 C           4.1993   -3.9516   21.3052 C.ar    1  UNL1       -0.0042
@<TRIPOS>BOND
     1    19    20    1
     2    20    21    1
     3    20    14    1
     4    14    15   ar
     5    15    16   ar
     6    16    13    1
     7    13     7    1
     8     7     8    1
     9     7     9   am
    10     9    10    2
    11     9    11   am
    12    11     6    1
    13     6    22    1
    14    22    23    1
    15    23    24   ar
    16    24    25   ar
    17    25    26   ar
    18    26    27   ar
    19     6     2    1
    20     2     3    2
    21     2     4   am
    22     4     1    1
    23     1    29    1
    24    29    30    1
    25    31    30    1
    26    31    43    1
    27    43    44    1
    28    44    45   ar
    29    45    46   ar
    30    46    47   ar
    31    47    48   ar
    32    48    49   ar
    33    31    32    1
    34    32    33   am
    35    33    34    2
    36    33    36    1
    37    36    37    1
    38    37    38    1
    39    38    39   ar
    40    39    40   ar
    41    40    41   ar
    42    41    42   ar
    43     1    50    1
    44    50    51    1
    45    51    52   ar
    46    52    53   ar
    47    53    54   ar
    48    54    55   ar
    49    55    56   ar
    50    16    17   ar
    51    17    18   ar
    52    18    14   ar
    53    27    23   ar
    54    49    44   ar
    55    42    38   ar
    56    56    51   ar
    57    11    12    1
    58    27    28    1
    59     4     5    1
    60    32    35    1
@<TRIPOS>MOLECULE
*****
 56 60 0 0 0
SMALL
GASTEIGER

@<TRIPOS>ATOM
      1 C           4.2299   -1.9029   23.8923 C.3     1  UNL1        0.0760
      2 C           5.7321   -1.8176   26.0103 C.2     1  UNL1        0.2407
      3 O           6.5406   -0.7154   25.3926 O.2     1  UNL1       -0.2733
      4 N           4.5768   -2.4114   25.2602 N.am    1  UNL1       -0.3043
      5 H           4.0461   -3.1347   25.6656 H       1  UNL1        0.1494
      6 C           6.0790   -2.3260   27.3783 C.3     1  UNL1        0.1556
      7 N           5.3542   -0.2265   30.6671 N.am    1  UNL1       -0.2567
      8 C           6.0403    0.7770   31.5460 C.3     1  UNL1        0.1168
      9 C           6.0596   -0.7745   29.4621 C.2     1  UNL1        0.3046
     10 O           7.4512   -0.3192   29.1361 O.2     1  UNL1       -0.2526
     11 N           5.3735   -1.7779   28.5833 N.am    1  UNL1       -0.2821
     12 H           4.4602   -2.0767   28.7973 H       1  UNL1        0.1514
     13 C           3.9627   -0.6818   30.9932 C.3     1  UNL1        0.1413
     14 C           0.6819    0.6548   29.4071 C.ar    1  UNL1        0.0875
     15 N           1.6294   -0.4688   29.7064 N.ar    1  UNL1       -0.2453
     16 C           2.7821    0.0919   30.4854 C.ar    1  UNL1        0.0858
     17 C           2.5469    1.5621   30.6676 C.ar    1  UNL1        0.0530
     18 S           1.2490    1.9100   30.0012 S.2     1  UNL1       -0.0705
     19 C          -0.9619    1.5742   27.6174 C.3     1  UNL1        0.0069
     20 C          -0.6065    0.5429   28.6471 C.3     1  UNL1        0.0465
     21 C          -1.5395   -0.6002   28.9168 C.3     1  UNL1        0.0069
     22 C           7.1312   -3.3826   27.5412 C.3     1  UNL1        0.0742
     23 C           7.2544   -4.1245   28.8390 C.ar    1  UNL1        0.0563
     24 C           8.1290   -3.7395   29.9952 C.ar    1  UNL1        0.1131
     25 N           7.9397   -4.7588   31.0792 N.ar    1  UNL1       -0.2229
     26 C           6.9482   -5.7739   30.5930 C.ar    1  UNL1        0.1748
     27 N           6.5246   -5.3819   29.2085 N.ar    1  UNL1       -0.3381
     28 H           5.8807   -5.8650   28.6418 H       1  UNL1        0.1672
     29 C           3.5124   -0.5948   23.7380 C.3     1  UNL1        0.0216
     30 C           3.8435    0.3113   22.5894 C.3     1  UNL1        0.0217
     31 C           2.9558    0.3451   21.3807 C.3     1  UNL1        0.0792
     32 N           1.4717    0.4893   21.5439 N.am    1  UNL1       -0.2720
     33 C           0.8446    1.8519   21.5311 C.2     1  UNL1        0.4019
     34 O           1.7016    3.0703   21.3551 O.2     1  UNL1       -0.2264
     35 H           0.9092   -0.3104   21.6594 H       1  UNL1        0.1527
     36 O          -0.6395    1.9960   21.6943 O.3     1  UNL1       -0.4291
     37 C          -1.2753    3.3519   21.6084 C.3     1  UNL1        0.2447
     38 C          -2.7301    3.4777   21.2654 C.ar    1  UNL1        0.0714
     39 C          -3.8661    3.5213   22.2440 C.ar    1  UNL1        0.1053
     40 N          -5.1425    3.6526   21.4670 N.ar    1  UNL1       -0.2350
     41 C          -4.7953    3.6901   20.0082 C.ar    1  UNL1        0.1343
     42 S          -3.3044    3.5820   19.8836 S.2     1  UNL1       -0.0652
     43 C           3.5523    0.2347   20.0088 C.3     1  UNL1        0.0460
     44 C           4.0278   -1.0948   19.5025 C.ar    1  UNL1       -0.0205
     45 C           5.3768   -1.2127   18.8572 C.ar    1  UNL1       -0.0042
     46 C           5.8522   -2.5422   18.3509 C.ar    1  UNL1       -0.0003
     47 C           4.9788   -3.7537   18.4899 C.ar    1  UNL1       -0.0000
     48 C           3.6299   -3.6358   19.1351 C.ar    1  UNL1       -0.0003
     49 C           3.1544   -2.3063   19.6415 C.ar    1  UNL1       -0.0042
     50 C           4.6007   -2.7027   22.6786 C.3     1  UNL1        0.0459
     51 C           6.0184   -2.7087   22.1887 C.ar    1  UNL1       -0.0205
     52 C           6.8025   -1.4306   22.1455 C.ar    1  UNL1       -0.0042
     53 C           8.2202   -1.4367   21.6557 C.ar    1  UNL1       -0.0003
     54 C           8.8539   -2.7207   21.2090 C.ar    1  UNL1       -0.0000
     55 C           8.0699   -3.9988   21.2522 C.ar    1  UNL1       -0.0003
     56 C           6.6522   -3.9928   21.7420 C.ar    1  UNL1       -0.0042
@<TRIPOS>BOND
     1    19    20    1
     2    20    21    1
     3    20    14    1
     4    14    15   ar
     5    15    16   ar
     6    16    13    1
     7    13     7    1
     8     7     8    1
     9     7     9   am
    10     9    10    2
    11     9    11   am
    12    11     6    1
    13     6    22    1
    14    22    23    1
    15    23    24   ar
    16    24    25   ar
    17    25    26   ar
    18    26    27   ar
    19     6     2    1
    20     2     3    2
    21     2     4   am
    22     4     1    1
    23     1    29    1
    24    29    30    1
    25    31    30    1
    26    31    43    1
    27    43    44    1
    28    44    45   ar
    29    45    46   ar
    30    46    47   ar
    31    47    48   ar
    32    48    49   ar
    33    31    32    1
    34    32    33   am
    35    33    34    2
    36    33    36    1
    37    36    37    1
    38    37    38    1
    39    38    39   ar
    40    39    40   ar
    41    40    41   ar
    42    41    42   ar
    43     1    50    1
    44    50    51    1
    45    51    52   ar
    46    52    53   ar
    47    53    54   ar
    48    54    55   ar
    49    55    56   ar
    50    16    17   ar
    51    17    18   ar
    52    18    14   ar
    53    27    23   ar
    54    49    44   ar
    55    42    38   ar
    56    56    51   ar
    57    11    12    1
    58    27    28    1
    59     4     5    1
    60    32    35    1
@<TRIPOS>MOLECULE
*****
 56 60 0 0 0
SMALL
GASTEIGER

@<TRIPOS>ATOM
      1 C           6.0191   -2.7201   23.7869 C.3     1  UNL1        0.0760
      2 C           6.7291   -3.2426   26.2309 C.2     1  UNL1        0.2407
      3 O           8.0633   -2.6048   25.9796 O.2     1  UNL1       -0.2733
      4 N           5.7070   -3.3002   25.1345 N.am    1  UNL1       -0.3043
      5 H           4.8313   -3.7188   25.2994 H       1  UNL1        0.1494
      6 C           6.4170   -3.8227   27.5784 C.3     1  UNL1        0.1556
      7 N           6.4207   -1.2864   30.6308 N.am    1  UNL1       -0.2567
      8 C           7.4028   -0.5288   31.4745 C.3     1  UNL1        0.1168
      9 C           6.9099   -2.1758   29.5265 C.2     1  UNL1        0.3046
     10 O           8.3811   -2.3076   29.2657 O.2     1  UNL1       -0.2526
     11 N           5.9278   -2.9333   28.6829 N.am    1  UNL1       -0.2821
     12 H           4.9622   -2.8467   28.8540 H       1  UNL1        0.1514
     13 C           4.9494   -1.1545   30.8916 C.3     1  UNL1        0.1413
     14 C           3.0660    1.9459   32.2721 C.ar    1  UNL1        0.0875
     15 N           3.3817    0.4801   32.3114 N.ar    1  UNL1       -0.2453
     16 C           4.3623    0.1875   31.2145 C.ar    1  UNL1        0.0858
     17 C           4.6526    1.4726   30.4974 C.ar    1  UNL1        0.0530
     18 S           3.8515    2.5594   31.1510 S.2     1  UNL1       -0.0705
     19 C           0.9962    3.4755   32.6276 C.3     1  UNL1        0.0069
     20 C           2.1294    2.6711   33.1923 C.3     1  UNL1        0.0465
     21 C           2.3259    2.5918   34.6773 C.3     1  UNL1        0.0069
     22 C           6.5940   -5.2922   27.8216 C.3     1  UNL1        0.0742
     23 C           7.4430   -5.7665   28.9637 C.ar    1  UNL1        0.0563
     24 C           7.0680   -5.7301   30.4156 C.ar    1  UNL1        0.1131
     25 N           8.2093   -6.3016   31.2036 N.ar    1  UNL1       -0.2229
     26 C           9.2896   -6.6912   30.2387 C.ar    1  UNL1        0.1748
     27 N           8.8160   -6.3605   28.8544 N.ar    1  UNL1       -0.3381
     28 H           9.3182   -6.5075   28.0205 H       1  UNL1        0.1672
     29 C           5.9021   -1.2418   23.5614 C.3     1  UNL1        0.0216
     30 C           4.8237   -0.4608   24.2521 C.3     1  UNL1        0.0217
     31 C           3.4009   -0.5777   23.7916 C.3     1  UNL1        0.0792
     32 N           2.3023    0.0748   24.5773 N.am    1  UNL1       -0.2720
     33 C           2.0649    1.5506   24.4516 C.2     1  UNL1        0.4019
     34 O           2.9260    2.3738   23.5402 O.2     1  UNL1       -0.2264
     35 H           1.7372   -0.4655   25.1755 H       1  UNL1        0.1527
     36 O           0.9663    2.2031   25.2373 O.3     1  UNL1       -0.4291
     37 C          -0.0864    1.3617   25.8960 C.3     1  UNL1        0.2447
     38 C           0.0956    0.9067   27.3137 C.ar    1  UNL1        0.0714
     39 C          -0.9663    0.3163   28.1934 C.ar    1  UNL1        0.1053
     40 N          -0.3468    0.0070   29.5240 N.ar    1  UNL1       -0.2350
     41 C           1.0980    0.4063   29.4667 C.ar    1  UNL1        0.1343
     42 S           1.3713    0.9623   28.1007 S.2     1  UNL1       -0.0652
     43 C           3.0767   -1.3470   22.5454 C.3     1  UNL1        0.0460
     44 C           2.9503   -0.6308   21.2334 C.ar    1  UNL1       -0.0205
     45 C           1.6648   -0.6976   20.4633 C.ar    1  UNL1       -0.0042
     46 C           1.5384    0.0185   19.1514 C.ar    1  UNL1       -0.0003
     47 C           2.6974    0.8015   18.6096 C.ar    1  UNL1       -0.0000
     48 C           3.9829    0.8683   19.3797 C.ar    1  UNL1       -0.0003
     49 C           4.1093    0.1522   20.6916 C.ar    1  UNL1       -0.0042
     50 C           6.4482   -3.6183   22.6647 C.3     1  UNL1        0.0459
     51 C           5.8289   -3.4700   21.3066 C.ar    1  UNL1       -0.0205
     52 C           6.5523   -2.7155   20.2308 C.ar    1  UNL1       -0.0042
     53 C           5.9330   -2.5672   18.8727 C.ar    1  UNL1       -0.0003
     54 C           4.5903   -3.1734   18.5904 C.ar    1  UNL1       -0.0000
     55 C           3.8669   -3.9280   19.6663 C.ar    1  UNL1       -0.0003
     56 C           4.4862   -4.0763   21.0244 C.ar    1  UNL1       -0.0042
@<TRIPOS>BOND
     1    19    20    1
     2    20    21    1
     3    20    14    1
     4    14    15   ar
     5    15    16   ar
     6    16    13    1
     7    13     7    1
     8     7     8    1
     9     7     9   am
    10     9    10    2
    11     9    11   am
    12    11     6    1
    13     6    22    1
    14    22    23    1
    15    23    24   ar
    16    24    25   ar
    17    25    26   ar
    18    26    27   ar
    19     6     2    1
    20     2     3    2
    21     2     4   am
    22     4     1    1
    23     1    29    1
    24    29    30    1
    25    31    30    1
    26    31    43    1
    27    43    44    1
    28    44    45   ar
    29    45    46   ar
    30    46    47   ar
    31    47    48   ar
    32    48    49   ar
    33    31    32    1
    34    32    33   am
    35    33    34    2
    36    33    36    1
    37    36    37    1
    38    37    38    1
    39    38    39   ar
    40    39    40   ar
    41    40    41   ar
    42    41    42   ar
    43     1    50    1
    44    50    51    1
    45    51    52   ar
    46    52    53   ar
    47    53    54   ar
    48    54    55   ar
    49    55    56   ar
    50    16    17   ar
    51    17    18   ar
    52    18    14   ar
    53    27    23   ar
    54    49    44   ar
    55    42    38   ar
    56    56    51   ar
    57    11    12    1
    58    27    28    1
    59     4     5    1
    60    32    35    1
