@<TRIPOS>MOLECULE
*****
 30 33 0 0 0
SMALL
GASTEIGER

@<TRIPOS>ATOM
      1 C         -11.7495  -17.9724   20.6918 C.3     1  UNL1        0.0940
      2 O          -9.5660  -15.9152   20.6915 O.2     1  UNL1       -0.2666
      3 C          -9.9008  -16.6534   21.9537 C.2     1  UNL1        0.2834
      4 C          -9.1438  -16.3629   23.2157 C.ar    1  UNL1        0.1985
      5 N          -8.0252  -15.4105   23.5186 N.ar    1  UNL1       -0.2227
      6 C          -7.6687  -15.5601   24.9679 C.ar    1  UNL1        0.0988
      7 C          -6.6422  -14.8799   25.8243 C.ar    1  UNL1        0.0206
      8 C          -6.5139  -15.2445   27.2736 C.ar    1  UNL1        0.0016
      9 C          -7.4121  -16.2894   27.8665 C.ar    1  UNL1        0.0016
     10 C          -8.4386  -16.9696   27.0100 C.ar    1  UNL1        0.0188
     11 C          -8.5669  -16.6050   25.5607 C.ar    1  UNL1        0.0790
     12 N          -9.4785  -17.1011   24.4778 N.ar    1  UNL1       -0.3060
     13 C         -10.5702  -18.1298   24.4779 C.3     1  UNL1        0.1291
     14 C         -11.3272  -18.4202   23.2159 C.3     1  UNL1        0.1183
     15 N         -10.9925  -17.6820   21.9538 N.am    1  UNL1       -0.2716
     16 C         -11.0794  -18.7041   19.5668 C.3     1  UNL1        0.0253
     17 C         -10.0411  -19.7455   19.8625 C.3     1  UNL1        0.0491
     18 C          -8.5862  -19.3809   19.8424 C.3     1  UNL1        0.2055
     19 O          -7.7931  -19.3901   21.1154 O.3     1  UNL1       -0.4755
     20 C          -6.2954  -19.3219   21.0666 C.ar    1  UNL1        0.1388
     21 C          -5.4997  -19.3907   22.3364 C.ar    1  UNL1        0.0400
     22 C          -4.0021  -19.3225   22.2877 C.ar    1  UNL1        0.0403
     23 C          -3.3000  -19.1855   20.9692 C.ar    1  UNL1        0.1470
     24 C          -4.0956  -19.1167   19.6995 C.ar    1  UNL1        0.0403
     25 C          -5.5934  -19.1849   19.7482 C.ar    1  UNL1        0.0400
     26 O          -1.8024  -19.1173   20.9205 O.3     1  UNL1       -0.4045
     27 C          -1.1217  -17.8315   20.5556 C.3     1  UNL1        0.5753
     28 F          -0.4409  -16.5456   20.1908 F       1  UNL1       -0.1328
     29 F          -2.0882  -17.0751   21.4180 F       1  UNL1       -0.1328
     30 F          -0.1551  -18.5878   19.6932 F       1  UNL1       -0.1328
@<TRIPOS>BOND
     1     2     3    2
     2     3     4    1
     3     4     5   ar
     4     5     6   ar
     5     6     7   ar
     6     7     8   ar
     7     8     9   ar
     8     9    10   ar
     9    10    11   ar
    10    11    12   ar
    11    12    13    1
    12    13    14    1
    13    14    15    1
    14    15     1    1
    15     1    16    1
    16    16    17    1
    17    17    18    1
    18    18    19    1
    19    19    20    1
    20    20    21   ar
    21    21    22   ar
    22    22    23   ar
    23    23    26    1
    24    26    27    1
    25    27    28    1
    26    27    29    1
    27    27    30    1
    28    23    24   ar
    29    24    25   ar
    30    15     3   am
    31    25    20   ar
    32    12     4   ar
    33    11     6   ar
@<TRIPOS>MOLECULE
*****
 30 33 0 0 0
SMALL
GASTEIGER

@<TRIPOS>ATOM
      1 C         -11.6000  -17.6585   20.5928 C.3     1  UNL1        0.0940
      2 O         -11.8978  -18.4024   23.4838 O.2     1  UNL1       -0.2666
      3 C         -10.7445  -17.5503   23.0436 C.2     1  UNL1        0.2834
      4 C          -9.7401  -17.0701   24.0489 C.ar    1  UNL1        0.1985
      5 N          -9.6267  -17.2740   25.5306 N.ar    1  UNL1       -0.2227
      6 C          -8.4033  -16.5479   26.0062 C.ar    1  UNL1        0.0988
      7 C          -7.7916  -16.3967   27.3674 C.ar    1  UNL1        0.0206
      8 C          -6.5371  -15.5928   27.5407 C.ar    1  UNL1        0.0016
      9 C          -5.8944  -14.9401   26.3529 C.ar    1  UNL1        0.0016
     10 C          -6.5062  -15.0913   24.9917 C.ar    1  UNL1        0.0188
     11 C          -7.7607  -15.8952   24.8184 C.ar    1  UNL1        0.0790
     12 N          -8.5868  -16.2180   23.6087 N.ar    1  UNL1       -0.3060
     13 C          -8.4379  -15.8460   22.1632 C.3     1  UNL1        0.1291
     14 C          -9.4423  -16.3262   21.1579 C.3     1  UNL1        0.1183
     15 N         -10.5956  -17.1783   21.5981 N.am    1  UNL1       -0.2716
     16 C         -11.1860  -18.6219   19.5202 C.3     1  UNL1        0.0253
     17 C         -10.1796  -19.6926   19.8215 C.3     1  UNL1        0.0491
     18 C          -8.8755  -19.7258   19.0811 C.3     1  UNL1        0.2055
     19 O          -7.7654  -20.6152   19.5569 O.3     1  UNL1       -0.4755
     20 C          -6.6425  -20.0434   20.3706 C.ar    1  UNL1        0.1388
     21 C          -5.2228  -20.4050   20.0482 C.ar    1  UNL1        0.0400
     22 C          -4.0999  -19.8332   20.8618 C.ar    1  UNL1        0.0403
     23 C          -4.3965  -18.8998   21.9980 C.ar    1  UNL1        0.1470
     24 C          -5.8160  -18.5383   22.3204 C.ar    1  UNL1        0.0403
     25 C          -6.9391  -19.1101   21.5067 C.ar    1  UNL1        0.0400
     26 O          -3.2736  -18.3281   22.8116 O.3     1  UNL1       -0.4045
     27 C          -2.6053  -17.0568   22.3787 C.3     1  UNL1        0.5753
     28 F          -1.9371  -15.7856   21.9457 F       1  UNL1       -0.1328
     29 F          -1.5663  -17.8526   21.6458 F       1  UNL1       -0.1328
     30 F          -3.6444  -16.2611   23.1115 F       1  UNL1       -0.1328
@<TRIPOS>BOND
     1     2     3    2
     2     3     4    1
     3     4     5   ar
     4     5     6   ar
     5     6     7   ar
     6     7     8   ar
     7     8     9   ar
     8     9    10   ar
     9    10    11   ar
    10    11    12   ar
    11    12    13    1
    12    13    14    1
    13    14    15    1
    14    15     1    1
    15     1    16    1
    16    16    17    1
    17    17    18    1
    18    18    19    1
    19    19    20    1
    20    20    21   ar
    21    21    22   ar
    22    22    23   ar
    23    23    26    1
    24    26    27    1
    25    27    28    1
    26    27    29    1
    27    27    30    1
    28    23    24   ar
    29    24    25   ar
    30    15     3   am
    31    25    20   ar
    32    12     4   ar
    33    11     6   ar
@<TRIPOS>MOLECULE
*****
 30 33 0 0 0
SMALL
GASTEIGER

@<TRIPOS>ATOM
      1 C          -5.6295  -20.5760   20.1711 C.3     1  UNL1        0.0940
      2 O          -7.8741  -19.1467   18.7860 O.2     1  UNL1       -0.2666
      3 C          -7.9905  -19.4940   20.2405 C.2     1  UNL1        0.2834
      4 C          -9.2293  -19.1266   21.0026 C.ar    1  UNL1        0.1985
      5 N         -10.4897  -18.4251   20.5912 N.ar    1  UNL1       -0.2227
      6 C         -11.3851  -18.3389   21.7916 C.ar    1  UNL1        0.0988
      7 C         -12.7529  -17.7539   21.9835 C.ar    1  UNL1        0.0206
      8 C         -13.4137  -17.8171   23.3286 C.ar    1  UNL1        0.0016
      9 C         -12.7066  -18.4653   24.4818 C.ar    1  UNL1        0.0016
     10 C         -11.3388  -19.0502   24.2899 C.ar    1  UNL1        0.0188
     11 C         -10.6781  -18.9871   22.9448 C.ar    1  UNL1        0.0790
     12 N          -9.3457  -19.4739   22.4571 N.ar    1  UNL1       -0.3060
     13 C          -8.2234  -20.1885   23.1497 C.3     1  UNL1        0.1291
     14 C          -6.9847  -20.5559   22.3877 C.3     1  UNL1        0.1183
     15 N          -6.8682  -20.2086   20.9331 N.am    1  UNL1       -0.2716
     16 C          -4.5114  -19.5855   20.0348 C.3     1  UNL1        0.0253
     17 C          -3.3508  -19.6291   20.9841 C.3     1  UNL1        0.0491
     18 C          -3.4454  -18.9460   22.3162 C.3     1  UNL1        0.2055
     19 O          -3.6514  -17.4619   22.3850 O.3     1  UNL1       -0.4755
     20 C          -4.7816  -16.8982   23.1943 C.ar    1  UNL1        0.1388
     21 C          -6.2007  -17.1596   22.7845 C.ar    1  UNL1        0.0400
     22 C          -7.3310  -16.5959   23.5936 C.ar    1  UNL1        0.0403
     23 C          -7.0422  -15.7708   24.8126 C.ar    1  UNL1        0.1470
     24 C          -5.6232  -15.5094   25.2223 C.ar    1  UNL1        0.0403
     25 C          -4.4928  -16.0731   24.4131 C.ar    1  UNL1        0.0400
     26 O          -8.1725  -15.2071   25.6217 O.3     1  UNL1       -0.4045
     27 C          -8.5473  -15.8398   26.9291 C.3     1  UNL1        0.5753
     28 F          -8.9221  -16.4724   28.2365 F       1  UNL1       -0.1328
     29 F          -8.0792  -14.6142   27.6564 F       1  UNL1       -0.1328
     30 F          -9.0154  -17.0653   26.2019 F       1  UNL1       -0.1328
@<TRIPOS>BOND
     1     2     3    2
     2     3     4    1
     3     4     5   ar
     4     5     6   ar
     5     6     7   ar
     6     7     8   ar
     7     8     9   ar
     8     9    10   ar
     9    10    11   ar
    10    11    12   ar
    11    12    13    1
    12    13    14    1
    13    14    15    1
    14    15     1    1
    15     1    16    1
    16    16    17    1
    17    17    18    1
    18    18    19    1
    19    19    20    1
    20    20    21   ar
    21    21    22   ar
    22    22    23   ar
    23    23    26    1
    24    26    27    1
    25    27    28    1
    26    27    29    1
    27    27    30    1
    28    23    24   ar
    29    24    25   ar
    30    15     3   am
    31    25    20   ar
    32    12     4   ar
    33    11     6   ar
@<TRIPOS>MOLECULE
*****
 30 33 0 0 0
SMALL
GASTEIGER

@<TRIPOS>ATOM
      1 C         -11.4971  -19.5307   21.6144 C.3     1  UNL1        0.0940
      2 O          -9.8945  -18.9347   19.1494 O.2     1  UNL1       -0.2666
      3 C          -9.1971  -19.2285   20.4445 C.2     1  UNL1        0.2834
      4 C          -7.6984  -19.2243   20.5071 C.ar    1  UNL1        0.1985
      5 N          -6.6510  -18.9676   19.4646 N.ar    1  UNL1       -0.2227
      6 C          -5.3062  -19.1028   20.1153 C.ar    1  UNL1        0.0988
      7 C          -3.9127  -18.9600   19.5790 C.ar    1  UNL1        0.0206
      8 C          -2.7356  -19.1574   20.4874 C.ar    1  UNL1        0.0016
      9 C          -2.9520  -19.4977   21.9322 C.ar    1  UNL1        0.0016
     10 C          -4.3454  -19.6405   22.4685 C.ar    1  UNL1        0.0188
     11 C          -5.5226  -19.4430   21.5601 C.ar    1  UNL1        0.0790
     12 N          -7.0010  -19.5181   21.8022 N.ar    1  UNL1       -0.3060
     13 C          -7.8023  -19.8161   23.0347 C.3     1  UNL1        0.1291
     14 C          -9.3010  -19.8203   22.9721 C.3     1  UNL1        0.1183
     15 N          -9.9984  -19.5265   21.6770 N.am    1  UNL1       -0.2716
     16 C         -12.2694  -18.3215   22.0517 C.3     1  UNL1        0.0253
     17 C         -12.4181  -17.1510   21.1255 C.3     1  UNL1        0.0491
     18 C         -11.5670  -15.9307   21.3163 C.3     1  UNL1        0.2055
     19 O         -10.0765  -16.0268   21.1785 O.3     1  UNL1       -0.4755
     20 C          -9.2135  -16.1057   22.4028 C.ar    1  UNL1        0.1388
     21 C          -7.7233  -15.9863   22.2789 C.ar    1  UNL1        0.0400
     22 C          -6.8602  -16.0652   23.5032 C.ar    1  UNL1        0.0403
     23 C          -7.4872  -16.2634   24.8514 C.ar    1  UNL1        0.1470
     24 C          -8.9773  -16.3827   24.9752 C.ar    1  UNL1        0.0403
     25 C          -9.8405  -16.3038   23.7509 C.ar    1  UNL1        0.0400
     26 O          -6.6242  -16.3423   26.0756 O.3     1  UNL1       -0.4045
     27 C          -6.6525  -15.2339   27.0859 C.3     1  UNL1        0.5753
     28 F          -6.6808  -14.1255   28.0962 F       1  UNL1       -0.1328
     29 F          -5.5538  -14.5308   26.3453 F       1  UNL1       -0.1328
     30 F          -7.7512  -15.9370   27.8265 F       1  UNL1       -0.1328
@<TRIPOS>BOND
     1     2     3    2
     2     3     4    1
     3     4     5   ar
     4     5     6   ar
     5     6     7   ar
     6     7     8   ar
     7     8     9   ar
     8     9    10   ar
     9    10    11   ar
    10    11    12   ar
    11    12    13    1
    12    13    14    1
    13    14    15    1
    14    15     1    1
    15     1    16    1
    16    16    17    1
    17    17    18    1
    18    18    19    1
    19    19    20    1
    20    20    21   ar
    21    21    22   ar
    22    22    23   ar
    23    23    26    1
    24    26    27    1
    25    27    28    1
    26    27    29    1
    27    27    30    1
    28    23    24   ar
    29    24    25   ar
    30    15     3   am
    31    25    20   ar
    32    12     4   ar
    33    11     6   ar
@<TRIPOS>MOLECULE
*****
 30 33 0 0 0
SMALL
GASTEIGER

@<TRIPOS>ATOM
      1 C          -8.0380  -15.2327   27.0413 C.3     1  UNL1        0.0940
      2 O          -7.8881  -14.4062   24.1613 O.2     1  UNL1       -0.2666
      3 C          -8.5037  -15.7227   24.5328 C.2     1  UNL1        0.2834
      4 C          -9.0443  -16.6260   23.4642 C.ar    1  UNL1        0.1985
      5 N          -9.1098  -16.4883   21.9719 N.ar    1  UNL1       -0.2227
      6 C          -9.7658  -17.7197   21.4211 C.ar    1  UNL1        0.0988
      7 C         -10.0975  -18.1386   20.0196 C.ar    1  UNL1        0.0206
      8 C         -10.7692  -19.4564   19.7698 C.ar    1  UNL1        0.0016
      9 C         -11.1091  -20.3551   20.9216 C.ar    1  UNL1        0.0016
     10 C         -10.7774  -19.9362   22.3232 C.ar    1  UNL1        0.0188
     11 C         -10.1057  -18.6184   22.5729 C.ar    1  UNL1        0.0790
     12 N          -9.6598  -17.9425   23.8356 N.ar    1  UNL1       -0.3060
     13 C          -9.7347  -18.3557   25.2756 C.3     1  UNL1        0.1291
     14 C          -9.1941  -17.4524   26.3442 C.3     1  UNL1        0.1183
     15 N          -8.5786  -16.1359   25.9727 N.am    1  UNL1       -0.2716
     16 C          -6.5909  -15.3111   27.4283 C.3     1  UNL1        0.0253
     17 C          -5.5259  -15.0295   26.4102 C.3     1  UNL1        0.0491
     18 C          -4.8359  -16.1644   25.7132 C.3     1  UNL1        0.2055
     19 O          -5.2689  -16.5734   24.3366 O.3     1  UNL1       -0.4755
     20 C          -4.2635  -17.1149   23.3640 C.ar    1  UNL1        0.1388
     21 C          -3.2539  -16.1973   22.7402 C.ar    1  UNL1        0.0400
     22 C          -2.2485  -16.7386   21.7676 C.ar    1  UNL1        0.0403
     23 C          -2.2526  -18.1975   21.4186 C.ar    1  UNL1        0.1470
     24 C          -3.2621  -19.1149   22.0422 C.ar    1  UNL1        0.0403
     25 C          -4.2676  -18.5736   23.0150 C.ar    1  UNL1        0.0400
     26 O          -1.2472  -18.7388   20.4459 O.3     1  UNL1       -0.4045
     27 C          -1.2549  -18.2707   19.0208 C.3     1  UNL1        0.5753
     28 F          -1.2626  -17.8026   17.5958 F       1  UNL1       -0.1328
     29 F           0.1496  -17.7683   19.1783 F       1  UNL1       -0.1328
     30 F          -2.6595  -18.7731   18.8634 F       1  UNL1       -0.1328
@<TRIPOS>BOND
     1     2     3    2
     2     3     4    1
     3     4     5   ar
     4     5     6   ar
     5     6     7   ar
     6     7     8   ar
     7     8     9   ar
     8     9    10   ar
     9    10    11   ar
    10    11    12   ar
    11    12    13    1
    12    13    14    1
    13    14    15    1
    14    15     1    1
    15     1    16    1
    16    16    17    1
    17    17    18    1
    18    18    19    1
    19    19    20    1
    20    20    21   ar
    21    21    22   ar
    22    22    23   ar
    23    23    26    1
    24    26    27    1
    25    27    28    1
    26    27    29    1
    27    27    30    1
    28    23    24   ar
    29    24    25   ar
    30    15     3   am
    31    25    20   ar
    32    12     4   ar
    33    11     6   ar
@<TRIPOS>MOLECULE
*****
 30 33 0 0 0
SMALL
GASTEIGER

@<TRIPOS>ATOM
      1 C         -10.9260  -19.7826   21.1534 C.3     1  UNL1        0.0940
      2 O          -9.0189  -19.5342   23.4557 O.2     1  UNL1       -0.2666
      3 C          -8.5033  -19.4979   22.0476 C.2     1  UNL1        0.2834
      4 C          -7.0342  -19.3374   21.7906 C.ar    1  UNL1        0.1985
      5 N          -5.8632  -19.1923   22.7167 N.ar    1  UNL1       -0.2227
      6 C          -4.6240  -19.0663   21.8810 C.ar    1  UNL1        0.0988
      7 C          -3.1791  -18.8990   22.2472 C.ar    1  UNL1        0.0206
      8 C          -2.1393  -18.7990   21.1708 C.ar    1  UNL1        0.0016
      9 C          -2.5444  -18.8662   19.7281 C.ar    1  UNL1        0.0016
     10 C          -3.9893  -19.0335   19.3618 C.ar    1  UNL1        0.0188
     11 C          -5.0291  -19.1335   20.4383 C.ar    1  UNL1        0.0790
     12 N          -6.5187  -19.3011   20.3824 N.ar    1  UNL1       -0.3060
     13 C          -7.4723  -19.4252   19.2313 C.3     1  UNL1        0.1291
     14 C          -8.9414  -19.5858   19.4882 C.3     1  UNL1        0.1183
     15 N          -9.4569  -19.6221   20.8964 N.am    1  UNL1       -0.2716
     16 C         -11.8131  -18.5746   21.2143 C.3     1  UNL1        0.0253
     17 C         -11.6295  -17.4588   20.2288 C.3     1  UNL1        0.0491
     18 C         -11.2490  -16.0895   20.7085 C.3     1  UNL1        0.2055
     19 O          -9.8050  -15.7432   20.9196 O.3     1  UNL1       -0.4755
     20 C          -9.1820  -15.9173   22.2730 C.ar    1  UNL1        0.1388
     21 C         -10.0354  -16.2894   23.4492 C.ar    1  UNL1        0.0400
     22 C          -9.4125  -16.4636   24.8026 C.ar    1  UNL1        0.0403
     23 C          -7.9362  -16.2657   24.9798 C.ar    1  UNL1        0.1470
     24 C          -7.0829  -15.8936   23.8037 C.ar    1  UNL1        0.0403
     25 C          -7.7058  -15.7194   22.4503 C.ar    1  UNL1        0.0400
     26 O          -7.3133  -16.4398   26.3332 O.3     1  UNL1       -0.4045
     27 C          -7.0727  -15.2449   27.2074 C.3     1  UNL1        0.5753
     28 F          -6.8321  -14.0500   28.0817 F       1  UNL1       -0.1328
     29 F          -8.4792  -15.3370   27.7204 F       1  UNL1       -0.1328
     30 F          -5.6661  -15.1528   26.6945 F       1  UNL1       -0.1328
@<TRIPOS>BOND
     1     2     3    2
     2     3     4    1
     3     4     5   ar
     4     5     6   ar
     5     6     7   ar
     6     7     8   ar
     7     8     9   ar
     8     9    10   ar
     9    10    11   ar
    10    11    12   ar
    11    12    13    1
    12    13    14    1
    13    14    15    1
    14    15     1    1
    15     1    16    1
    16    16    17    1
    17    17    18    1
    18    18    19    1
    19    19    20    1
    20    20    21   ar
    21    21    22   ar
    22    22    23   ar
    23    23    26    1
    24    26    27    1
    25    27    28    1
    26    27    29    1
    27    27    30    1
    28    23    24   ar
    29    24    25   ar
    30    15     3   am
    31    25    20   ar
    32    12     4   ar
    33    11     6   ar
@<TRIPOS>MOLECULE
*****
 30 33 0 0 0
SMALL
GASTEIGER

@<TRIPOS>ATOM
      1 C          -8.0501  -15.0461   24.9464 C.3     1  UNL1        0.0940
      2 O          -5.0587  -15.0533   25.1722 O.2     1  UNL1       -0.2666
      3 C          -5.7415  -15.9944   24.2246 C.2     1  UNL1        0.2834
      4 C          -4.9287  -16.9392   23.3899 C.ar    1  UNL1        0.1985
      5 N          -3.4500  -17.1691   23.2863 N.ar    1  UNL1       -0.2227
      6 C          -3.2190  -18.2523   22.2747 C.ar    1  UNL1        0.0988
      7 C          -1.9649  -18.8952   21.7612 C.ar    1  UNL1        0.0206
      8 C          -2.0466  -19.9776   20.7261 C.ar    1  UNL1        0.0016
      9 C          -3.3825  -20.4172   20.2044 C.ar    1  UNL1        0.0016
     10 C          -4.6367  -19.7743   20.7179 C.ar    1  UNL1        0.0188
     11 C          -4.5549  -18.6919   21.7531 C.ar    1  UNL1        0.0790
     12 N          -5.6115  -17.8803   22.4423 N.ar    1  UNL1       -0.3060
     13 C          -7.1072  -17.8767   22.3294 C.3     1  UNL1        0.1291
     14 C          -7.9201  -16.9320   23.1641 C.3     1  UNL1        0.1183
     15 N          -7.2373  -15.9908   24.1117 N.am    1  UNL1       -0.2716
     16 C          -8.4380  -15.4248   26.3451 C.3     1  UNL1        0.0253
     17 C          -8.2769  -16.8416   26.8105 C.3     1  UNL1        0.0491
     18 C          -9.4657  -17.7551   26.8583 C.3     1  UNL1        0.2055
     19 O          -9.6013  -18.8625   25.8558 O.3     1  UNL1       -0.4755
     20 C         -10.2706  -18.6039   24.5385 C.ar    1  UNL1        0.1388
     21 C         -10.2395  -19.6496   23.4634 C.ar    1  UNL1        0.0400
     22 C         -10.9088  -19.3912   22.1461 C.ar    1  UNL1        0.0403
     23 C         -11.6092  -18.0871   21.9038 C.ar    1  UNL1        0.1470
     24 C         -11.6403  -17.0415   22.9788 C.ar    1  UNL1        0.0403
     25 C         -10.9710  -17.2999   24.2962 C.ar    1  UNL1        0.0400
     26 O         -12.2784  -17.8286   20.5865 O.3     1  UNL1       -0.4045
     27 C         -11.8276  -16.6842   19.7280 C.3     1  UNL1        0.5753
     28 F         -11.3768  -15.5397   18.8695 F       1  UNL1       -0.1328
     29 F         -13.0156  -15.8832   20.1720 F       1  UNL1       -0.1328
     30 F         -10.6396  -17.4852   19.2841 F       1  UNL1       -0.1328
@<TRIPOS>BOND
     1     2     3    2
     2     3     4    1
     3     4     5   ar
     4     5     6   ar
     5     6     7   ar
     6     7     8   ar
     7     8     9   ar
     8     9    10   ar
     9    10    11   ar
    10    11    12   ar
    11    12    13    1
    12    13    14    1
    13    14    15    1
    14    15     1    1
    15     1    16    1
    16    16    17    1
    17    17    18    1
    18    18    19    1
    19    19    20    1
    20    20    21   ar
    21    21    22   ar
    22    22    23   ar
    23    23    26    1
    24    26    27    1
    25    27    28    1
    26    27    29    1
    27    27    30    1
    28    23    24   ar
    29    24    25   ar
    30    15     3   am
    31    25    20   ar
    32    12     4   ar
    33    11     6   ar
@<TRIPOS>MOLECULE
*****
 30 33 0 0 0
SMALL
GASTEIGER

@<TRIPOS>ATOM
      1 C          -5.3790  -20.7277   20.2197 C.3     1  UNL1        0.0940
      2 O          -6.3255  -20.9925   23.0541 O.2     1  UNL1       -0.2666
      3 C          -7.1987  -20.3289   22.0307 C.2     1  UNL1        0.2834
      4 C          -8.5451  -19.7978   22.4246 C.ar    1  UNL1        0.1985
      5 N          -9.2745  -19.7839   23.7352 N.ar    1  UNL1       -0.2227
      6 C         -10.5984  -19.1117   23.5219 C.ar    1  UNL1        0.0988
      7 C         -11.7344  -18.8134   24.4548 C.ar    1  UNL1        0.0206
      8 C         -12.9593  -18.1135   23.9451 C.ar    1  UNL1        0.0016
      9 C         -13.0482  -17.7120   22.5026 C.ar    1  UNL1        0.0016
     10 C         -11.9121  -18.0103   21.5697 C.ar    1  UNL1        0.0188
     11 C         -10.6872  -18.7101   22.0794 C.ar    1  UNL1        0.0790
     12 N          -9.4182  -19.1342   21.4012 N.ar    1  UNL1       -0.3060
     13 C          -8.9449  -19.0017   19.9840 C.3     1  UNL1        0.1291
     14 C          -7.5985  -19.5329   19.5902 C.3     1  UNL1        0.1183
     15 N          -6.7254  -20.1965   20.6135 N.am    1  UNL1       -0.2716
     16 C          -4.3822  -19.8257   19.5543 C.3     1  UNL1        0.0253
     17 C          -3.0845  -19.5090   20.2367 C.3     1  UNL1        0.0491
     18 C          -2.9887  -18.3263   21.1543 C.3     1  UNL1        0.2055
     19 O          -3.2181  -18.4988   22.6265 O.3     1  UNL1       -0.4755
     20 C          -4.2508  -17.6667   23.3274 C.ar    1  UNL1        0.1388
     21 C          -3.9410  -17.0535   24.6609 C.ar    1  UNL1        0.0400
     22 C          -4.9736  -16.2215   25.3618 C.ar    1  UNL1        0.0403
     23 C          -6.3160  -16.0025   24.7293 C.ar    1  UNL1        0.1470
     24 C          -6.6257  -16.6157   23.3959 C.ar    1  UNL1        0.0403
     25 C          -5.5931  -17.4478   22.6949 C.ar    1  UNL1        0.0400
     26 O          -7.3486  -15.1704   25.4302 O.3     1  UNL1       -0.4045
     27 C          -8.0234  -15.6944   26.6631 C.3     1  UNL1        0.5753
     28 F          -8.6981  -16.2184   27.8961 F       1  UNL1       -0.1328
     29 F          -7.1306  -14.8410   27.5144 F       1  UNL1       -0.1328
     30 F          -8.9162  -16.5478   25.8119 F       1  UNL1       -0.1328
@<TRIPOS>BOND
     1     2     3    2
     2     3     4    1
     3     4     5   ar
     4     5     6   ar
     5     6     7   ar
     6     7     8   ar
     7     8     9   ar
     8     9    10   ar
     9    10    11   ar
    10    11    12   ar
    11    12    13    1
    12    13    14    1
    13    14    15    1
    14    15     1    1
    15     1    16    1
    16    16    17    1
    17    17    18    1
    18    18    19    1
    19    19    20    1
    20    20    21   ar
    21    21    22   ar
    22    22    23   ar
    23    23    26    1
    24    26    27    1
    25    27    28    1
    26    27    29    1
    27    27    30    1
    28    23    24   ar
    29    24    25   ar
    30    15     3   am
    31    25    20   ar
    32    12     4   ar
    33    11     6   ar
@<TRIPOS>MOLECULE
*****
 30 33 0 0 0
SMALL
GASTEIGER

@<TRIPOS>ATOM
      1 C          -7.5579  -14.8833   25.4778 C.3     1  UNL1        0.0940
      2 O          -8.7385  -16.3625   23.1502 O.2     1  UNL1       -0.2666
      3 C          -7.2904  -16.5431   23.4970 C.2     1  UNL1        0.2834
      4 C          -6.4326  -17.4634   22.6801 C.ar    1  UNL1        0.1985
      5 N          -6.7332  -18.3190   21.4853 N.ar    1  UNL1       -0.2227
      6 C          -5.4709  -19.0284   21.0937 C.ar    1  UNL1        0.0988
      7 C          -5.1660  -20.0003   19.9926 C.ar    1  UNL1        0.0206
      8 C          -3.7803  -20.5550   19.8444 C.ar    1  UNL1        0.0016
      9 C          -2.6995  -20.1378   20.7972 C.ar    1  UNL1        0.0016
     10 C          -3.0044  -19.1659   21.8983 C.ar    1  UNL1        0.0188
     11 C          -4.3901  -18.6112   22.0465 C.ar    1  UNL1        0.0790
     12 N          -4.9845  -17.6440   23.0269 N.ar    1  UNL1       -0.3060
     13 C          -4.3942  -16.9044   24.1907 C.3     1  UNL1        0.1291
     14 C          -5.2520  -15.9841   25.0077 C.3     1  UNL1        0.1183
     15 N          -6.7001  -15.8035   24.6608 N.am    1  UNL1       -0.2716
     16 C          -7.8084  -15.1805   26.9266 C.3     1  UNL1        0.0253
     17 C          -8.7209  -16.3060   27.3145 C.3     1  UNL1        0.0491
     18 C          -8.6271  -17.6254   26.6071 C.3     1  UNL1        0.2055
     19 O          -9.8748  -18.3887   26.2750 O.3     1  UNL1       -0.4755
     20 C         -10.1726  -18.7567   24.8516 C.ar    1  UNL1        0.1388
     21 C          -9.2333  -19.6490   24.0954 C.ar    1  UNL1        0.0400
     22 C          -9.5309  -20.0170   22.6721 C.ar    1  UNL1        0.0403
     23 C         -10.7679  -19.4929   22.0049 C.ar    1  UNL1        0.1470
     24 C         -11.7071  -18.6007   22.7610 C.ar    1  UNL1        0.0403
     25 C         -11.4095  -18.2326   24.1844 C.ar    1  UNL1        0.0400
     26 O         -11.0656  -19.8610   20.5815 O.3     1  UNL1       -0.4045
     27 C         -10.1029  -19.4878   19.4934 C.3     1  UNL1        0.5753
     28 F          -9.1403  -19.1146   18.4052 F       1  UNL1       -0.1328
     29 F         -10.6244  -18.0815   19.5143 F       1  UNL1       -0.1328
     30 F          -9.5815  -20.8941   19.4724 F       1  UNL1       -0.1328
@<TRIPOS>BOND
     1     2     3    2
     2     3     4    1
     3     4     5   ar
     4     5     6   ar
     5     6     7   ar
     6     7     8   ar
     7     8     9   ar
     8     9    10   ar
     9    10    11   ar
    10    11    12   ar
    11    12    13    1
    12    13    14    1
    13    14    15    1
    14    15     1    1
    15     1    16    1
    16    16    17    1
    17    17    18    1
    18    18    19    1
    19    19    20    1
    20    20    21   ar
    21    21    22   ar
    22    22    23   ar
    23    23    26    1
    24    26    27    1
    25    27    28    1
    26    27    29    1
    27    27    30    1
    28    23    24   ar
    29    24    25   ar
    30    15     3   am
    31    25    20   ar
    32    12     4   ar
    33    11     6   ar
