@<TRIPOS>MOLECULE
*****
 25 28 0 0 0
SMALL
GASTEIGER

@<TRIPOS>ATOM
      1 N          -8.0960  -18.0310   22.4080 N.ar    1  UNL1       -0.3087
      2 C          -8.3175  -16.7280   23.1173 C.ar    1  UNL1        0.1493
      3 N          -9.5387  -16.0833   22.5317 N.ar    1  UNL1       -0.2284
      4 C         -10.0720  -16.9878   21.4606 C.ar    1  UNL1        0.0984
      5 C         -11.2543  -16.8709   20.5450 C.ar    1  UNL1        0.0206
      6 C         -11.5450  -17.9577   19.5529 C.ar    1  UNL1        0.0016
      7 C         -10.6533  -19.1615   19.4765 C.ar    1  UNL1        0.0016
      8 C          -9.4710  -19.2785   20.3921 C.ar    1  UNL1        0.0188
      9 C          -9.1804  -18.1916   21.3841 C.ar    1  UNL1        0.0789
     10 C          -7.4670  -16.1680   24.2187 C.3     1  UNL1        0.1869
     11 C          -6.1395  -15.5469   23.8994 C.3     1  UNL1        0.1064
     12 N          -5.2891  -14.9869   25.0008 N.3     1  UNL1       -0.2930
     13 C          -5.7661  -15.0480   26.4216 C.3     1  UNL1        0.1011
     14 C          -7.0936  -15.6691   26.7409 C.3     1  UNL1        0.1597
     15 O          -7.9440  -16.2291   25.6395 O.3     1  UNL1       -0.3458
     16 H          -5.1367  -14.0021   24.7834 H       1  UNL1        0.1234
     17 C          -6.9852  -19.0028   22.6757 C.3     1  UNL1        0.1339
     18 C          -1.8509  -18.6133   19.5956 C.3     1  UNL1        0.0307
     19 C          -3.1344  -18.7106   20.3657 C.ar    1  UNL1       -0.0258
     20 C          -4.3958  -19.1306   19.6709 C.ar    1  UNL1       -0.0048
     21 C          -5.6793  -19.2280   20.4409 C.ar    1  UNL1       -0.0027
     22 C          -5.7016  -18.9054   21.9057 C.ar    1  UNL1        0.0001
     23 C          -4.4403  -18.4855   22.6004 C.ar    1  UNL1       -0.0070
     24 C          -3.1567  -18.3881   21.8304 C.ar    1  UNL1       -0.0260
     25 C          -1.8953  -17.9682   22.5251 C.3     1  UNL1        0.0307
@<TRIPOS>BOND
     1    18    19    1
     2    19    20   ar
     3    20    21   ar
     4    21    22   ar
     5    22    17    1
     6    17     1    1
     7     1     2   ar
     8     2    10    1
     9    10    11    1
    10    11    12    1
    11    12    13    1
    12    13    14    1
    13    14    15    1
    14     2     3   ar
    15     3     4   ar
    16     4     5   ar
    17     5     6   ar
    18     6     7   ar
    19     7     8   ar
    20     8     9   ar
    21    22    23   ar
    22    23    24   ar
    23    24    25    1
    24    24    19   ar
    25     9     1   ar
    26    15    10    1
    27     9     4   ar
    28    12    16    1
@<TRIPOS>MOLECULE
*****
 25 28 0 0 0
SMALL
GASTEIGER

@<TRIPOS>ATOM
      1 N          -4.2055  -18.1404   22.3175 N.ar    1  UNL1       -0.3087
      2 C          -4.3621  -16.7768   22.9223 C.ar    1  UNL1        0.1493
      3 N          -3.2057  -15.9343   22.4717 N.ar    1  UNL1       -0.2284
      4 C          -2.3344  -16.7773   21.5884 C.ar    1  UNL1        0.0984
      5 C          -1.0582  -16.4796   20.8586 C.ar    1  UNL1        0.0206
      6 C          -0.4000  -17.5453   20.0334 C.ar    1  UNL1        0.0016
      7 C          -1.0179  -18.9088   19.9381 C.ar    1  UNL1        0.0016
      8 C          -2.2941  -19.2065   20.6679 C.ar    1  UNL1        0.0188
      9 C          -2.9523  -18.1408   21.4931 C.ar    1  UNL1        0.0789
     10 C          -5.4789  -16.3334   23.8201 C.3     1  UNL1        0.1869
     11 C          -5.1959  -15.9772   25.2494 C.3     1  UNL1        0.1064
     12 N          -6.3128  -15.5339   26.1472 N.3     1  UNL1       -0.2930
     13 C          -7.7127  -15.4466   25.6156 C.3     1  UNL1        0.1011
     14 C          -7.9957  -15.8027   24.1863 C.3     1  UNL1        0.1597
     15 O          -6.8789  -16.2461   23.2885 O.3     1  UNL1       -0.3458
     16 H          -6.0674  -14.6031   26.4847 H       1  UNL1        0.1234
     17 C          -5.1383  -19.3002   22.5042 C.3     1  UNL1        0.1339
     18 C         -10.3425  -19.4748   19.5235 C.3     1  UNL1        0.0307
     19 C          -9.0415  -19.4311   20.2687 C.ar    1  UNL1       -0.0258
     20 C          -7.7495  -19.3129   19.5157 C.ar    1  UNL1       -0.0048
     21 C          -6.4485  -19.2693   20.2609 C.ar    1  UNL1       -0.0027
     22 C          -6.4393  -19.3438   21.7591 C.ar    1  UNL1        0.0001
     23 C          -7.7313  -19.4621   22.5120 C.ar    1  UNL1       -0.0070
     24 C          -9.0323  -19.5057   21.7668 C.ar    1  UNL1       -0.0260
     25 C         -10.3243  -19.6239   22.5196 C.3     1  UNL1        0.0307
@<TRIPOS>BOND
     1    18    19    1
     2    19    20   ar
     3    20    21   ar
     4    21    22   ar
     5    22    17    1
     6    17     1    1
     7     1     2   ar
     8     2    10    1
     9    10    11    1
    10    11    12    1
    11    12    13    1
    12    13    14    1
    13    14    15    1
    14     2     3   ar
    15     3     4   ar
    16     4     5   ar
    17     5     6   ar
    18     6     7   ar
    19     7     8   ar
    20     8     9   ar
    21    22    23   ar
    22    23    24   ar
    23    24    25    1
    24    24    19   ar
    25     9     1   ar
    26    15    10    1
    27     9     4   ar
    28    12    16    1
@<TRIPOS>MOLECULE
*****
 25 28 0 0 0
SMALL
GASTEIGER

@<TRIPOS>ATOM
      1 N          -4.2833  -17.9795   22.3947 N.ar    1  UNL1       -0.3087
      2 C          -4.1894  -16.6198   23.0211 C.ar    1  UNL1        0.1493
      3 N          -2.9831  -15.9311   22.4551 N.ar    1  UNL1       -0.2284
      4 C          -2.3314  -16.8652   21.4789 C.ar    1  UNL1        0.0984
      5 C          -1.1101  -16.7265   20.6192 C.ar    1  UNL1        0.0206
      6 C          -0.6924  -17.8538   19.7222 C.ar    1  UNL1        0.0016
      7 C          -1.4961  -19.1198   19.6849 C.ar    1  UNL1        0.0016
      8 C          -2.7174  -19.2585   20.5446 C.ar    1  UNL1        0.0188
      9 C          -3.1350  -18.1312   21.4416 C.ar    1  UNL1        0.0789
     10 C          -5.1357  -16.0490   24.0354 C.3     1  UNL1        0.1869
     11 C          -6.2542  -15.1513   23.5959 C.3     1  UNL1        0.1064
     12 N          -7.2005  -14.5806   24.6102 N.3     1  UNL1       -0.2930
     13 C          -7.0283  -14.9075   26.0639 C.3     1  UNL1        0.1011
     14 C          -5.9098  -15.8051   26.5034 C.3     1  UNL1        0.1597
     15 O          -4.9636  -16.3759   25.4891 O.3     1  UNL1       -0.3458
     16 H          -8.1359  -14.8907   24.3474 H       1  UNL1        0.1234
     17 C          -5.3401  -19.0072   22.6727 C.3     1  UNL1        0.1339
     18 C         -10.7029  -18.5910   20.0144 C.3     1  UNL1        0.0307
     19 C          -9.3622  -18.6951   20.6789 C.ar    1  UNL1       -0.0258
     20 C          -9.1254  -18.0235   21.9992 C.ar    1  UNL1       -0.0048
     21 C          -7.7847  -18.1276   22.6637 C.ar    1  UNL1       -0.0027
     22 C          -6.6807  -18.9032   22.0081 C.ar    1  UNL1        0.0001
     23 C          -6.9175  -19.5747   20.6879 C.ar    1  UNL1       -0.0070
     24 C          -8.2583  -19.4707   20.0233 C.ar    1  UNL1       -0.0260
     25 C          -8.4951  -20.1422   18.7031 C.3     1  UNL1        0.0307
@<TRIPOS>BOND
     1    18    19    1
     2    19    20   ar
     3    20    21   ar
     4    21    22   ar
     5    22    17    1
     6    17     1    1
     7     1     2   ar
     8     2    10    1
     9    10    11    1
    10    11    12    1
    11    12    13    1
    12    13    14    1
    13    14    15    1
    14     2     3   ar
    15     3     4   ar
    16     4     5   ar
    17     5     6   ar
    18     6     7   ar
    19     7     8   ar
    20     8     9   ar
    21    22    23   ar
    22    23    24   ar
    23    24    25    1
    24    24    19   ar
    25     9     1   ar
    26    15    10    1
    27     9     4   ar
    28    12    16    1
@<TRIPOS>MOLECULE
*****
 25 28 0 0 0
SMALL
GASTEIGER

@<TRIPOS>ATOM
      1 N          -8.6010  -17.0829   21.8249 N.ar    1  UNL1       -0.3087
      2 C          -8.0747  -18.3684   21.2587 C.ar    1  UNL1        0.1493
      3 N          -9.2480  -19.2263   20.8880 N.ar    1  UNL1       -0.2284
      4 C         -10.4994  -18.4710   21.2250 C.ar    1  UNL1        0.0984
      5 C         -11.9513  -18.8184   21.0795 C.ar    1  UNL1        0.0206
      6 C         -13.0034  -17.8411   21.5130 C.ar    1  UNL1        0.0016
      7 C         -12.6035  -16.5164   22.0920 C.ar    1  UNL1        0.0016
      8 C         -11.1516  -16.1690   22.2376 C.ar    1  UNL1        0.0188
      9 C         -10.0996  -17.1463   21.8041 C.ar    1  UNL1        0.0789
     10 C          -6.6290  -18.7321   21.0924 C.3     1  UNL1        0.1869
     11 C          -5.8334  -19.2027   22.2737 C.3     1  UNL1        0.1064
     12 N          -4.3877  -19.5664   22.1075 N.3     1  UNL1       -0.2930
     13 C          -3.7376  -19.4595   20.7599 C.3     1  UNL1        0.1011
     14 C          -4.5332  -18.9889   19.5786 C.3     1  UNL1        0.1597
     15 O          -5.9789  -18.6252   19.7449 O.3     1  UNL1       -0.3458
     16 H          -4.2924  -20.5376   22.4041 H       1  UNL1        0.1234
     17 C          -7.7740  -15.9354   22.3242 C.3     1  UNL1        0.1339
     18 C          -6.4093  -15.5334   28.1531 C.3     1  UNL1        0.0307
     19 C          -6.7505  -15.6339   26.6959 C.ar    1  UNL1       -0.0258
     20 C          -5.8026  -15.0966   25.6649 C.ar    1  UNL1       -0.0048
     21 C          -6.1439  -15.1971   24.2077 C.ar    1  UNL1       -0.0027
     22 C          -7.4329  -15.8350   23.7814 C.ar    1  UNL1        0.0001
     23 C          -8.3806  -16.3723   24.8124 C.ar    1  UNL1       -0.0070
     24 C          -8.0394  -16.2718   26.2696 C.ar    1  UNL1       -0.0260
     25 C          -8.9872  -16.8092   27.3006 C.3     1  UNL1        0.0307
@<TRIPOS>BOND
     1    18    19    1
     2    19    20   ar
     3    20    21   ar
     4    21    22   ar
     5    22    17    1
     6    17     1    1
     7     1     2   ar
     8     2    10    1
     9    10    11    1
    10    11    12    1
    11    12    13    1
    12    13    14    1
    13    14    15    1
    14     2     3   ar
    15     3     4   ar
    16     4     5   ar
    17     5     6   ar
    18     6     7   ar
    19     7     8   ar
    20     8     9   ar
    21    22    23   ar
    22    23    24   ar
    23    24    25    1
    24    24    19   ar
    25     9     1   ar
    26    15    10    1
    27     9     4   ar
    28    12    16    1
@<TRIPOS>MOLECULE
*****
 25 28 0 0 0
SMALL
GASTEIGER

@<TRIPOS>ATOM
      1 N          -6.3979  -18.1287   22.4820 N.ar    1  UNL1       -0.3087
      2 C          -7.8014  -17.8546   22.0292 C.ar    1  UNL1        0.1493
      3 N          -8.3130  -16.6713   22.7961 N.ar    1  UNL1       -0.2284
      4 C          -7.2258  -16.2141   23.7228 C.ar    1  UNL1        0.0984
      5 C          -7.1606  -15.0940   24.7183 C.ar    1  UNL1        0.0206
      6 C          -5.9118  -14.8746   25.5197 C.ar    1  UNL1        0.0016
      7 C          -4.7282  -15.7754   25.3257 C.ar    1  UNL1        0.0016
      8 C          -4.7933  -16.8955   24.3301 C.ar    1  UNL1        0.0188
      9 C          -6.0421  -17.1148   23.5287 C.ar    1  UNL1        0.0789
     10 C          -8.5600  -18.6279   20.9917 C.3     1  UNL1        0.1869
     11 C          -9.9916  -19.0042   21.2346 C.3     1  UNL1        0.1064
     12 N         -10.7502  -19.7775   20.1971 N.3     1  UNL1       -0.2930
     13 C         -10.0773  -20.1747   18.9168 C.3     1  UNL1        0.1011
     14 C          -8.6457  -19.7984   18.6739 C.3     1  UNL1        0.1597
     15 O          -7.8871  -19.0251   19.7114 O.3     1  UNL1       -0.3458
     16 H         -11.5594  -19.2117   19.9413 H       1  UNL1        0.1234
     17 C          -5.5066  -19.2243   21.9769 C.3     1  UNL1        0.1339
     18 C          -0.0440  -17.9158   19.8680 C.3     1  UNL1        0.0307
     19 C          -1.4096  -18.2429   20.3952 C.ar    1  UNL1       -0.0258
     20 C          -1.5675  -18.7794   21.7871 C.ar    1  UNL1       -0.0048
     21 C          -2.9332  -19.1065   22.3143 C.ar    1  UNL1       -0.0027
     22 C          -4.1410  -18.8972   21.4496 C.ar    1  UNL1        0.0001
     23 C          -3.9830  -18.3607   20.0578 C.ar    1  UNL1       -0.0070
     24 C          -2.6174  -18.0335   19.5306 C.ar    1  UNL1       -0.0260
     25 C          -2.4594  -17.4970   18.1388 C.3     1  UNL1        0.0307
@<TRIPOS>BOND
     1    18    19    1
     2    19    20   ar
     3    20    21   ar
     4    21    22   ar
     5    22    17    1
     6    17     1    1
     7     1     2   ar
     8     2    10    1
     9    10    11    1
    10    11    12    1
    11    12    13    1
    12    13    14    1
    13    14    15    1
    14     2     3   ar
    15     3     4   ar
    16     4     5   ar
    17     5     6   ar
    18     6     7   ar
    19     7     8   ar
    20     8     9   ar
    21    22    23   ar
    22    23    24   ar
    23    24    25    1
    24    24    19   ar
    25     9     1   ar
    26    15    10    1
    27     9     4   ar
    28    12    16    1
@<TRIPOS>MOLECULE
*****
 25 28 0 0 0
SMALL
GASTEIGER

@<TRIPOS>ATOM
      1 N         -13.2020   -5.0864   18.0563 N.ar    1  UNL1       -0.3087
      2 C         -12.8468   -3.8372   18.8068 C.ar    1  UNL1        0.1493
      3 N         -11.4470   -3.9895   19.3239 N.ar    1  UNL1       -0.2284
      4 C         -10.9371   -5.3327   18.8930 C.ar    1  UNL1        0.0984
      5 C          -9.6253   -6.0261   19.1127 C.ar    1  UNL1        0.0206
      6 C          -9.3982   -7.3974   18.5490 C.ar    1  UNL1        0.0016
      7 C         -10.4829   -8.0754   17.7656 C.ar    1  UNL1        0.0016
      8 C         -11.7947   -7.3820   17.5458 C.ar    1  UNL1        0.0188
      9 C         -12.0218   -6.0107   18.1095 C.ar    1  UNL1        0.0789
     10 C         -13.7353   -2.6452   19.0054 C.3     1  UNL1        0.1869
     11 C         -14.7515   -2.6427   20.1087 C.3     1  UNL1        0.1064
     12 N         -15.6401   -1.4506   20.3073 N.3     1  UNL1       -0.2930
     13 C         -15.5124   -0.2610   19.4026 C.3     1  UNL1        0.1011
     14 C         -14.4962   -0.2635   18.2993 C.3     1  UNL1        0.1597
     15 O         -13.6077   -1.4556   18.1007 O.3     1  UNL1       -0.3458
     16 H         -15.4771   -1.1168   21.2573 H       1  UNL1        0.1234
     17 C         -14.5082   -5.3629   17.3726 C.3     1  UNL1        0.1339
     18 C         -19.0592   -7.7669   20.4562 C.3     1  UNL1        0.0307
     19 C         -17.9214   -7.1659   19.6853 C.ar    1  UNL1       -0.0258
     20 C         -18.0562   -5.7922   19.0980 C.ar    1  UNL1       -0.0048
     21 C         -16.9185   -5.1912   18.3271 C.ar    1  UNL1       -0.0027
     22 C         -15.6459   -5.9639   18.1435 C.ar    1  UNL1        0.0001
     23 C         -15.5112   -7.3376   18.7308 C.ar    1  UNL1       -0.0070
     24 C         -16.6489   -7.9385   19.5017 C.ar    1  UNL1       -0.0260
     25 C         -16.5142   -9.3122   20.0890 C.3     1  UNL1        0.0307
@<TRIPOS>BOND
     1    18    19    1
     2    19    20   ar
     3    20    21   ar
     4    21    22   ar
     5    22    17    1
     6    17     1    1
     7     1     2   ar
     8     2    10    1
     9    10    11    1
    10    11    12    1
    11    12    13    1
    12    13    14    1
    13    14    15    1
    14     2     3   ar
    15     3     4   ar
    16     4     5   ar
    17     5     6   ar
    18     6     7   ar
    19     7     8   ar
    20     8     9   ar
    21    22    23   ar
    22    23    24   ar
    23    24    25    1
    24    24    19   ar
    25     9     1   ar
    26    15    10    1
    27     9     4   ar
    28    12    16    1
@<TRIPOS>MOLECULE
*****
 25 28 0 0 0
SMALL
GASTEIGER

@<TRIPOS>ATOM
      1 N         -13.7478   -5.3198   18.1074 N.ar    1  UNL1       -0.3087
      2 C         -13.8346   -4.0924   18.9652 C.ar    1  UNL1        0.1493
      3 N         -12.4711   -3.8242   19.5299 N.ar    1  UNL1       -0.2284
      4 C         -11.5416   -4.8859   19.0211 C.ar    1  UNL1        0.0984
      5 C         -10.0787   -5.1304   19.2447 C.ar    1  UNL1        0.0206
      6 C          -9.4049   -6.2993   18.5892 C.ar    1  UNL1        0.0016
      7 C         -10.1939   -7.2236   17.7100 C.ar    1  UNL1        0.0016
      8 C         -11.6569   -6.9791   17.4864 C.ar    1  UNL1        0.0188
      9 C         -12.3307   -5.8103   18.1419 C.ar    1  UNL1        0.0789
     10 C         -15.0683   -3.2764   19.2146 C.3     1  UNL1        0.1869
     11 C         -16.1866   -3.8406   20.0396 C.3     1  UNL1        0.1064
     12 N         -17.4203   -3.0246   20.2890 N.3     1  UNL1       -0.2930
     13 C         -17.5356   -1.6444   19.7133 C.3     1  UNL1        0.1011
     14 C         -16.4172   -1.0801   18.8882 C.3     1  UNL1        0.1597
     15 O         -15.1836   -1.8961   18.6388 O.3     1  UNL1       -0.3458
     16 H         -17.5115   -2.9303   21.3005 H       1  UNL1        0.1234
     17 C         -14.8795   -5.9468   17.3483 C.3     1  UNL1        0.1339
     18 C         -17.1281  -11.2179   19.1255 C.3     1  UNL1        0.0307
     19 C         -16.5660   -9.9001   18.6812 C.ar    1  UNL1       -0.0258
     20 C         -15.3698   -9.8616   17.7768 C.ar    1  UNL1       -0.0048
     21 C         -14.8077   -8.5438   17.3326 C.ar    1  UNL1       -0.0027
     22 C         -15.4417   -7.2645   17.7926 C.ar    1  UNL1        0.0001
     23 C         -16.6378   -7.3031   18.6969 C.ar    1  UNL1       -0.0070
     24 C         -17.1999   -8.6209   19.1412 C.ar    1  UNL1       -0.0260
     25 C         -18.3960   -8.6595   20.0455 C.3     1  UNL1        0.0307
@<TRIPOS>BOND
     1    18    19    1
     2    19    20   ar
     3    20    21   ar
     4    21    22   ar
     5    22    17    1
     6    17     1    1
     7     1     2   ar
     8     2    10    1
     9    10    11    1
    10    11    12    1
    11    12    13    1
    12    13    14    1
    13    14    15    1
    14     2     3   ar
    15     3     4   ar
    16     4     5   ar
    17     5     6   ar
    18     6     7   ar
    19     7     8   ar
    20     8     9   ar
    21    22    23   ar
    22    23    24   ar
    23    24    25    1
    24    24    19   ar
    25     9     1   ar
    26    15    10    1
    27     9     4   ar
    28    12    16    1
@<TRIPOS>MOLECULE
*****
 25 28 0 0 0
SMALL
GASTEIGER

@<TRIPOS>ATOM
      1 N          -6.7551  -18.7179   22.5296 N.ar    1  UNL1       -0.3087
      2 C          -5.9022  -17.6445   23.1381 C.ar    1  UNL1        0.1493
      3 N          -4.5353  -17.7366   22.5273 N.ar    1  UNL1       -0.2284
      4 C          -4.5434  -18.8669   21.5412 C.ar    1  UNL1        0.0984
      5 C          -3.4788  -19.4223   20.6423 C.ar    1  UNL1        0.0206
      6 C          -3.7862  -20.5841   19.7448 C.ar    1  UNL1        0.0016
      7 C          -5.1581  -21.1907   19.7462 C.ar    1  UNL1        0.0016
      8 C          -6.2227  -20.6353   20.6452 C.ar    1  UNL1        0.0188
      9 C          -5.9153  -19.4735   21.5427 C.ar    1  UNL1        0.0789
     10 C          -6.3394  -16.6530   24.1753 C.3     1  UNL1        0.1869
     11 C          -5.3406  -15.7128   24.7823 C.3     1  UNL1        0.1064
     12 N          -5.7779  -14.7213   25.8195 N.3     1  UNL1       -0.2930
     13 C          -7.2139  -14.6701   26.2498 C.3     1  UNL1        0.1011
     14 C          -8.2127  -15.6103   25.6429 C.3     1  UNL1        0.1597
     15 O          -7.7754  -16.6017   24.6056 O.3     1  UNL1       -0.3458
     16 H          -5.5453  -13.7960   25.4588 H       1  UNL1        0.1234
     17 C          -8.1950  -18.9884   22.8515 C.3     1  UNL1        0.1339
     18 C         -12.5312  -16.2792   19.7119 C.3     1  UNL1        0.0307
     19 C         -11.4472  -16.9565   20.4969 C.ar    1  UNL1       -0.0258
     20 C         -10.4986  -17.8943   19.8107 C.ar    1  UNL1       -0.0048
     21 C          -9.4145  -18.5716   20.5956 C.ar    1  UNL1       -0.0027
     22 C          -9.2790  -18.3111   22.0667 C.ar    1  UNL1        0.0001
     23 C         -10.2276  -17.3733   22.7527 C.ar    1  UNL1       -0.0070
     24 C         -11.3117  -16.6961   21.9678 C.ar    1  UNL1       -0.0260
     25 C         -12.2603  -15.7583   22.6539 C.3     1  UNL1        0.0307
@<TRIPOS>BOND
     1    18    19    1
     2    19    20   ar
     3    20    21   ar
     4    21    22   ar
     5    22    17    1
     6    17     1    1
     7     1     2   ar
     8     2    10    1
     9    10    11    1
    10    11    12    1
    11    12    13    1
    12    13    14    1
    13    14    15    1
    14     2     3   ar
    15     3     4   ar
    16     4     5   ar
    17     5     6   ar
    18     6     7   ar
    19     7     8   ar
    20     8     9   ar
    21    22    23   ar
    22    23    24   ar
    23    24    25    1
    24    24    19   ar
    25     9     1   ar
    26    15    10    1
    27     9     4   ar
    28    12    16    1
@<TRIPOS>MOLECULE
*****
 25 28 0 0 0
SMALL
GASTEIGER

@<TRIPOS>ATOM
      1 N          -9.3308  -18.2954   22.5135 N.ar    1  UNL1       -0.3087
      2 C          -8.5284  -18.4526   21.2560 C.ar    1  UNL1        0.1493
      3 N          -9.3398  -17.9092   20.1175 N.ar    1  UNL1       -0.2284
      4 C         -10.6437  -17.4162   20.6713 C.ar    1  UNL1        0.0984
      5 C         -11.8354  -16.7808   20.0185 C.ar    1  UNL1        0.0206
      6 C         -13.0215  -16.3841   20.8466 C.ar    1  UNL1        0.0016
      7 C         -13.0159  -16.6228   22.3274 C.ar    1  UNL1        0.0016
      8 C         -11.8243  -17.2582   22.9802 C.ar    1  UNL1        0.0188
      9 C         -10.6382  -17.6549   22.1522 C.ar    1  UNL1        0.0789
     10 C          -7.1555  -19.0485   21.1548 C.3     1  UNL1        0.1869
     11 C          -6.9347  -20.2895   20.3418 C.3     1  UNL1        0.1064
     12 N          -5.5618  -20.8854   20.2406 N.3     1  UNL1       -0.2930
     13 C          -4.4099  -20.2403   20.9524 C.3     1  UNL1        0.1011
     14 C          -4.6307  -18.9993   21.7655 C.3     1  UNL1        0.1597
     15 O          -6.0036  -18.4034   21.8667 O.3     1  UNL1       -0.3458
     16 H          -5.3217  -20.9051   19.2495 H       1  UNL1        0.1234
     17 C          -8.9014  -18.7066   23.8907 C.3     1  UNL1        0.1339
     18 C          -6.9497  -14.5783   27.7827 C.3     1  UNL1        0.0307
     19 C          -7.4376  -15.6104   26.8097 C.ar    1  UNL1       -0.0258
     20 C          -8.5640  -16.5255   27.1890 C.ar    1  UNL1       -0.0048
     21 C          -9.0519  -17.5576   26.2160 C.ar    1  UNL1       -0.0027
     22 C          -8.4135  -17.6746   24.8636 C.ar    1  UNL1        0.0001
     23 C          -7.2871  -16.7594   24.4844 C.ar    1  UNL1       -0.0070
     24 C          -6.7992  -15.7274   25.4574 C.ar    1  UNL1       -0.0260
     25 C          -5.6729  -14.8122   25.0781 C.3     1  UNL1        0.0307
@<TRIPOS>BOND
     1    18    19    1
     2    19    20   ar
     3    20    21   ar
     4    21    22   ar
     5    22    17    1
     6    17     1    1
     7     1     2   ar
     8     2    10    1
     9    10    11    1
    10    11    12    1
    11    12    13    1
    12    13    14    1
    13    14    15    1
    14     2     3   ar
    15     3     4   ar
    16     4     5   ar
    17     5     6   ar
    18     6     7   ar
    19     7     8   ar
    20     8     9   ar
    21    22    23   ar
    22    23    24   ar
    23    24    25    1
    24    24    19   ar
    25     9     1   ar
    26    15    10    1
    27     9     4   ar
    28    12    16    1
