@<TRIPOS>MOLECULE
*****
 18 19 0 0 0
SMALL
GASTEIGER

@<TRIPOS>ATOM
      1 C          -8.6654  -19.1463   22.2828 C.ar    1  UNL1        0.0552
      2 C          -8.9340  -20.1763   23.3397 C.ar    1  UNL1        0.0056
      3 C         -10.1722  -20.0824   24.1810 C.ar    1  UNL1        0.0115
      4 C         -11.1420  -18.9585   23.9654 C.ar    1  UNL1        0.0616
      5 CL        -12.3803  -18.8646   24.8068 Cl      1  UNL1       -0.0823
      6 C         -10.8734  -17.9285   22.9086 C.ar    1  UNL1        0.0821
      7 C          -9.6352  -18.0224   22.0673 C.ar    1  UNL1        0.0094
      8 O          -4.2154  -20.9416   20.0793 O.2     1  UNL1       -0.2213
      9 C          -5.3817  -20.0653   20.4287 C.ar    1  UNL1        0.4358
     10 N          -5.6615  -18.7037   19.8649 N.ar    1  UNL1       -0.2081
     11 N          -6.9256  -18.1937   20.4909 N.ar    1  UNL1       -0.1296
     12 C          -7.4271  -19.2401   21.4415 C.ar    1  UNL1        0.2508
     13 O          -6.4729  -20.3968   21.4030 O.2     1  UNL1       -0.3879
     14 H          -5.1120  -18.2282   19.2007 H       1  UNL1        0.1954
     15 C         -11.8432  -16.8046   22.6931 C.3     1  UNL1        0.4194
     16 F         -12.8129  -15.6807   22.4775 F       1  UNL1       -0.1658
     17 F         -12.7244  -17.7182   21.8939 F       1  UNL1       -0.1658
     18 F         -10.9619  -15.8909   23.4923 F       1  UNL1       -0.1658
@<TRIPOS>BOND
     1     8     9    2
     2     9    10   ar
     3    10    11   ar
     4    11    12   ar
     5    12     1    1
     6     1     2   ar
     7     2     3   ar
     8     3     4   ar
     9     4     5    1
    10     4     6   ar
    11     6    15    1
    12    15    16    1
    13    15    17    1
    14    15    18    1
    15     6     7   ar
    16    12    13   ar
    17    13     9   ar
    18     7     1   ar
    19    10    14    1
@<TRIPOS>MOLECULE
*****
 18 19 0 0 0
SMALL
GASTEIGER

@<TRIPOS>ATOM
      1 C          -6.9108  -19.4062   20.9149 C.ar    1  UNL1        0.0552
      2 C          -7.8475  -19.3820   19.7436 C.ar    1  UNL1        0.0056
      3 C          -9.3301  -19.4184   19.9681 C.ar    1  UNL1        0.0115
      4 C          -9.8761  -19.4790   21.3639 C.ar    1  UNL1        0.0616
      5 CL        -11.3588  -19.5154   21.5883 Cl      1  UNL1       -0.0823
      6 C          -8.9394  -19.5032   22.5352 C.ar    1  UNL1        0.0821
      7 C          -7.4568  -19.4667   22.3107 C.ar    1  UNL1        0.0094
      8 O          -1.7230  -20.2013   21.4942 O.2     1  UNL1       -0.2213
      9 C          -3.0436  -19.7352   20.9567 C.ar    1  UNL1        0.4358
     10 N          -3.2495  -18.8921   19.7333 N.ar    1  UNL1       -0.2081
     11 N          -4.7232  -18.6662   19.5687 N.ar    1  UNL1       -0.1296
     12 C          -5.4281  -19.3697   20.6904 C.ar    1  UNL1        0.2508
     13 O          -4.3900  -20.0304   21.5482 O.2     1  UNL1       -0.3879
     14 H          -2.5417  -18.5475   19.1421 H       1  UNL1        0.1954
     15 C          -9.4854  -19.5637   23.9310 C.3     1  UNL1        0.4194
     16 F         -10.0313  -19.6243   25.3268 F       1  UNL1       -0.1658
     17 F          -9.2150  -21.0386   23.9727 F       1  UNL1       -0.1658
     18 F          -9.7557  -18.0889   23.8892 F       1  UNL1       -0.1658
@<TRIPOS>BOND
     1     8     9    2
     2     9    10   ar
     3    10    11   ar
     4    11    12   ar
     5    12     1    1
     6     1     2   ar
     7     2     3   ar
     8     3     4   ar
     9     4     5    1
    10     4     6   ar
    11     6    15    1
    12    15    16    1
    13    15    17    1
    14    15    18    1
    15     6     7   ar
    16    12    13   ar
    17    13     9   ar
    18     7     1   ar
    19    10    14    1
@<TRIPOS>MOLECULE
*****
 18 19 0 0 0
SMALL
GASTEIGER

@<TRIPOS>ATOM
      1 C          -8.5294  -18.8595   22.1215 C.ar    1  UNL1        0.0552
      2 C          -8.8691  -19.6965   23.3190 C.ar    1  UNL1        0.0056
      3 C         -10.2295  -19.5957   23.9429 C.ar    1  UNL1        0.0115
      4 C         -11.2501  -18.6580   23.3692 C.ar    1  UNL1        0.0616
      5 CL        -12.6105  -18.5572   23.9932 Cl      1  UNL1       -0.0823
      6 C         -10.9103  -17.8210   22.1718 C.ar    1  UNL1        0.0821
      7 C          -9.5500  -17.9218   21.5479 C.ar    1  UNL1        0.0094
      8 O          -3.3976  -19.8730   21.4008 O.2     1  UNL1       -0.2213
      9 C          -4.8102  -19.4261   21.1663 C.ar    1  UNL1        0.4358
     10 N          -5.3410  -18.8044   19.9086 N.ar    1  UNL1       -0.2081
     11 N          -6.7988  -18.5165   20.1134 N.ar    1  UNL1       -0.1296
     12 C          -7.1690  -18.9602   21.4976 C.ar    1  UNL1        0.2508
     13 O          -5.9399  -19.5224   22.1483 O.2     1  UNL1       -0.3879
     14 H          -4.8235  -18.6180   19.0921 H       1  UNL1        0.1954
     15 C         -11.9309  -16.8833   21.5981 C.3     1  UNL1        0.4194
     16 F         -12.9515  -15.9455   21.0245 F       1  UNL1       -0.1658
     17 F         -11.5371  -15.8406   22.6020 F       1  UNL1       -0.1658
     18 F         -12.3247  -17.9259   20.5942 F       1  UNL1       -0.1658
@<TRIPOS>BOND
     1     8     9    2
     2     9    10   ar
     3    10    11   ar
     4    11    12   ar
     5    12     1    1
     6     1     2   ar
     7     2     3   ar
     8     3     4   ar
     9     4     5    1
    10     4     6   ar
    11     6    15    1
    12    15    16    1
    13    15    17    1
    14    15    18    1
    15     6     7   ar
    16    12    13   ar
    17    13     9   ar
    18     7     1   ar
    19    10    14    1
@<TRIPOS>MOLECULE
*****
 18 19 0 0 0
SMALL
GASTEIGER

@<TRIPOS>ATOM
      1 C          -9.1709  -16.9646   23.7799 C.ar    1  UNL1        0.0552
      2 C          -9.7409  -17.9769   24.7287 C.ar    1  UNL1        0.0056
      3 C         -11.1501  -18.4598   24.5524 C.ar    1  UNL1        0.0115
      4 C         -11.9892  -17.9303   23.4274 C.ar    1  UNL1        0.0616
      5 CL        -13.3984  -18.4133   23.2512 Cl      1  UNL1       -0.0823
      6 C         -11.4191  -16.9180   22.4786 C.ar    1  UNL1        0.0821
      7 C         -10.0100  -16.4352   22.6549 C.ar    1  UNL1        0.0094
      8 O          -4.8702  -14.6461   25.7824 O.2     1  UNL1       -0.2213
      9 C          -5.7849  -15.4160   24.8765 C.ar    1  UNL1        0.4358
     10 N          -5.4014  -16.0612   23.5777 N.ar    1  UNL1       -0.2081
     11 N          -6.6231  -16.7199   23.0089 N.ar    1  UNL1       -0.1296
     12 C          -7.7617  -16.4817   23.9561 C.ar    1  UNL1        0.2508
     13 O          -7.2436  -15.6759   25.1103 O.2     1  UNL1       -0.3879
     14 H          -4.5052  -16.0538   23.1703 H       1  UNL1        0.1954
     15 C         -12.2582  -16.3886   21.3536 C.3     1  UNL1        0.4194
     16 F         -13.0973  -15.8592   20.2286 F       1  UNL1       -0.1658
     17 F         -12.8760  -15.3884   22.2852 F       1  UNL1       -0.1658
     18 F         -11.6404  -17.3889   20.4221 F       1  UNL1       -0.1658
@<TRIPOS>BOND
     1     8     9    2
     2     9    10   ar
     3    10    11   ar
     4    11    12   ar
     5    12     1    1
     6     1     2   ar
     7     2     3   ar
     8     3     4   ar
     9     4     5    1
    10     4     6   ar
    11     6    15    1
    12    15    16    1
    13    15    17    1
    14    15    18    1
    15     6     7   ar
    16    12    13   ar
    17    13     9   ar
    18     7     1   ar
    19    10    14    1
@<TRIPOS>MOLECULE
*****
 18 19 0 0 0
SMALL
GASTEIGER

@<TRIPOS>ATOM
      1 C          -8.9079  -16.8190   23.0085 C.ar    1  UNL1        0.0552
      2 C         -10.1235  -16.3706   23.7642 C.ar    1  UNL1        0.0056
      3 C         -11.4905  -16.7594   23.2844 C.ar    1  UNL1        0.0115
      4 C         -11.6418  -17.5966   22.0490 C.ar    1  UNL1        0.0616
      5 CL        -13.0089  -17.9853   21.5693 Cl      1  UNL1       -0.0823
      6 C         -10.4261  -18.0449   21.2933 C.ar    1  UNL1        0.0821
      7 C          -9.0592  -17.6561   21.7730 C.ar    1  UNL1        0.0094
      8 O          -5.0028  -14.5934   25.7795 O.2     1  UNL1       -0.2213
      9 C          -5.7459  -15.4072   24.7619 C.ar    1  UNL1        0.4358
     10 N          -5.1284  -16.2568   23.6908 N.ar    1  UNL1       -0.2081
     11 N          -6.2378  -16.8890   22.9037 N.ar    1  UNL1       -0.1296
     12 C          -7.5408  -16.4302   23.4882 C.ar    1  UNL1        0.2508
     13 O          -7.2368  -15.5145   24.6367 O.2     1  UNL1       -0.3879
     14 H          -4.1644  -16.3781   23.5323 H       1  UNL1        0.1954
     15 C         -10.5775  -18.8821   20.0579 C.3     1  UNL1        0.4194
     16 F         -10.7288  -19.7192   18.8224 F       1  UNL1       -0.1658
     17 F         -10.5297  -20.1259   20.8949 F       1  UNL1       -0.1658
     18 F         -10.6252  -17.6382   19.2209 F       1  UNL1       -0.1658
@<TRIPOS>BOND
     1     8     9    2
     2     9    10   ar
     3    10    11   ar
     4    11    12   ar
     5    12     1    1
     6     1     2   ar
     7     2     3   ar
     8     3     4   ar
     9     4     5    1
    10     4     6   ar
    11     6    15    1
    12    15    16    1
    13    15    17    1
    14    15    18    1
    15     6     7   ar
    16    12    13   ar
    17    13     9   ar
    18     7     1   ar
    19    10    14    1
@<TRIPOS>MOLECULE
*****
 18 19 0 0 0
SMALL
GASTEIGER

@<TRIPOS>ATOM
      1 C          -6.6975  -17.9694   22.6867 C.ar    1  UNL1        0.0552
      2 C          -7.1451  -16.6698   23.2872 C.ar    1  UNL1        0.0056
      3 C          -8.6076  -16.3949   23.4757 C.ar    1  UNL1        0.0115
      4 C          -9.6225  -17.4197   23.0636 C.ar    1  UNL1        0.0616
      5 CL        -11.0850  -17.1448   23.2521 Cl      1  UNL1       -0.0823
      6 C          -9.1750  -18.7193   22.4631 C.ar    1  UNL1        0.0821
      7 C          -7.7125  -18.9942   22.2747 C.ar    1  UNL1        0.0094
      8 O          -2.1568  -20.3571   21.4371 O.2     1  UNL1       -0.2213
      9 C          -3.1479  -19.3419   21.9239 C.ar    1  UNL1        0.4358
     10 N          -2.8210  -17.9929   22.4927 N.ar    1  UNL1       -0.2081
     11 N          -4.1109  -17.3146   22.8477 N.ar    1  UNL1       -0.1296
     12 C          -5.2350  -18.2444   22.4983 C.ar    1  UNL1        0.2508
     13 O          -4.6398  -19.4972   21.9273 O.2     1  UNL1       -0.3879
     14 H          -1.9183  -17.6185   22.6121 H       1  UNL1        0.1954
     15 C         -10.1899  -19.7441   22.0511 C.3     1  UNL1        0.4194
     16 F         -11.2048  -20.7688   21.6390 F       1  UNL1       -0.1658
     17 F         -10.0925  -20.3845   23.4039 F       1  UNL1       -0.1658
     18 F         -10.2873  -19.1036   20.6982 F       1  UNL1       -0.1658
@<TRIPOS>BOND
     1     8     9    2
     2     9    10   ar
     3    10    11   ar
     4    11    12   ar
     5    12     1    1
     6     1     2   ar
     7     2     3   ar
     8     3     4   ar
     9     4     5    1
    10     4     6   ar
    11     6    15    1
    12    15    16    1
    13    15    17    1
    14    15    18    1
    15     6     7   ar
    16    12    13   ar
    17    13     9   ar
    18     7     1   ar
    19    10    14    1
@<TRIPOS>MOLECULE
*****
 18 19 0 0 0
SMALL
GASTEIGER

@<TRIPOS>ATOM
      1 C          -7.0515  -18.6460   21.7446 C.ar    1  UNL1        0.0552
      2 C          -8.2511  -19.2968   21.1222 C.ar    1  UNL1        0.0056
      3 C          -9.6272  -18.9600   21.6150 C.ar    1  UNL1        0.0115
      4 C          -9.8037  -17.9725   22.7302 C.ar    1  UNL1        0.0616
      5 CL        -11.1800  -17.6358   23.2230 Cl      1  UNL1       -0.0823
      6 C          -8.6042  -17.3218   23.3526 C.ar    1  UNL1        0.0821
      7 C          -7.2281  -17.6585   22.8598 C.ar    1  UNL1        0.0094
      8 O          -2.0268  -20.2618   21.5946 O.2     1  UNL1       -0.2213
      9 C          -3.3657  -19.7254   21.1829 C.ar    1  UNL1        0.4358
     10 N          -3.7495  -19.2762   19.8041 N.ar    1  UNL1       -0.2081
     11 N          -5.1769  -18.8172   19.8468 N.ar    1  UNL1       -0.1296
     12 C          -5.6753  -18.9827   21.2519 C.ar    1  UNL1        0.2508
     13 O          -4.5559  -19.5440   22.0776 O.2     1  UNL1       -0.3879
     14 H          -3.1669  -19.2816   19.0106 H       1  UNL1        0.1954
     15 C          -8.7807  -16.3343   24.4678 C.3     1  UNL1        0.4194
     16 F          -8.9572  -15.3467   25.5830 F       1  UNL1       -0.1658
     17 F          -8.4115  -15.2173   23.5372 F       1  UNL1       -0.1658
     18 F          -9.1499  -17.4512   25.3985 F       1  UNL1       -0.1658
@<TRIPOS>BOND
     1     8     9    2
     2     9    10   ar
     3    10    11   ar
     4    11    12   ar
     5    12     1    1
     6     1     2   ar
     7     2     3   ar
     8     3     4   ar
     9     4     5    1
    10     4     6   ar
    11     6    15    1
    12    15    16    1
    13    15    17    1
    14    15    18    1
    15     6     7   ar
    16    12    13   ar
    17    13     9   ar
    18     7     1   ar
    19    10    14    1
@<TRIPOS>MOLECULE
*****
 18 19 0 0 0
SMALL
GASTEIGER

@<TRIPOS>ATOM
      1 C          -9.3509  -16.5035   22.9733 C.ar    1  UNL1        0.0552
      2 C          -9.6928  -16.3770   21.5183 C.ar    1  UNL1        0.0056
      3 C         -11.0080  -16.8886   21.0097 C.ar    1  UNL1        0.0115
      4 C         -11.9812  -17.5266   21.9562 C.ar    1  UNL1        0.0616
      5 CL        -13.2964  -18.0382   21.4475 Cl      1  UNL1       -0.0823
      6 C         -11.6393  -17.6531   23.4112 C.ar    1  UNL1        0.0821
      7 C         -10.3241  -17.1415   23.9197 C.ar    1  UNL1        0.0094
      8 O          -5.3601  -15.2368   26.1904 O.2     1  UNL1       -0.2213
      9 C          -6.2014  -15.4097   24.9606 C.ar    1  UNL1        0.4358
     10 N          -5.8224  -14.9997   23.5683 N.ar    1  UNL1       -0.2081
     11 N          -6.9561  -15.3595   22.6544 N.ar    1  UNL1       -0.1296
     12 C          -8.0357  -15.9919   23.4819 C.ar    1  UNL1        0.2508
     13 O          -7.5692  -16.0229   24.9071 O.2     1  UNL1       -0.3879
     14 H          -4.9779  -14.5699   23.3013 H       1  UNL1        0.1954
     15 C         -12.6125  -18.2911   24.3576 C.3     1  UNL1        0.4194
     16 F         -13.5857  -18.9291   25.3041 F       1  UNL1       -0.1658
     17 F         -11.5840  -19.3206   24.7212 F       1  UNL1       -0.1658
     18 F         -13.6410  -17.2616   23.9940 F       1  UNL1       -0.1658
@<TRIPOS>BOND
     1     8     9    2
     2     9    10   ar
     3    10    11   ar
     4    11    12   ar
     5    12     1    1
     6     1     2   ar
     7     2     3   ar
     8     3     4   ar
     9     4     5    1
    10     4     6   ar
    11     6    15    1
    12    15    16    1
    13    15    17    1
    14    15    18    1
    15     6     7   ar
    16    12    13   ar
    17    13     9   ar
    18     7     1   ar
    19    10    14    1
@<TRIPOS>MOLECULE
*****
 18 19 0 0 0
SMALL
GASTEIGER

@<TRIPOS>ATOM
      1 C          -8.2818  -16.9691   22.3368 C.ar    1  UNL1        0.0552
      2 C          -7.5729  -18.1698   21.7839 C.ar    1  UNL1        0.0056
      3 C          -6.1629  -18.4662   22.2010 C.ar    1  UNL1        0.0115
      4 C          -5.4618  -17.5620   23.1709 C.ar    1  UNL1        0.0616
      5 CL         -4.0518  -17.8584   23.5880 Cl      1  UNL1       -0.0823
      6 C          -6.1708  -16.3613   23.7238 C.ar    1  UNL1        0.0821
      7 C          -7.5808  -16.0649   23.3067 C.ar    1  UNL1        0.0094
      8 O         -12.5170  -15.8519   19.3878 O.2     1  UNL1       -0.2213
      9 C         -11.6386  -16.1591   20.5643 C.ar    1  UNL1        0.4358
     10 N         -12.0849  -16.2738   21.9918 N.ar    1  UNL1       -0.2081
     11 N         -10.8818  -16.5911   22.8295 N.ar    1  UNL1       -0.1296
     12 C          -9.6919  -16.6727   21.9197 C.ar    1  UNL1        0.2508
     13 O         -10.1596  -16.4057   20.5198 O.2     1  UNL1       -0.3879
     14 H         -13.0058  -16.1606   22.3210 H       1  UNL1        0.1954
     15 C          -5.4697  -15.4570   24.6938 C.3     1  UNL1        0.4194
     16 F          -4.7686  -14.5527   25.6637 F       1  UNL1       -0.1658
     17 F          -4.7089  -14.8326   23.5618 F       1  UNL1       -0.1658
     18 F          -6.2304  -16.0814   25.8257 F       1  UNL1       -0.1658
@<TRIPOS>BOND
     1     8     9    2
     2     9    10   ar
     3    10    11   ar
     4    11    12   ar
     5    12     1    1
     6     1     2   ar
     7     2     3   ar
     8     3     4   ar
     9     4     5    1
    10     4     6   ar
    11     6    15    1
    12    15    16    1
    13    15    17    1
    14    15    18    1
    15     6     7   ar
    16    12    13   ar
    17    13     9   ar
    18     7     1   ar
    19    10    14    1
