@<TRIPOS>MOLECULE
*****
 30 34 0 0 0
SMALL
GASTEIGER

@<TRIPOS>ATOM
      1 C           2.2636    0.2160   22.3317 C.2     1  UNL1        0.0020
      2 C           3.0950   -1.0321   22.3655 C.2     1  UNL1        0.0130
      3 C           3.4209   -1.7510   21.0900 C.3     1  UNL1        0.1542
      4 C           3.9265   -2.2801   22.3994 C.3     1  UNL1        0.0614
      5 C           4.7579   -3.5281   22.4332 C.3     1  UNL1        0.0725
      6 N           5.0838   -4.2470   21.1577 N.3     1  UNL1       -0.2972
      7 C           4.5781   -3.7180   19.8483 C.3     1  UNL1        0.0725
      8 C           3.7467   -2.4700   19.8145 C.3     1  UNL1        0.0614
      9 O           2.9152   -1.2220   19.7806 O.3     1  UNL1       -0.4785
     10 C           2.0837    0.0260   19.7468 C.ar    1  UNL1        0.1386
     11 C           1.5781    0.5551   18.4374 C.ar    1  UNL1        0.0369
     12 C           0.7466    1.8031   18.4036 C.ar    1  UNL1        0.0031
     13 C           0.4208    2.5221   19.6791 C.ar    1  UNL1        0.0002
     14 C           0.9264    1.9930   20.9884 C.ar    1  UNL1        0.0030
     15 C           1.7579    0.7450   21.0223 C.ar    1  UNL1        0.0338
     16 H           4.7194   -5.1950   21.2527 H       1  UNL1        0.1233
     17 C           1.2861    2.3728   26.1582 C.ar    1  UNL1        0.0536
     18 C           2.6748    2.4370   25.5948 C.ar    1  UNL1        0.0045
     19 C           3.0006    1.7181   24.3192 C.ar    1  UNL1        0.0001
     20 C           1.9377    0.9349   23.6072 C.ar    1  UNL1       -0.0001
     21 C           0.5491    0.8707   24.1706 C.ar    1  UNL1        0.0001
     22 C           0.2233    1.5897   25.4462 C.ar    1  UNL1        0.0045
     23 O           0.4412    4.4985   27.3902 O.2     1  UNL1       -0.2699
     24 C           0.9603    3.0918   27.4337 C.2     1  UNL1        0.2492
     25 N           1.1536    2.4041   28.7527 N.am    1  UNL1       -0.2709
     26 C           1.6727    0.9974   28.7962 C.3     1  UNL1        0.1258
     27 C           1.8660    0.3098   30.1152 C.3     1  UNL1        0.1637
     28 O           1.5401    1.0287   31.3907 O.3     1  UNL1       -0.3501
     29 C           1.0210    2.4354   31.3472 C.3     1  UNL1        0.1637
     30 C           0.8277    3.1231   30.0282 C.3     1  UNL1        0.1258
@<TRIPOS>BOND
     1    23    24    2
     2    24    17    1
     3    17    18   ar
     4    18    19   ar
     5    19    20   ar
     6    20     1    1
     7     1     2    2
     8     2     3    1
     9     3     4    1
    10     4     5    1
    11     5     6    1
    12     6     7    1
    13     7     8    1
    14     3     9    1
    15     9    10    1
    16    10    11   ar
    17    11    12   ar
    18    12    13   ar
    19    13    14   ar
    20    14    15   ar
    21    20    21   ar
    22    21    22   ar
    23    24    25   am
    24    25    26    1
    25    26    27    1
    26    27    28    1
    27    28    29    1
    28    29    30    1
    29    22    17   ar
    30    30    25    1
    31    15     1    1
    32     8     3    1
    33    15    10   ar
    34     6    16    1
@<TRIPOS>MOLECULE
*****
 30 34 0 0 0
SMALL
GASTEIGER

@<TRIPOS>ATOM
      1 C           7.0858   -4.2593   25.6907 C.2     1  UNL1        0.0020
      2 C           6.7778   -3.9567   27.1273 C.2     1  UNL1        0.0130
      3 C           7.1993   -4.9140   28.2024 C.3     1  UNL1        0.1542
      4 C           6.4698   -3.6541   28.5637 C.3     1  UNL1        0.0614
      5 C           6.1619   -3.3515   30.0002 C.3     1  UNL1        0.0725
      6 N           6.5834   -4.3088   31.0754 N.3     1  UNL1       -0.2972
      7 C           7.3128   -5.5686   30.7141 C.3     1  UNL1        0.0725
      8 C           7.6208   -5.8712   29.2776 C.3     1  UNL1        0.0614
      9 O           7.9288   -6.1739   27.8410 O.3     1  UNL1       -0.4785
     10 C           8.2367   -6.4765   26.4045 C.ar    1  UNL1        0.1386
     11 C           8.9662   -7.7364   26.0431 C.ar    1  UNL1        0.0369
     12 C           9.2742   -8.0390   24.6066 C.ar    1  UNL1        0.0031
     13 C           8.8527   -7.0817   23.5315 C.ar    1  UNL1        0.0002
     14 C           8.1232   -5.8219   23.8928 C.ar    1  UNL1        0.0030
     15 C           7.8152   -5.5192   25.3294 C.ar    1  UNL1        0.0338
     16 H           5.7357   -4.5903   31.5679 H       1  UNL1        0.1233
     17 C           5.8213   -1.3875   22.4652 C.ar    1  UNL1        0.0536
     18 C           7.0936   -1.1507   23.2236 C.ar    1  UNL1        0.0045
     19 C           7.5151   -2.1080   24.2988 C.ar    1  UNL1        0.0001
     20 C           6.6643   -3.3021   24.6155 C.ar    1  UNL1       -0.0001
     21 C           5.3920   -3.5389   23.8571 C.ar    1  UNL1        0.0001
     22 C           4.9705   -2.5816   22.7820 C.ar    1  UNL1        0.0045
     23 O           4.5997    0.7886   21.7426 O.2     1  UNL1       -0.2699
     24 C           5.3998   -0.4303   21.3900 C.2     1  UNL1        0.2492
     25 N           5.7783   -0.6919   19.9624 N.am    1  UNL1       -0.2709
     26 C           6.5784   -1.9108   19.6098 C.3     1  UNL1        0.1258
     27 C           6.9569   -2.1724   18.1822 C.3     1  UNL1        0.1637
     28 O           6.5354   -1.2151   17.1070 O.3     1  UNL1       -0.3501
     29 C           5.7354    0.0038   17.4595 C.3     1  UNL1        0.1637
     30 C           5.3568    0.2654   18.8872 C.3     1  UNL1        0.1258
@<TRIPOS>BOND
     1    23    24    2
     2    24    17    1
     3    17    18   ar
     4    18    19   ar
     5    19    20   ar
     6    20     1    1
     7     1     2    2
     8     2     3    1
     9     3     4    1
    10     4     5    1
    11     5     6    1
    12     6     7    1
    13     7     8    1
    14     3     9    1
    15     9    10    1
    16    10    11   ar
    17    11    12   ar
    18    12    13   ar
    19    13    14   ar
    20    14    15   ar
    21    20    21   ar
    22    21    22   ar
    23    24    25   am
    24    25    26    1
    25    26    27    1
    26    27    28    1
    27    28    29    1
    28    29    30    1
    29    22    17   ar
    30    30    25    1
    31    15     1    1
    32     8     3    1
    33    15    10   ar
    34     6    16    1
@<TRIPOS>MOLECULE
*****
 30 34 0 0 0
SMALL
GASTEIGER

@<TRIPOS>ATOM
      1 C          -1.7415    3.2320   26.0529 C.2     1  UNL1        0.0020
      2 C          -3.0363    3.9383   26.3266 C.2     1  UNL1        0.0130
      3 C          -3.8640    4.4554   25.1875 C.3     1  UNL1        0.1542
      4 C          -4.3311    4.6444   26.6003 C.3     1  UNL1        0.0614
      5 C          -5.6258    5.3506   26.8740 C.3     1  UNL1        0.0725
      6 N          -6.4534    5.8677   25.7348 N.3     1  UNL1       -0.2972
      7 C          -5.9863    5.6786   24.3220 C.3     1  UNL1        0.0725
      8 C          -4.6916    4.9725   24.0484 C.3     1  UNL1        0.0614
      9 O          -3.3968    4.2662   23.7747 O.3     1  UNL1       -0.4785
     10 C          -2.1021    3.5601   23.5010 C.ar    1  UNL1        0.1386
     11 C          -1.6349    3.3710   22.0881 C.ar    1  UNL1        0.0369
     12 C          -0.3402    2.6648   21.8145 C.ar    1  UNL1        0.0031
     13 C           0.4874    2.1477   22.9536 C.ar    1  UNL1        0.0002
     14 C           0.0204    2.3368   24.3664 C.ar    1  UNL1        0.0030
     15 C          -1.2744    3.0430   24.6401 C.ar    1  UNL1        0.0338
     16 H          -6.5574    6.8721   25.8786 H       1  UNL1        0.1233
     17 C           0.7414    1.6807   29.4703 C.ar    1  UNL1        0.0536
     18 C           0.9845    3.0596   28.9320 C.ar    1  UNL1        0.0045
     19 C           0.1569    3.5767   27.7929 C.ar    1  UNL1        0.0001
     20 C          -0.9139    2.7149   27.1920 C.ar    1  UNL1       -0.0001
     21 C          -1.1569    1.3361   27.7303 C.ar    1  UNL1        0.0001
     22 C          -0.3293    0.8190   28.8694 C.ar    1  UNL1        0.0045
     23 O           1.2033    1.5134   32.0215 O.2     1  UNL1       -0.2699
     24 C           1.5691    1.1636   30.6094 C.2     1  UNL1        0.2492
     25 N           2.7624    0.2968   30.3365 N.am    1  UNL1       -0.2709
     26 C           3.1281   -0.0530   28.9244 C.3     1  UNL1        0.1258
     27 C           4.3215   -0.9198   28.6515 C.3     1  UNL1        0.1637
     28 O           5.1491   -1.4369   29.7906 O.3     1  UNL1       -0.3501
     29 C           4.7834   -1.0872   31.2027 C.3     1  UNL1        0.1637
     30 C           3.5900   -0.2203   31.4756 C.3     1  UNL1        0.1258
@<TRIPOS>BOND
     1    23    24    2
     2    24    17    1
     3    17    18   ar
     4    18    19   ar
     5    19    20   ar
     6    20     1    1
     7     1     2    2
     8     2     3    1
     9     3     4    1
    10     4     5    1
    11     5     6    1
    12     6     7    1
    13     7     8    1
    14     3     9    1
    15     9    10    1
    16    10    11   ar
    17    11    12   ar
    18    12    13   ar
    19    13    14   ar
    20    14    15   ar
    21    20    21   ar
    22    21    22   ar
    23    24    25   am
    24    25    26    1
    25    26    27    1
    26    27    28    1
    27    28    29    1
    28    29    30    1
    29    22    17   ar
    30    30    25    1
    31    15     1    1
    32     8     3    1
    33    15    10   ar
    34     6    16    1
@<TRIPOS>MOLECULE
*****
 30 34 0 0 0
SMALL
GASTEIGER

@<TRIPOS>ATOM
      1 C          -1.2876    2.9659   25.5000 C.2     1  UNL1        0.0020
      2 C          -0.5781    2.7351   24.1986 C.2     1  UNL1        0.0130
      3 C          -1.2285    3.1372   22.9082 C.3     1  UNL1        0.1542
      4 C           0.1313    2.5043   22.8973 C.3     1  UNL1        0.0614
      5 C           0.8408    2.2735   21.5961 C.3     1  UNL1        0.0725
      6 N           0.1903    2.6756   20.3056 N.3     1  UNL1       -0.2972
      7 C          -1.1695    3.3085   20.3165 C.3     1  UNL1        0.0725
      8 C          -1.8790    3.5393   21.6177 C.3     1  UNL1        0.0614
      9 O          -2.5885    3.7701   22.9191 O.3     1  UNL1       -0.4785
     10 C          -3.2979    4.0009   24.2204 C.ar    1  UNL1        0.1386
     11 C          -4.6579    4.6338   24.2312 C.ar    1  UNL1        0.0369
     12 C          -5.3673    4.8646   25.5325 C.ar    1  UNL1        0.0031
     13 C          -4.7169    4.4625   26.8230 C.ar    1  UNL1        0.0002
     14 C          -3.3570    3.8296   26.8121 C.ar    1  UNL1        0.0030
     15 C          -2.6475    3.5988   25.5108 C.ar    1  UNL1        0.0338
     16 H           0.1179    1.8319   19.7370 H       1  UNL1        0.1233
     17 C           0.6637    1.7597   29.3713 C.ar    1  UNL1        0.0536
     18 C           0.9602    3.1006   28.7679 C.ar    1  UNL1        0.0045
     19 C           0.3098    3.5027   27.4775 C.ar    1  UNL1        0.0001
     20 C          -0.6372    2.5638   26.7904 C.ar    1  UNL1       -0.0001
     21 C          -0.9336    1.2230   27.3938 C.ar    1  UNL1        0.0001
     22 C          -0.2831    0.8209   28.6843 C.ar    1  UNL1        0.0045
     23 O           0.7218    1.7953   31.9685 O.2     1  UNL1       -0.2699
     24 C           1.3142    1.3576   30.6618 C.2     1  UNL1        0.2492
     25 N           2.5569    0.5178   30.6455 N.am    1  UNL1       -0.2709
     26 C           3.1493    0.0801   29.3387 C.3     1  UNL1        0.1258
     27 C           4.3920   -0.7597   29.3225 C.3     1  UNL1        0.1637
     28 O           5.0425   -1.1617   30.6129 O.3     1  UNL1       -0.3501
     29 C           4.4502   -0.7241   31.9196 C.3     1  UNL1        0.1637
     30 C           3.2074    0.1158   31.9359 C.3     1  UNL1        0.1258
@<TRIPOS>BOND
     1    23    24    2
     2    24    17    1
     3    17    18   ar
     4    18    19   ar
     5    19    20   ar
     6    20     1    1
     7     1     2    2
     8     2     3    1
     9     3     4    1
    10     4     5    1
    11     5     6    1
    12     6     7    1
    13     7     8    1
    14     3     9    1
    15     9    10    1
    16    10    11   ar
    17    11    12   ar
    18    12    13   ar
    19    13    14   ar
    20    14    15   ar
    21    20    21   ar
    22    21    22   ar
    23    24    25   am
    24    25    26    1
    25    26    27    1
    26    27    28    1
    27    28    29    1
    28    29    30    1
    29    22    17   ar
    30    30    25    1
    31    15     1    1
    32     8     3    1
    33    15    10   ar
    34     6    16    1
@<TRIPOS>MOLECULE
*****
 30 34 0 0 0
SMALL
GASTEIGER

@<TRIPOS>ATOM
      1 C          -0.2440    2.1592   21.7416 C.2     1  UNL1        0.0020
      2 C          -1.1811    2.9047   20.8382 C.2     1  UNL1        0.0130
      3 C          -2.2715    3.7523   21.4236 C.3     1  UNL1        0.1542
      4 C          -2.1183    3.6501   19.9349 C.3     1  UNL1        0.0614
      5 C          -3.0554    4.3956   19.0316 C.3     1  UNL1        0.0725
      6 N          -4.1458    5.2432   19.6170 N.3     1  UNL1       -0.2972
      7 C          -4.2991    5.3453   21.1056 C.3     1  UNL1        0.0725
      8 C          -3.3619    4.5999   22.0089 C.3     1  UNL1        0.0614
      9 O          -2.4248    3.8544   22.9123 O.3     1  UNL1       -0.4785
     10 C          -1.4876    3.1089   23.8156 C.ar    1  UNL1        0.1386
     11 C          -1.6408    3.2110   25.3043 C.ar    1  UNL1        0.0369
     12 C          -0.7037    2.4655   26.2076 C.ar    1  UNL1        0.0031
     13 C           0.3867    1.6179   25.6222 C.ar    1  UNL1        0.0002
     14 C           0.5400    1.5158   24.1336 C.ar    1  UNL1        0.0030
     15 C          -0.3972    2.2613   23.2302 C.ar    1  UNL1        0.0338
     16 H          -5.0275    4.8804   19.2544 H       1  UNL1        0.1233
     17 C           3.0272   -0.3836   19.9856 C.ar    1  UNL1        0.0536
     18 C           1.6264   -0.9140   20.0660 C.ar    1  UNL1        0.0045
     19 C           0.5360   -0.0664   20.6514 C.ar    1  UNL1        0.0001
     20 C           0.8464    1.3116   21.1563 C.ar    1  UNL1       -0.0001
     21 C           2.2472    1.8419   21.0759 C.ar    1  UNL1        0.0001
     22 C           3.3376    0.9943   20.4906 C.ar    1  UNL1        0.0045
     23 O           4.5113   -1.0595   17.9631 O.2     1  UNL1       -0.2699
     24 C           4.1176   -1.2312   19.4003 C.2     1  UNL1        0.2492
     25 N           4.8144   -2.2505   20.2522 N.am    1  UNL1       -0.2709
     26 C           4.4207   -2.4221   21.6894 C.3     1  UNL1        0.1258
     27 C           5.1174   -3.4414   22.5413 C.3     1  UNL1        0.1637
     28 O           6.2078   -4.2890   21.9559 O.3     1  UNL1       -0.3501
     29 C           6.6015   -4.1173   20.5188 C.3     1  UNL1        0.1637
     30 C           5.9048   -3.0981   19.6668 C.3     1  UNL1        0.1258
@<TRIPOS>BOND
     1    23    24    2
     2    24    17    1
     3    17    18   ar
     4    18    19   ar
     5    19    20   ar
     6    20     1    1
     7     1     2    2
     8     2     3    1
     9     3     4    1
    10     4     5    1
    11     5     6    1
    12     6     7    1
    13     7     8    1
    14     3     9    1
    15     9    10    1
    16    10    11   ar
    17    11    12   ar
    18    12    13   ar
    19    13    14   ar
    20    14    15   ar
    21    20    21   ar
    22    21    22   ar
    23    24    25   am
    24    25    26    1
    25    26    27    1
    26    27    28    1
    27    28    29    1
    28    29    30    1
    29    22    17   ar
    30    30    25    1
    31    15     1    1
    32     8     3    1
    33    15    10   ar
    34     6    16    1
@<TRIPOS>MOLECULE
*****
 30 34 0 0 0
SMALL
GASTEIGER

@<TRIPOS>ATOM
      1 C           7.0017   -4.0580   25.0436 C.2     1  UNL1        0.0020
      2 C           7.2168   -5.4450   25.5730 C.2     1  UNL1        0.0130
      3 C           7.7357   -5.6438   26.9662 C.3     1  UNL1        0.1542
      4 C           7.4319   -6.8318   26.1023 C.3     1  UNL1        0.0614
      5 C           7.6471   -8.2187   26.6317 C.3     1  UNL1        0.0725
      6 N           8.1659   -8.4176   28.0250 N.3     1  UNL1       -0.2972
      7 C           8.4697   -7.2296   28.8889 C.3     1  UNL1        0.0725
      8 C           8.2545   -5.8427   28.3595 C.3     1  UNL1        0.0614
      9 O           8.0394   -4.4558   27.8301 O.3     1  UNL1       -0.4785
     10 C           7.8243   -3.0689   27.3008 C.ar    1  UNL1        0.1386
     11 C           8.1280   -1.8808   28.1647 C.ar    1  UNL1        0.0369
     12 C           7.9129   -0.4940   27.6353 C.ar    1  UNL1        0.0031
     13 C           7.3940   -0.2951   26.2420 C.ar    1  UNL1        0.0002
     14 C           7.0903   -1.4831   25.3781 C.ar    1  UNL1        0.0030
     15 C           7.3054   -2.8700   25.9075 C.ar    1  UNL1        0.0338
     16 H           9.0313   -8.9514   27.9435 H       1  UNL1        0.1233
     17 C           5.4451   -3.4614   20.8637 C.ar    1  UNL1        0.0536
     18 C           6.8833   -3.8265   21.0835 C.ar    1  UNL1        0.0045
     19 C           7.4022   -4.0253   22.4767 C.ar    1  UNL1        0.0001
     20 C           6.4828   -3.8592   23.6503 C.ar    1  UNL1       -0.0001
     21 C           5.0446   -3.4941   23.4306 C.ar    1  UNL1        0.0001
     22 C           4.5258   -3.2953   22.0373 C.ar    1  UNL1        0.0045
     23 O           4.5613   -4.4499   18.6294 O.2     1  UNL1       -0.2699
     24 C           4.9262   -3.2626   19.4705 C.2     1  UNL1        0.2492
     25 N           4.7722   -1.8765   18.9182 N.am    1  UNL1       -0.2709
     26 C           5.1370   -0.6892   19.7593 C.3     1  UNL1        0.1258
     27 C           4.9830    0.6969   19.2070 C.3     1  UNL1        0.1637
     28 O           4.4642    0.8958   17.8137 O.3     1  UNL1       -0.3501
     29 C           4.0993   -0.2914   16.9727 C.3     1  UNL1        0.1637
     30 C           4.2533   -1.6776   17.5249 C.3     1  UNL1        0.1258
@<TRIPOS>BOND
     1    23    24    2
     2    24    17    1
     3    17    18   ar
     4    18    19   ar
     5    19    20   ar
     6    20     1    1
     7     1     2    2
     8     2     3    1
     9     3     4    1
    10     4     5    1
    11     5     6    1
    12     6     7    1
    13     7     8    1
    14     3     9    1
    15     9    10    1
    16    10    11   ar
    17    11    12   ar
    18    12    13   ar
    19    13    14   ar
    20    14    15   ar
    21    20    21   ar
    22    21    22   ar
    23    24    25   am
    24    25    26    1
    25    26    27    1
    26    27    28    1
    27    28    29    1
    28    29    30    1
    29    22    17   ar
    30    30    25    1
    31    15     1    1
    32     8     3    1
    33    15    10   ar
    34     6    16    1
@<TRIPOS>MOLECULE
*****
 30 34 0 0 0
SMALL
GASTEIGER

@<TRIPOS>ATOM
      1 C           3.2923   -1.1334   21.9395 C.2     1  UNL1        0.0020
      2 C           3.7088   -1.2808   23.3731 C.2     1  UNL1        0.0130
      3 C           4.7750   -2.2676   23.7466 C.3     1  UNL1        0.1542
      4 C           4.1254   -1.4282   24.8065 C.3     1  UNL1        0.0614
      5 C           4.5419   -1.5756   26.2399 C.3     1  UNL1        0.0725
      6 N           5.6080   -2.5624   26.6134 N.3     1  UNL1       -0.2972
      7 C           6.2577   -3.4018   25.5536 C.3     1  UNL1        0.0725
      8 C           5.8412   -3.2544   24.1202 C.3     1  UNL1        0.0614
      9 O           5.4246   -3.1070   22.6866 O.3     1  UNL1       -0.4785
     10 C           5.0081   -2.9596   21.2532 C.ar    1  UNL1        0.1386
     11 C           5.6578   -3.7990   20.1933 C.ar    1  UNL1        0.0369
     12 C           5.2412   -3.6516   18.7599 C.ar    1  UNL1        0.0031
     13 C           4.1751   -2.6648   18.3863 C.ar    1  UNL1        0.0002
     14 C           3.5254   -1.8254   19.4462 C.ar    1  UNL1        0.0030
     15 C           3.9420   -1.9728   20.8797 C.ar    1  UNL1        0.0338
     16 H           5.1905   -3.2070   27.2847 H       1  UNL1        0.1233
     17 C           0.0938    1.8270   20.8189 C.ar    1  UNL1        0.0536
     18 C           0.1356    0.4815   20.1570 C.ar    1  UNL1        0.0045
     19 C           1.2017   -0.5053   20.5306 C.ar    1  UNL1        0.0001
     20 C           2.2261   -0.1466   21.5660 C.ar    1  UNL1       -0.0001
     21 C           2.1843    1.1988   22.2278 C.ar    1  UNL1        0.0001
     22 C           1.1182    2.1856   21.8543 C.ar    1  UNL1        0.0045
     23 O          -2.2834    2.8133   21.1744 O.2     1  UNL1       -0.2699
     24 C          -0.9724    2.8137   20.4454 C.2     1  UNL1        0.2492
     25 N          -0.7276    3.8009   19.3429 N.am    1  UNL1       -0.2709
     26 C           0.5834    3.8014   18.6139 C.3     1  UNL1        0.1258
     27 C           0.8282    4.7885   17.5114 C.3     1  UNL1        0.1637
     28 O          -0.2380    5.7753   17.1379 O.3     1  UNL1       -0.3501
     29 C          -1.5489    5.7749   17.8668 C.3     1  UNL1        0.1637
     30 C          -1.7938    4.7877   18.9693 C.3     1  UNL1        0.1258
@<TRIPOS>BOND
     1    23    24    2
     2    24    17    1
     3    17    18   ar
     4    18    19   ar
     5    19    20   ar
     6    20     1    1
     7     1     2    2
     8     2     3    1
     9     3     4    1
    10     4     5    1
    11     5     6    1
    12     6     7    1
    13     7     8    1
    14     3     9    1
    15     9    10    1
    16    10    11   ar
    17    11    12   ar
    18    12    13   ar
    19    13    14   ar
    20    14    15   ar
    21    20    21   ar
    22    21    22   ar
    23    24    25   am
    24    25    26    1
    25    26    27    1
    26    27    28    1
    27    28    29    1
    28    29    30    1
    29    22    17   ar
    30    30    25    1
    31    15     1    1
    32     8     3    1
    33    15    10   ar
    34     6    16    1
@<TRIPOS>MOLECULE
*****
 30 34 0 0 0
SMALL
GASTEIGER

@<TRIPOS>ATOM
      1 C           6.6529   -3.8068   25.1057 C.2     1  UNL1        0.0020
      2 C           6.3230   -3.1367   26.4066 C.2     1  UNL1        0.0130
      3 C           6.7229   -3.7772   27.7027 C.3     1  UNL1        0.1542
      4 C           5.9932   -2.4667   27.7074 C.3     1  UNL1        0.0614
      5 C           5.6633   -1.7966   29.0082 C.3     1  UNL1        0.0725
      6 N           6.0631   -2.4370   30.3043 N.3     1  UNL1       -0.2972
      7 C           6.7928   -3.7475   30.2997 C.3     1  UNL1        0.0725
      8 C           7.1227   -4.4176   28.9988 C.3     1  UNL1        0.0614
      9 O           7.4526   -5.0877   27.6980 O.3     1  UNL1       -0.4785
     10 C           7.7825   -5.7578   26.3972 C.ar    1  UNL1        0.1386
     11 C           8.5122   -7.0684   26.3924 C.ar    1  UNL1        0.0369
     12 C           8.8421   -7.7384   25.0916 C.ar    1  UNL1        0.0031
     13 C           8.4422   -7.0980   23.7955 C.ar    1  UNL1        0.0002
     14 C           7.7125   -5.7875   23.8002 C.ar    1  UNL1        0.0030
     15 C           7.3826   -5.1173   25.1010 C.ar    1  UNL1        0.0338
     16 H           5.2063   -2.5790   30.8393 H       1  UNL1        0.1233
     17 C           5.4534   -1.8855   21.2173 C.ar    1  UNL1        0.0536
     18 C           4.7930   -3.1573   21.6606 C.ar    1  UNL1        0.0045
     19 C           5.1928   -3.7978   22.9567 C.ar    1  UNL1        0.0001
     20 C           6.2531   -3.1664   23.8096 C.ar    1  UNL1       -0.0001
     21 C           6.9134   -1.8947   23.3663 C.ar    1  UNL1        0.0001
     22 C           6.5136   -1.2542   22.0702 C.ar    1  UNL1        0.0045
     23 O           6.0526   -1.1136   18.8100 O.2     1  UNL1       -0.2699
     24 C           5.0535   -1.2451   19.9212 C.2     1  UNL1        0.2492
     25 N           3.6547   -0.7361   19.7362 N.am    1  UNL1       -0.2709
     26 C           2.6557   -0.8676   20.8474 C.3     1  UNL1        0.1258
     27 C           1.2569   -0.3587   20.6624 C.3     1  UNL1        0.1637
     28 O           0.8570    0.2818   19.3663 O.3     1  UNL1       -0.3501
     29 C           1.8560    0.4133   18.2552 C.3     1  UNL1        0.1637
     30 C           3.2549   -0.0957   18.4401 C.3     1  UNL1        0.1258
@<TRIPOS>BOND
     1    23    24    2
     2    24    17    1
     3    17    18   ar
     4    18    19   ar
     5    19    20   ar
     6    20     1    1
     7     1     2    2
     8     2     3    1
     9     3     4    1
    10     4     5    1
    11     5     6    1
    12     6     7    1
    13     7     8    1
    14     3     9    1
    15     9    10    1
    16    10    11   ar
    17    11    12   ar
    18    12    13   ar
    19    13    14   ar
    20    14    15   ar
    21    20    21   ar
    22    21    22   ar
    23    24    25   am
    24    25    26    1
    25    26    27    1
    26    27    28    1
    27    28    29    1
    28    29    30    1
    29    22    17   ar
    30    30    25    1
    31    15     1    1
    32     8     3    1
    33    15    10   ar
    34     6    16    1
@<TRIPOS>MOLECULE
*****
 30 34 0 0 0
SMALL
GASTEIGER

@<TRIPOS>ATOM
      1 C          -1.1776    2.9035   25.4074 C.2     1  UNL1        0.0020
      2 C          -0.5075    2.6486   24.0898 C.2     1  UNL1        0.0130
      3 C          -1.2049    3.0089   22.8116 C.3     1  UNL1        0.1542
      4 C           0.1625    2.3937   22.7723 C.3     1  UNL1        0.0614
      5 C           0.8326    2.1387   21.4547 C.3     1  UNL1        0.0725
      6 N           0.1352    2.4990   20.1765 N.3     1  UNL1       -0.2972
      7 C          -1.2322    3.1142   20.2158 C.3     1  UNL1        0.0725
      8 C          -1.9023    3.3692   21.5334 C.3     1  UNL1        0.0614
      9 O          -2.5724    3.6241   22.8510 O.3     1  UNL1       -0.4785
     10 C          -3.2425    3.8790   24.1686 C.ar    1  UNL1        0.1386
     11 C          -4.6100    4.4943   24.2080 C.ar    1  UNL1        0.0369
     12 C          -5.2800    4.7492   25.5255 C.ar    1  UNL1        0.0031
     13 C          -4.5826    4.3889   26.8037 C.ar    1  UNL1        0.0002
     14 C          -3.2152    3.7737   26.7644 C.ar    1  UNL1        0.0030
     15 C          -2.5451    3.5187   25.4468 C.ar    1  UNL1        0.0338
     16 H           0.0561    1.6401   19.6320 H       1  UNL1        0.1233
     17 C           0.9145    1.8227   29.2421 C.ar    1  UNL1        0.0536
     18 C          -0.2765    1.0314   28.7888 C.ar    1  UNL1        0.0045
     19 C          -0.9739    1.3917   27.5106 C.ar    1  UNL1        0.0001
     20 C          -0.4802    2.5432   26.6857 C.ar    1  UNL1       -0.0001
     21 C           0.7108    3.3344   27.1390 C.ar    1  UNL1        0.0001
     22 C           1.4081    2.9741   28.4172 C.ar    1  UNL1        0.0045
     23 O           2.4710    0.2344   30.5856 O.2     1  UNL1       -0.2699
     24 C           1.6119    1.4624   30.5203 C.2     1  UNL1        0.2492
     25 N           1.4503    2.3300   31.7332 N.am    1  UNL1       -0.2709
     26 C           0.5912    3.5579   31.6679 C.3     1  UNL1        0.1258
     27 C           0.4296    4.4255   32.8808 C.3     1  UNL1        0.1637
     28 O           1.1270    4.0652   34.1590 O.3     1  UNL1       -0.3501
     29 C           1.9860    2.8374   34.2243 C.3     1  UNL1        0.1637
     30 C           2.1477    1.9697   33.0114 C.3     1  UNL1        0.1258
@<TRIPOS>BOND
     1    23    24    2
     2    24    17    1
     3    17    18   ar
     4    18    19   ar
     5    19    20   ar
     6    20     1    1
     7     1     2    2
     8     2     3    1
     9     3     4    1
    10     4     5    1
    11     5     6    1
    12     6     7    1
    13     7     8    1
    14     3     9    1
    15     9    10    1
    16    10    11   ar
    17    11    12   ar
    18    12    13   ar
    19    13    14   ar
    20    14    15   ar
    21    20    21   ar
    22    21    22   ar
    23    24    25   am
    24    25    26    1
    25    26    27    1
    26    27    28    1
    27    28    29    1
    28    29    30    1
    29    22    17   ar
    30    30    25    1
    31    15     1    1
    32     8     3    1
    33    15    10   ar
    34     6    16    1
