@<TRIPOS>MOLECULE
*****
 30 32 0 0 0
SMALL
GASTEIGER

@<TRIPOS>ATOM
      1 C          -9.9252  -18.3496   22.7165 C.3     1  UNL1        0.0373
      2 C         -10.6512  -19.0548   21.6095 C.3     1  UNL1        0.0075
      3 C          -9.8920  -19.5664   20.4212 C.3     1  UNL1        0.0219
      4 C          -8.4067  -19.3728   20.3401 C.3     1  UNL1        0.0950
      5 N          -7.6807  -18.6677   21.4471 N.am    1  UNL1       -0.2637
      6 C          -6.1954  -18.4741   21.3660 C.2     1  UNL1        0.3077
      7 O          -5.4694  -17.7690   22.4730 O.2     1  UNL1       -0.2522
      8 N          -5.4363  -18.9857   20.1777 N.am    1  UNL1       -0.2681
      9 C          -8.4399  -18.1561   22.6353 C.3     1  UNL1        0.0989
     10 H          -5.9128  -19.4486   19.4511 H       1  UNL1        0.1564
     11 C          -3.9510  -18.7922   20.0966 C.ar    1  UNL1        0.0516
     12 C          -3.3663  -17.9143   19.0300 C.ar    1  UNL1        0.0156
     13 C          -1.8811  -17.7207   18.9488 C.ar    1  UNL1        0.0127
     14 C          -0.9806  -18.4048   19.9343 C.ar    1  UNL1        0.0578
     15 CL          0.5047  -18.2112   19.8531 Cl      1  UNL1       -0.0822
     16 C          -1.5653  -19.2826   21.0009 C.ar    1  UNL1        0.0127
     17 C          -3.0506  -19.4762   21.0820 C.ar    1  UNL1        0.0156
     18 C         -11.3274  -18.2912   23.2460 C.ar    1  UNL1       -0.0212
     19 C         -11.6352  -18.8235   24.6142 C.ar    1  UNL1       -0.0042
     20 C         -13.0374  -18.7651   25.1437 C.ar    1  UNL1       -0.0003
     21 C         -14.1318  -18.1744   24.3050 C.ar    1  UNL1       -0.0000
     22 C         -13.8240  -17.6421   22.9368 C.ar    1  UNL1       -0.0003
     23 C         -12.4218  -17.7006   22.4074 C.ar    1  UNL1       -0.0042
     24 C          -9.6861  -17.6242   24.0075 C.3     1  UNL1        0.0057
     25 C          -8.8368  -16.3880   24.0270 C.3     1  UNL1        0.0008
     26 C          -8.8017  -15.5213   25.2508 C.3     1  UNL1        0.0059
     27 C          -7.6051  -15.5487   26.1550 C.3     1  UNL1        0.0417
     28 O          -5.0697  -16.1018   26.2807 O.co2   1  UNL1       -0.5492
     29 C          -6.2248  -15.4552   25.5753 C.2     1  UNL1        0.0503
     30 O          -5.9996  -14.7150   24.2902 O.co2   1  UNL1       -0.5492
@<TRIPOS>UNITY_ATOM_ATTR
28 1
charge -1
@<TRIPOS>BOND
     1    28    29   ar
     2    29    30   ar
     3    29    27    1
     4    27    26    1
     5    26    25    1
     6    25    24    1
     7    24     1    1
     8     1    18    1
     9    18    19   ar
    10    19    20   ar
    11    20    21   ar
    12    21    22   ar
    13    22    23   ar
    14     1     2    1
    15     2     3    1
    16     3     4    1
    17     4     5    1
    18     5     6   am
    19     6     7    2
    20     6     8   am
    21     8    11    1
    22    11    12   ar
    23    12    13   ar
    24    13    14   ar
    25    14    15    1
    26    14    16   ar
    27    16    17   ar
    28     5     9    1
    29     9     1    1
    30    23    18   ar
    31    17    11   ar
    32     8    10    1
@<TRIPOS>MOLECULE
*****
 30 32 0 0 0
SMALL
GASTEIGER

@<TRIPOS>ATOM
      1 C          -9.7112  -17.9036   23.3115 C.3     1  UNL1        0.0373
      2 C          -9.7407  -16.9511   24.4698 C.3     1  UNL1        0.0075
      3 C          -8.4787  -16.2748   24.9171 C.3     1  UNL1        0.0219
      4 C          -7.1872  -16.5510   24.2059 C.3     1  UNL1        0.0950
      5 N          -7.1577  -17.5035   23.0475 N.am    1  UNL1       -0.2637
      6 C          -5.8662  -17.7797   22.3363 C.2     1  UNL1        0.3077
      7 O          -5.8367  -18.7322   21.1779 O.2     1  UNL1       -0.2522
      8 N          -4.6042  -17.1034   22.7836 N.am    1  UNL1       -0.2681
      9 C          -8.4196  -18.1798   22.6003 C.3     1  UNL1        0.0989
     10 H          -4.6235  -16.4782   23.5438 H       1  UNL1        0.1564
     11 C          -3.3128  -17.3796   22.0723 C.ar    1  UNL1        0.0516
     12 C          -2.4271  -16.2423   21.6571 C.ar    1  UNL1        0.0156
     13 C          -1.1357  -16.5185   20.9460 C.ar    1  UNL1        0.0127
     14 C          -0.7298  -17.9319   20.6499 C.ar    1  UNL1        0.0578
     15 CL          0.5617  -18.2081   19.9386 Cl      1  UNL1       -0.0822
     16 C          -1.6154  -19.0692   21.0650 C.ar    1  UNL1        0.0127
     17 C          -2.9069  -18.7930   21.7763 C.ar    1  UNL1        0.0156
     18 C         -11.1682  -17.9657   23.6627 C.ar    1  UNL1       -0.0212
     19 C         -11.6307  -18.8360   24.7934 C.ar    1  UNL1       -0.0042
     20 C         -13.0876  -18.8981   25.1446 C.ar    1  UNL1       -0.0003
     21 C         -14.0821  -18.0899   24.3651 C.ar    1  UNL1       -0.0000
     22 C         -13.6196  -17.2195   23.2343 C.ar    1  UNL1       -0.0003
     23 C         -12.1627  -17.1574   22.8832 C.ar    1  UNL1       -0.0042
     24 C         -10.1877  -18.8777   22.2750 C.3     1  UNL1        0.0057
     25 C          -9.4802  -18.9752   20.9560 C.3     1  UNL1        0.0008
     26 C         -10.2067  -18.6356   19.6883 C.3     1  UNL1        0.0059
     27 C         -11.4165  -17.7500   19.7316 C.3     1  UNL1        0.0417
     28 O         -12.2157  -15.4088   18.9377 O.co2   1  UNL1       -0.5492
     29 C         -11.2553  -16.2587   19.7157 C.2     1  UNL1        0.0503
     30 O         -10.1338  -15.6174   20.4777 O.co2   1  UNL1       -0.5492
@<TRIPOS>UNITY_ATOM_ATTR
28 1
charge -1
@<TRIPOS>BOND
     1    28    29   ar
     2    29    30   ar
     3    29    27    1
     4    27    26    1
     5    26    25    1
     6    25    24    1
     7    24     1    1
     8     1    18    1
     9    18    19   ar
    10    19    20   ar
    11    20    21   ar
    12    21    22   ar
    13    22    23   ar
    14     1     2    1
    15     2     3    1
    16     3     4    1
    17     4     5    1
    18     5     6   am
    19     6     7    2
    20     6     8   am
    21     8    11    1
    22    11    12   ar
    23    12    13   ar
    24    13    14   ar
    25    14    15    1
    26    14    16   ar
    27    16    17   ar
    28     5     9    1
    29     9     1    1
    30    23    18   ar
    31    17    11   ar
    32     8    10    1
@<TRIPOS>MOLECULE
*****
 30 32 0 0 0
SMALL
GASTEIGER

@<TRIPOS>ATOM
      1 C          -9.6656  -17.9126   23.2598 C.3     1  UNL1        0.0373
      2 C          -9.7214  -16.9102   24.3742 C.3     1  UNL1        0.0075
      3 C          -8.4723  -16.2035   24.8105 C.3     1  UNL1        0.0219
      4 C          -7.1674  -16.4994   24.1324 C.3     1  UNL1        0.0950
      5 N          -7.1117  -17.5019   23.0180 N.am    1  UNL1       -0.2637
      6 C          -5.8068  -17.7977   22.3399 C.2     1  UNL1        0.3077
      7 O          -5.7511  -18.8002   21.2255 O.2     1  UNL1       -0.2522
      8 N          -4.5577  -17.0911   22.7763 N.am    1  UNL1       -0.2681
      9 C          -8.3607  -18.2085   22.5817 C.3     1  UNL1        0.0989
     10 H          -4.5942  -16.4331   23.5077 H       1  UNL1        0.1564
     11 C          -3.2529  -17.3870   22.0982 C.ar    1  UNL1        0.0516
     12 C          -2.8148  -18.8083   21.9023 C.ar    1  UNL1        0.0156
     13 C          -1.5101  -19.1042   21.2242 C.ar    1  UNL1        0.0127
     14 C          -0.6432  -17.9790   20.7419 C.ar    1  UNL1        0.0578
     15 CL          0.6616  -18.2750   20.0638 Cl      1  UNL1       -0.0822
     16 C          -1.0812  -16.5578   20.9378 C.ar    1  UNL1        0.0127
     17 C          -2.3861  -16.2618   21.6159 C.ar    1  UNL1        0.0156
     18 C         -11.1275  -17.9721   23.5907 C.ar    1  UNL1       -0.0212
     19 C         -12.1169  -17.2145   22.7559 C.ar    1  UNL1       -0.0042
     20 C         -13.5787  -17.2740   23.0868 C.ar    1  UNL1       -0.0003
     21 C         -14.0511  -18.0912   24.2527 C.ar    1  UNL1       -0.0000
     22 C         -13.0617  -18.8488   25.0875 C.ar    1  UNL1       -0.0003
     23 C         -11.5999  -18.7893   24.7566 C.ar    1  UNL1       -0.0042
     24 C         -10.1176  -18.9358   22.2603 C.3     1  UNL1        0.0057
     25 C          -9.3899  -19.0836   20.9570 C.3     1  UNL1        0.0008
     26 C         -10.0737  -19.7222   19.7845 C.3     1  UNL1        0.0059
     27 C          -9.4022  -19.7402   18.4433 C.3     1  UNL1        0.0417
     28 O          -7.9383  -21.8775   18.6413 O.co2   1  UNL1       -0.5492
     29 C          -8.9096  -21.0352   17.8685 C.2     1  UNL1        0.0503
     30 O          -9.3882  -21.4879   16.5210 O.co2   1  UNL1       -0.5492
@<TRIPOS>UNITY_ATOM_ATTR
28 1
charge -1
@<TRIPOS>BOND
     1    28    29   ar
     2    29    30   ar
     3    29    27    1
     4    27    26    1
     5    26    25    1
     6    25    24    1
     7    24     1    1
     8     1    18    1
     9    18    19   ar
    10    19    20   ar
    11    20    21   ar
    12    21    22   ar
    13    22    23   ar
    14     1     2    1
    15     2     3    1
    16     3     4    1
    17     4     5    1
    18     5     6   am
    19     6     7    2
    20     6     8   am
    21     8    11    1
    22    11    12   ar
    23    12    13   ar
    24    13    14   ar
    25    14    15    1
    26    14    16   ar
    27    16    17   ar
    28     5     9    1
    29     9     1    1
    30    23    18   ar
    31    17    11   ar
    32     8    10    1
@<TRIPOS>MOLECULE
*****
 30 32 0 0 0
SMALL
GASTEIGER

@<TRIPOS>ATOM
      1 C           3.1916   -1.1256   21.4619 C.3     1  UNL1        0.0373
      2 C           4.0853   -1.8235   22.4437 C.3     1  UNL1        0.0075
      3 C           4.0217   -1.4684   23.8997 C.3     1  UNL1        0.0219
      4 C           3.0644   -0.4154   24.3738 C.3     1  UNL1        0.0950
      5 N           2.1706    0.2825   23.3919 N.am    1  UNL1       -0.2637
      6 C           1.2133    1.3355   23.8660 C.2     1  UNL1        0.3077
      7 O           0.3196    2.0333   22.8841 O.2     1  UNL1       -0.2522
      8 N           1.1497    1.6905   25.3220 N.am    1  UNL1       -0.2681
      9 C           2.2342   -0.0726   21.9360 C.3     1  UNL1        0.0989
     10 H           1.7363    1.2324   25.9665 H       1  UNL1        0.1564
     11 C           0.1923    2.7435   25.7960 C.ar    1  UNL1        0.0516
     12 C          -1.2313    2.3809   26.0993 C.ar    1  UNL1        0.0156
     13 C          -2.1887    3.4337   26.5732 C.ar    1  UNL1        0.0127
     14 C          -1.7226    4.8493   26.7440 C.ar    1  UNL1        0.0578
     15 CL         -2.6800    5.9022   27.2180 Cl      1  UNL1       -0.0822
     16 C          -0.2990    5.2118   26.4407 C.ar    1  UNL1        0.0127
     17 C           0.6584    4.1589   25.9667 C.ar    1  UNL1        0.0156
     18 C           3.9273   -2.0474   20.5349 C.ar    1  UNL1       -0.0212
     19 C           3.1632   -2.9681   19.6303 C.ar    1  UNL1       -0.0042
     20 C           3.8989   -3.8898   18.7035 C.ar    1  UNL1       -0.0003
     21 C           5.3987   -3.8908   18.6812 C.ar    1  UNL1       -0.0000
     22 C           6.1628   -2.9701   19.5858 C.ar    1  UNL1       -0.0003
     23 C           5.4271   -2.0484   20.5127 C.ar    1  UNL1       -0.0042
     24 C           2.5533   -0.7478   20.1580 C.3     1  UNL1        0.0057
     25 C           2.5629    0.6820   19.7048 C.3     1  UNL1        0.0008
     26 C           3.1761    1.0464   18.3851 C.3     1  UNL1        0.0059
     27 C           4.6191    0.7366   18.1176 C.3     1  UNL1        0.0417
     28 O           3.9153   -1.0278   16.3452 O.co2   1  UNL1       -0.5492
     29 C           4.9863   -0.3360   17.1353 C.2     1  UNL1        0.0503
     30 O           6.4243   -0.7167   16.9432 O.co2   1  UNL1       -0.5492
@<TRIPOS>UNITY_ATOM_ATTR
28 1
charge -1
@<TRIPOS>BOND
     1    28    29   ar
     2    29    30   ar
     3    29    27    1
     4    27    26    1
     5    26    25    1
     6    25    24    1
     7    24     1    1
     8     1    18    1
     9    18    19   ar
    10    19    20   ar
    11    20    21   ar
    12    21    22   ar
    13    22    23   ar
    14     1     2    1
    15     2     3    1
    16     3     4    1
    17     4     5    1
    18     5     6   am
    19     6     7    2
    20     6     8   am
    21     8    11    1
    22    11    12   ar
    23    12    13   ar
    24    13    14   ar
    25    14    15    1
    26    14    16   ar
    27    16    17   ar
    28     5     9    1
    29     9     1    1
    30    23    18   ar
    31    17    11   ar
    32     8    10    1
@<TRIPOS>MOLECULE
*****
 30 32 0 0 0
SMALL
GASTEIGER

@<TRIPOS>ATOM
      1 C           2.8304   -0.8435   21.2929 C.3     1  UNL1        0.0373
      2 C           3.6042   -1.3840   22.4587 C.3     1  UNL1        0.0075
      3 C           3.3501   -0.8532   23.8384 C.3     1  UNL1        0.0219
      4 C           2.3222    0.2182   24.0523 C.3     1  UNL1        0.0950
      5 N           1.5484    0.7586   22.8865 N.am    1  UNL1       -0.2637
      6 C           0.5205    1.8299   23.1004 C.2     1  UNL1        0.3077
      7 O          -0.2533    2.3703   21.9346 O.2     1  UNL1       -0.2522
      8 N           0.2664    2.3607   24.4802 N.am    1  UNL1       -0.2681
      9 C           1.8025    0.2278   21.5068 C.3     1  UNL1        0.0989
     10 H           0.7742    2.0060   25.2453 H       1  UNL1        0.1564
     11 C          -0.7615    3.4320   24.6940 C.ar    1  UNL1        0.0516
     12 C          -0.4249    4.8638   24.3994 C.ar    1  UNL1        0.0156
     13 C          -1.4527    5.9351   24.6132 C.ar    1  UNL1        0.0127
     14 C          -2.8172    5.5747   25.1215 C.ar    1  UNL1        0.0578
     15 CL         -3.8451    6.6461   25.3353 Cl      1  UNL1       -0.0822
     16 C          -3.1538    4.1430   25.4161 C.ar    1  UNL1        0.0127
     17 C          -2.1259    3.0716   25.2023 C.ar    1  UNL1        0.0156
     18 C           3.6938   -1.8483   20.5892 C.ar    1  UNL1       -0.0212
     19 C           5.1714   -1.8777   20.8453 C.ar    1  UNL1       -0.0042
     20 C           6.0347   -2.8825   20.1416 C.ar    1  UNL1       -0.0003
     21 C           5.4202   -3.8579   19.1818 C.ar    1  UNL1       -0.0000
     22 C           3.9426   -3.8285   18.9258 C.ar    1  UNL1       -0.0003
     23 C           3.0793   -2.8237   19.6295 C.ar    1  UNL1       -0.0042
     24 C           2.3565   -0.6520   19.8827 C.3     1  UNL1        0.0057
     25 C           2.2664    0.7283   19.3026 C.3     1  UNL1        0.0008
     26 C           3.2137    1.1495   18.2185 C.3     1  UNL1        0.0059
     27 C           4.6050    0.5902   18.1792 C.3     1  UNL1        0.0417
     28 O           6.3493   -1.0304   17.1395 O.co2   1  UNL1       -0.5492
     29 C           4.9483   -0.4988   17.2064 C.2     1  UNL1        0.0503
     30 O           3.8906   -1.0560   16.3004 O.co2   1  UNL1       -0.5492
@<TRIPOS>UNITY_ATOM_ATTR
28 1
charge -1
@<TRIPOS>BOND
     1    28    29   ar
     2    29    30   ar
     3    29    27    1
     4    27    26    1
     5    26    25    1
     6    25    24    1
     7    24     1    1
     8     1    18    1
     9    18    19   ar
    10    19    20   ar
    11    20    21   ar
    12    21    22   ar
    13    22    23   ar
    14     1     2    1
    15     2     3    1
    16     3     4    1
    17     4     5    1
    18     5     6   am
    19     6     7    2
    20     6     8   am
    21     8    11    1
    22    11    12   ar
    23    12    13   ar
    24    13    14   ar
    25    14    15    1
    26    14    16   ar
    27    16    17   ar
    28     5     9    1
    29     9     1    1
    30    23    18   ar
    31    17    11   ar
    32     8    10    1
