@<TRIPOS>MOLECULE
*****
 29 32 0 0 0
SMALL
GASTEIGER

@<TRIPOS>ATOM
      1 N          -5.9281  -18.0727   22.4358 N.ar    1  UNL1       -0.3028
      2 C          -6.9638  -19.1369   22.2241 C.ar    1  UNL1        0.0833
      3 C          -8.1994  -18.7370   22.9746 C.ar    1  UNL1        0.0580
      4 C          -7.9273  -17.4257   23.6503 C.ar    1  UNL1        0.0229
      5 C          -8.7764  -16.5524   24.5257 C.ar    1  UNL1        0.0017
      6 C          -8.2217  -15.2687   25.0681 C.ar    1  UNL1        0.0024
      7 C          -6.8180  -14.8581   24.7351 C.ar    1  UNL1        0.0311
      8 C          -5.9689  -15.7314   23.8597 C.ar    1  UNL1        0.1561
      9 F          -4.5651  -15.3208   23.5267 F       1  UNL1       -0.2026
     10 C          -6.5235  -17.0151   23.3173 C.ar    1  UNL1        0.0917
     11 C          -1.7652  -18.0559   20.7269 C.ar    1  UNL1        0.0141
     12 C          -2.9301  -18.4327   19.8604 C.ar    1  UNL1        0.0026
     13 C          -4.3177  -18.4383   20.4301 C.ar    1  UNL1        0.0176
     14 C          -4.5404  -18.0671   21.8661 C.ar    1  UNL1        0.0641
     15 C          -3.3754  -17.6902   22.7327 C.ar    1  UNL1        0.0176
     16 C          -1.9878  -17.6846   22.1630 C.ar    1  UNL1        0.0026
     17 O           0.2403  -19.3292   19.6750 O.co2   1  UNL1       -0.5446
     18 C          -0.3775  -18.0502   20.1572 C.2     1  UNL1        0.0729
     19 O           0.3921  -16.7658   20.0698 O.co2   1  UNL1       -0.5446
     20 C          -9.4819  -19.5122   23.0384 C.2     1  UNL1        0.1987
     21 O          -9.4789  -20.9276   23.5350 O.2     1  UNL1       -0.2865
     22 C         -10.7676  -18.8720   22.6056 C.ar    1  UNL1        0.0601
     23 C         -10.9958  -18.5515   21.1581 C.ar    1  UNL1        0.0615
     24 CL         -9.9382  -18.8712   20.1435 Cl      1  UNL1       -0.0821
     25 C         -12.2813  -17.9113   20.7252 C.ar    1  UNL1        0.0115
     26 C         -13.3388  -17.5917   21.7399 C.ar    1  UNL1        0.0017
     27 C         -13.1107  -17.9122   23.1874 C.ar    1  UNL1        0.0115
     28 C         -11.8251  -18.5524   23.6203 C.ar    1  UNL1        0.0615
     29 CL        -11.5969  -18.8729   25.0677 Cl      1  UNL1       -0.0821
@<TRIPOS>UNITY_ATOM_ATTR
17 1
charge -1
@<TRIPOS>BOND
     1    17    18   ar
     2    18    19   ar
     3    18    11    1
     4    11    12   ar
     5    12    13   ar
     6    13    14   ar
     7    14     1    1
     8     1     2   ar
     9     2     3   ar
    10     3    20    1
    11    20    21    2
    12    20    22    1
    13    22    23   ar
    14    23    24    1
    15    23    25   ar
    16    25    26   ar
    17    26    27   ar
    18    27    28   ar
    19    28    29    1
    20     3     4   ar
    21     4     5   ar
    22     5     6   ar
    23     6     7   ar
    24     7     8   ar
    25     8     9    1
    26     8    10   ar
    27    14    15   ar
    28    15    16   ar
    29    16    11   ar
    30    10     1   ar
    31    28    22   ar
    32    10     4   ar
@<TRIPOS>MOLECULE
*****
 29 32 0 0 0
SMALL
GASTEIGER

@<TRIPOS>ATOM
      1 N          -5.9183  -18.0743   22.4329 N.ar    1  UNL1       -0.3028
      2 C          -6.9544  -19.1382   22.2218 C.ar    1  UNL1        0.0833
      3 C          -8.1898  -18.7375   22.9723 C.ar    1  UNL1        0.0580
      4 C          -7.9172  -17.4259   23.6472 C.ar    1  UNL1        0.0229
      5 C          -8.7659  -16.5519   24.5222 C.ar    1  UNL1        0.0017
      6 C          -8.2108  -15.2681   25.0639 C.ar    1  UNL1        0.0024
      7 C          -6.8069  -14.8582   24.7306 C.ar    1  UNL1        0.0311
      8 C          -5.9582  -15.7322   23.8556 C.ar    1  UNL1        0.1561
      9 F          -4.5543  -15.3223   23.5223 F       1  UNL1       -0.2026
     10 C          -6.5133  -17.0160   23.3139 C.ar    1  UNL1        0.0917
     11 C          -1.7555  -18.0597   20.7237 C.ar    1  UNL1        0.0141
     12 C          -2.9218  -18.4262   19.8546 C.ar    1  UNL1        0.0026
     13 C          -4.3094  -18.4310   20.4244 C.ar    1  UNL1        0.0176
     14 C          -4.5307  -18.0694   21.8632 C.ar    1  UNL1        0.0641
     15 C          -3.3643  -17.7030   22.7323 C.ar    1  UNL1        0.0176
     16 C          -1.9767  -17.6981   22.1626 C.ar    1  UNL1        0.0026
     17 O           0.3996  -16.7696   20.0597 O.co2   1  UNL1       -0.5446
     18 C          -0.3679  -18.0549   20.1539 C.2     1  UNL1        0.0729
     19 O           0.2521  -19.3353   19.6785 O.co2   1  UNL1       -0.5446
     20 C          -9.4726  -19.5123   23.0365 C.2     1  UNL1        0.1987
     21 O          -9.4704  -20.9265   23.5361 O.2     1  UNL1       -0.2865
     22 C         -10.7577  -18.8727   22.6011 C.ar    1  UNL1        0.0601
     23 C         -11.8170  -18.5527   23.6138 C.ar    1  UNL1        0.0615
     24 CL        -11.5911  -18.8723   25.0619 Cl      1  UNL1       -0.0821
     25 C         -13.1020  -17.9131   23.1785 C.ar    1  UNL1        0.0115
     26 C         -13.3278  -17.5936   21.7304 C.ar    1  UNL1        0.0017
     27 C         -12.2686  -17.9135   20.7178 C.ar    1  UNL1        0.0115
     28 C         -10.9835  -18.5531   21.1530 C.ar    1  UNL1        0.0615
     29 CL         -9.9242  -18.8731   20.1404 Cl      1  UNL1       -0.0821
@<TRIPOS>UNITY_ATOM_ATTR
17 1
charge -1
@<TRIPOS>BOND
     1    17    18   ar
     2    18    19   ar
     3    18    11    1
     4    11    12   ar
     5    12    13   ar
     6    13    14   ar
     7    14     1    1
     8     1     2   ar
     9     2     3   ar
    10     3    20    1
    11    20    21    2
    12    20    22    1
    13    22    23   ar
    14    23    24    1
    15    23    25   ar
    16    25    26   ar
    17    26    27   ar
    18    27    28   ar
    19    28    29    1
    20     3     4   ar
    21     4     5   ar
    22     5     6   ar
    23     6     7   ar
    24     7     8   ar
    25     8     9    1
    26     8    10   ar
    27    14    15   ar
    28    15    16   ar
    29    16    11   ar
    30    10     1   ar
    31    28    22   ar
    32    10     4   ar
@<TRIPOS>MOLECULE
*****
 29 32 0 0 0
SMALL
GASTEIGER

@<TRIPOS>ATOM
      1 N          -7.2490  -16.9325   23.0278 N.ar    1  UNL1       -0.3028
      2 C          -6.0698  -17.6094   22.3944 C.ar    1  UNL1        0.0833
      3 C          -4.8734  -17.3681   23.2664 C.ar    1  UNL1        0.0580
      4 C          -5.3132  -16.5422   24.4387 C.ar    1  UNL1        0.0229
      5 C          -4.5664  -16.0005   25.6214 C.ar    1  UNL1        0.0017
      6 C          -5.2878  -15.1896   26.6567 C.ar    1  UNL1        0.0024
      7 C          -6.7561  -14.9203   26.5093 C.ar    1  UNL1        0.0311
      8 C          -7.5029  -15.4620   25.3265 C.ar    1  UNL1        0.1561
      9 F          -8.9711  -15.1927   25.1791 F       1  UNL1       -0.2026
     10 C          -6.7814  -16.2729   24.2913 C.ar    1  UNL1        0.0917
     11 C         -11.4518  -16.8883   21.4201 C.ar    1  UNL1        0.0141
     12 C         -10.5039  -15.7790   21.0720 C.ar    1  UNL1        0.0026
     13 C          -9.1030  -15.7938   21.6080 C.ar    1  UNL1        0.0176
     14 C          -8.6499  -16.9177   22.4919 C.ar    1  UNL1        0.0641
     15 C          -9.5978  -18.0270   22.8399 C.ar    1  UNL1        0.0176
     16 C         -10.9988  -18.0123   22.3040 C.ar    1  UNL1        0.0026
     17 O         -13.2401  -15.8846   19.8249 O.co2   1  UNL1       -0.5446
     18 C         -12.8527  -16.8735   20.8841 C.2     1  UNL1        0.0729
     19 O         -13.8662  -17.8477   21.4074 O.co2   1  UNL1       -0.5446
     20 C          -3.4815  -17.8655   23.0109 C.2     1  UNL1        0.1987
     21 O          -2.5836  -18.2065   24.1630 O.2     1  UNL1       -0.2865
     22 C          -2.9875  -18.0219   21.6032 C.ar    1  UNL1        0.0601
     23 C          -3.3728  -19.2308   20.8031 C.ar    1  UNL1        0.0615
     24 CL         -4.2521  -20.2832   21.4107 Cl      1  UNL1       -0.0821
     25 C          -2.8788  -19.3872   19.3954 C.ar    1  UNL1        0.0115
     26 C          -1.9995  -18.3347   18.7879 C.ar    1  UNL1        0.0017
     27 C          -1.6142  -17.1259   19.5880 C.ar    1  UNL1        0.0115
     28 C          -2.1082  -16.9694   20.9956 C.ar    1  UNL1        0.0615
     29 CL         -1.7228  -15.7606   21.7957 Cl      1  UNL1       -0.0821
@<TRIPOS>UNITY_ATOM_ATTR
17 1
charge -1
@<TRIPOS>BOND
     1    17    18   ar
     2    18    19   ar
     3    18    11    1
     4    11    12   ar
     5    12    13   ar
     6    13    14   ar
     7    14     1    1
     8     1     2   ar
     9     2     3   ar
    10     3    20    1
    11    20    21    2
    12    20    22    1
    13    22    23   ar
    14    23    24    1
    15    23    25   ar
    16    25    26   ar
    17    26    27   ar
    18    27    28   ar
    19    28    29    1
    20     3     4   ar
    21     4     5   ar
    22     5     6   ar
    23     6     7   ar
    24     7     8   ar
    25     8     9    1
    26     8    10   ar
    27    14    15   ar
    28    15    16   ar
    29    16    11   ar
    30    10     1   ar
    31    28    22   ar
    32    10     4   ar
@<TRIPOS>MOLECULE
*****
 29 32 0 0 0
SMALL
GASTEIGER

@<TRIPOS>ATOM
      1 N           1.4925    1.5107   22.1176 N.ar    1  UNL1       -0.3028
      2 C           1.9948    1.6003   23.5281 C.ar    1  UNL1        0.0833
      3 C           1.0184    2.4219   24.3165 C.ar    1  UNL1        0.0580
      4 C          -0.0874    2.8400   23.3933 C.ar    1  UNL1        0.0229
      5 C          -1.3233    3.6607   23.6146 C.ar    1  UNL1        0.0017
      6 C          -2.2662    3.9183   22.4768 C.ar    1  UNL1        0.0024
      7 C          -1.9732    3.3551   21.1177 C.ar    1  UNL1        0.0311
      8 C          -0.7373    2.5344   20.8965 C.ar    1  UNL1        0.1561
      9 F          -0.4443    1.9713   19.5374 F       1  UNL1       -0.2026
     10 C           0.2056    2.2768   22.0342 C.ar    1  UNL1        0.0917
     11 C           3.4945   -0.6732   18.7304 C.ar    1  UNL1        0.0141
     12 C           3.5006    0.8264   18.7636 C.ar    1  UNL1        0.0026
     13 C           2.8333    1.5544   19.8926 C.ar    1  UNL1        0.0176
     14 C           2.1598    0.7828   20.9885 C.ar    1  UNL1        0.0641
     15 C           2.1537   -0.7169   20.9554 C.ar    1  UNL1        0.0176
     16 C           2.8211   -1.4449   19.8263 C.ar    1  UNL1        0.0026
     17 O           3.8387   -1.0408   16.1817 O.co2   1  UNL1       -0.5446
     18 C           4.1619   -1.4011   17.6014 C.2     1  UNL1        0.0729
     19 O           5.1524   -2.4894   17.8921 O.co2   1  UNL1       -0.5446
     20 C           1.1284    2.7650   25.7726 C.2     1  UNL1        0.1987
     21 O           1.6347    4.1141   26.1890 O.2     1  UNL1       -0.2865
     22 C           0.7322    1.7590   26.8123 C.ar    1  UNL1        0.0601
     23 C           1.7456    0.7874   27.3405 C.ar    1  UNL1        0.0615
     24 CL          3.1552    0.8218   26.8288 Cl      1  UNL1       -0.0821
     25 C           1.3494   -0.2187   28.3801 C.ar    1  UNL1        0.0115
     26 C          -0.0603   -0.2530   28.8917 C.ar    1  UNL1        0.0017
     27 C          -1.0737    0.7186   28.3635 C.ar    1  UNL1        0.0115
     28 C          -0.6775    1.7246   27.3239 C.ar    1  UNL1        0.0615
     29 CL         -1.6909    2.6963   26.7957 Cl      1  UNL1       -0.0821
@<TRIPOS>UNITY_ATOM_ATTR
17 1
charge -1
@<TRIPOS>BOND
     1    17    18   ar
     2    18    19   ar
     3    18    11    1
     4    11    12   ar
     5    12    13   ar
     6    13    14   ar
     7    14     1    1
     8     1     2   ar
     9     2     3   ar
    10     3    20    1
    11    20    21    2
    12    20    22    1
    13    22    23   ar
    14    23    24    1
    15    23    25   ar
    16    25    26   ar
    17    26    27   ar
    18    27    28   ar
    19    28    29    1
    20     3     4   ar
    21     4     5   ar
    22     5     6   ar
    23     6     7   ar
    24     7     8   ar
    25     8     9    1
    26     8    10   ar
    27    14    15   ar
    28    15    16   ar
    29    16    11   ar
    30    10     1   ar
    31    28    22   ar
    32    10     4   ar
@<TRIPOS>MOLECULE
*****
 29 32 0 0 0
SMALL
GASTEIGER

@<TRIPOS>ATOM
      1 N           2.0940    0.3621   23.5688 N.ar    1  UNL1       -0.3028
      2 C           3.1210   -0.7290   23.6380 C.ar    1  UNL1        0.0833
      3 C           3.2841   -1.3000   22.2606 C.ar    1  UNL1        0.0580
      4 C           2.3580   -0.5617   21.3401 C.ar    1  UNL1        0.0229
      5 C           2.0894   -0.6921   19.8701 C.ar    1  UNL1        0.0017
      6 C           1.0854    0.2047   19.2087 C.ar    1  UNL1        0.0024
      7 C           0.3499    1.2320   20.0173 C.ar    1  UNL1        0.0311
      8 C           0.6184    1.3624   21.4872 C.ar    1  UNL1        0.1561
      9 F          -0.1171    2.3896   22.2958 F       1  UNL1       -0.2026
     10 C           1.6225    0.4655   22.1486 C.ar    1  UNL1        0.0917
     11 C           0.6765    2.8828   27.0166 C.ar    1  UNL1        0.0141
     12 C           2.0798    3.0294   26.5075 C.ar    1  UNL1        0.0026
     13 C           2.5523    2.1891   25.3582 C.ar    1  UNL1        0.0176
     14 C           1.6216    1.2024   24.7181 C.ar    1  UNL1        0.0641
     15 C           0.2182    1.0558   25.2272 C.ar    1  UNL1        0.0176
     16 C          -0.2543    1.8960   26.3765 C.ar    1  UNL1        0.0026
     17 O           0.5287    3.3191   29.5734 O.co2   1  UNL1       -0.5446
     18 C           0.2041    3.7231   28.1659 C.2     1  UNL1        0.0729
     19 O          -0.5930    4.9672   27.9075 O.co2   1  UNL1       -0.5446
     20 C           4.2106   -2.4137   21.8718 C.2     1  UNL1        0.1987
     21 O           4.3146   -3.6378   22.7323 O.2     1  UNL1       -0.2865
     22 C           5.0334   -2.3033   20.6223 C.ar    1  UNL1        0.0601
     23 C           6.2286   -1.3976   20.5890 C.ar    1  UNL1        0.0615
     24 CL          6.6012   -0.6024   21.8051 Cl      1  UNL1       -0.0821
     25 C           7.0513   -1.2872   19.3396 C.ar    1  UNL1        0.0115
     26 C           6.6787   -2.0824   18.1236 C.ar    1  UNL1        0.0017
     27 C           5.4834   -2.9880   18.1569 C.ar    1  UNL1        0.0115
     28 C           4.6607   -3.0985   19.4063 C.ar    1  UNL1        0.0615
     29 CL          3.4655   -4.0041   19.4396 Cl      1  UNL1       -0.0821
@<TRIPOS>UNITY_ATOM_ATTR
17 1
charge -1
@<TRIPOS>BOND
     1    17    18   ar
     2    18    19   ar
     3    18    11    1
     4    11    12   ar
     5    12    13   ar
     6    13    14   ar
     7    14     1    1
     8     1     2   ar
     9     2     3   ar
    10     3    20    1
    11    20    21    2
    12    20    22    1
    13    22    23   ar
    14    23    24    1
    15    23    25   ar
    16    25    26   ar
    17    26    27   ar
    18    27    28   ar
    19    28    29    1
    20     3     4   ar
    21     4     5   ar
    22     5     6   ar
    23     6     7   ar
    24     7     8   ar
    25     8     9    1
    26     8    10   ar
    27    14    15   ar
    28    15    16   ar
    29    16    11   ar
    30    10     1   ar
    31    28    22   ar
    32    10     4   ar
@<TRIPOS>MOLECULE
*****
 29 32 0 0 0
SMALL
GASTEIGER

@<TRIPOS>ATOM
      1 N           0.8888    1.5720   20.7474 N.ar    1  UNL1       -0.3028
      2 C           0.0414    2.5594   20.0012 C.ar    1  UNL1        0.0833
      3 C          -0.7880    3.3079   21.0021 C.ar    1  UNL1        0.0580
      4 C          -0.4532    2.7832   22.3668 C.ar    1  UNL1        0.0229
      5 C          -0.9581    3.1437   23.7325 C.ar    1  UNL1        0.0017
      6 C          -0.4267    2.4312   24.9407 C.ar    1  UNL1        0.0024
      7 C           0.6097    1.3583   24.7834 C.ar    1  UNL1        0.0311
      8 C           1.1146    0.9978   23.4177 C.ar    1  UNL1        0.1561
      9 F           2.1510   -0.0751   23.2603 F       1  UNL1       -0.2026
     10 C           0.5832    1.7102   22.2095 C.ar    1  UNL1        0.0917
     11 C           3.8316   -1.3010   18.9208 C.ar    1  UNL1        0.0141
     12 C           4.0083    0.1762   18.7298 C.ar    1  UNL1        0.0026
     13 C           3.0274    1.1338   19.3387 C.ar    1  UNL1        0.0176
     14 C           1.8698    0.6143   20.1386 C.ar    1  UNL1        0.0641
     15 C           1.6930   -0.8630   20.3296 C.ar    1  UNL1        0.0176
     16 C           2.6739   -1.8206   19.7207 C.ar    1  UNL1        0.0026
     17 O           5.8882   -1.7506   17.3983 O.co2   1  UNL1       -0.5446
     18 C           4.8125   -2.2587   18.3119 C.2     1  UNL1        0.0729
     19 O           4.7177   -3.7243   18.6167 O.co2   1  UNL1       -0.5446
     20 C          -1.7784    4.3911   20.6926 C.2     1  UNL1        0.1987
     21 O          -1.5103    5.8003   21.1310 O.2     1  UNL1       -0.2865
     22 C          -3.0371    4.0652   19.9445 C.ar    1  UNL1        0.0601
     23 C          -4.2607    3.6239   20.6916 C.ar    1  UNL1        0.0615
     24 CL         -4.2255    3.5086   22.1868 Cl      1  UNL1       -0.0821
     25 C          -5.5193    3.2979   19.9436 C.ar    1  UNL1        0.0115
     26 C          -5.5544    3.4132   18.4485 C.ar    1  UNL1        0.0017
     27 C          -4.3308    3.8545   17.7014 C.ar    1  UNL1        0.0115
     28 C          -3.0722    4.1804   18.4493 C.ar    1  UNL1        0.0615
     29 CL         -1.8486    4.6217   17.7022 Cl      1  UNL1       -0.0821
@<TRIPOS>UNITY_ATOM_ATTR
17 1
charge -1
@<TRIPOS>BOND
     1    17    18   ar
     2    18    19   ar
     3    18    11    1
     4    11    12   ar
     5    12    13   ar
     6    13    14   ar
     7    14     1    1
     8     1     2   ar
     9     2     3   ar
    10     3    20    1
    11    20    21    2
    12    20    22    1
    13    22    23   ar
    14    23    24    1
    15    23    25   ar
    16    25    26   ar
    17    26    27   ar
    18    27    28   ar
    19    28    29    1
    20     3     4   ar
    21     4     5   ar
    22     5     6   ar
    23     6     7   ar
    24     7     8   ar
    25     8     9    1
    26     8    10   ar
    27    14    15   ar
    28    15    16   ar
    29    16    11   ar
    30    10     1   ar
    31    28    22   ar
    32    10     4   ar
@<TRIPOS>MOLECULE
*****
 29 32 0 0 0
SMALL
GASTEIGER

@<TRIPOS>ATOM
      1 N          -6.0145  -18.1470   21.7037 N.ar    1  UNL1       -0.3028
      2 C          -6.5921  -17.4650   22.9084 C.ar    1  UNL1        0.0833
      3 C          -8.0711  -17.7150   22.9179 C.ar    1  UNL1        0.0580
      4 C          -8.4076  -18.5515   21.7191 C.ar    1  UNL1        0.0229
      5 C          -9.7071  -19.1045   21.2138 C.ar    1  UNL1        0.0017
      6 C          -9.7356  -19.9245   19.9582 C.ar    1  UNL1        0.0024
      7 C          -8.4646  -20.1915   19.2078 C.ar    1  UNL1        0.0311
      8 C          -7.1650  -19.6385   19.7130 C.ar    1  UNL1        0.1561
      9 F          -5.8940  -19.9055   18.9626 F       1  UNL1       -0.2026
     10 C          -7.1365  -18.8185   20.9687 C.ar    1  UNL1        0.0917
     11 C          -1.6772  -18.1739   20.5050 C.ar    1  UNL1        0.0141
     12 C          -2.0551  -18.2490   21.9546 C.ar    1  UNL1        0.0026
     13 C          -3.5009  -18.2400   22.3542 C.ar    1  UNL1        0.0176
     14 C          -4.5687  -18.1560   21.3042 C.ar    1  UNL1        0.0641
     15 C          -4.1908  -18.0810   19.8544 C.ar    1  UNL1        0.0176
     16 C          -2.7450  -18.0899   19.4549 C.ar    1  UNL1        0.0026
     17 O           0.5551  -16.9057   20.1072 O.co2   1  UNL1       -0.5446
     18 C          -0.2314  -18.1829   20.1054 C.2     1  UNL1        0.0729
     19 O           0.4279  -19.4691   19.7041 O.co2   1  UNL1       -0.5446
     20 C          -9.0430  -17.2161   23.9458 C.2     1  UNL1        0.1987
     21 O          -8.5464  -16.4651   25.1454 O.2     1  UNL1       -0.2865
     22 C         -10.5117  -17.4684   23.7739 C.ar    1  UNL1        0.0601
     23 C         -11.1742  -18.5841   24.5265 C.ar    1  UNL1        0.0615
     24 CL        -10.3679  -19.4475   25.4509 Cl      1  UNL1       -0.0821
     25 C         -12.6428  -18.8363   24.3548 C.ar    1  UNL1        0.0115
     26 C         -13.4489  -17.9728   23.4304 C.ar    1  UNL1        0.0017
     27 C         -12.7865  -16.8571   22.6778 C.ar    1  UNL1        0.0115
     28 C         -11.3179  -16.6049   22.8496 C.ar    1  UNL1        0.0615
     29 CL        -10.6555  -15.4892   22.0970 Cl      1  UNL1       -0.0821
@<TRIPOS>UNITY_ATOM_ATTR
17 1
charge -1
@<TRIPOS>BOND
     1    17    18   ar
     2    18    19   ar
     3    18    11    1
     4    11    12   ar
     5    12    13   ar
     6    13    14   ar
     7    14     1    1
     8     1     2   ar
     9     2     3   ar
    10     3    20    1
    11    20    21    2
    12    20    22    1
    13    22    23   ar
    14    23    24    1
    15    23    25   ar
    16    25    26   ar
    17    26    27   ar
    18    27    28   ar
    19    28    29    1
    20     3     4   ar
    21     4     5   ar
    22     5     6   ar
    23     6     7   ar
    24     7     8   ar
    25     8     9    1
    26     8    10   ar
    27    14    15   ar
    28    15    16   ar
    29    16    11   ar
    30    10     1   ar
    31    28    22   ar
    32    10     4   ar
@<TRIPOS>MOLECULE
*****
 29 32 0 0 0
SMALL
GASTEIGER

@<TRIPOS>ATOM
      1 N          -6.0272  -18.1327   21.7046 N.ar    1  UNL1       -0.3028
      2 C          -6.6040  -17.4285   22.8968 C.ar    1  UNL1        0.0833
      3 C          -8.0827  -17.6799   22.9129 C.ar    1  UNL1        0.0580
      4 C          -8.4197  -18.5395   21.7307 C.ar    1  UNL1        0.0229
      5 C          -9.7193  -19.1035   21.2377 C.ar    1  UNL1        0.0017
      6 C          -9.7484  -19.9473   19.9980 C.ar    1  UNL1        0.0024
      7 C          -8.4780  -20.2271   19.2512 C.ar    1  UNL1        0.0311
      8 C          -7.1784  -19.6631   19.7441 C.ar    1  UNL1        0.1561
      9 F          -5.9080  -19.9429   18.9973 F       1  UNL1       -0.2026
     10 C          -7.1493  -18.8193   20.9839 C.ar    1  UNL1        0.0917
     11 C          -1.6912  -18.1776   20.5013 C.ar    1  UNL1        0.0141
     12 C          -2.7603  -18.1102   19.4513 C.ar    1  UNL1        0.0026
     13 C          -4.2056  -18.0953   19.8525 C.ar    1  UNL1        0.0176
     14 C          -4.5819  -18.1476   21.3035 C.ar    1  UNL1        0.0641
     15 C          -3.5127  -18.2150   22.3535 C.ar    1  UNL1        0.0176
     16 C          -2.0674  -18.2299   21.9524 C.ar    1  UNL1        0.0026
     17 O           0.4099  -19.4830   19.7070 O.co2   1  UNL1       -0.5446
     18 C          -0.2459  -18.1925   20.1002 C.2     1  UNL1        0.0729
     19 O           0.5435  -16.9171   20.0923 O.co2   1  UNL1       -0.5446
     20 C          -9.0539  -17.1627   23.9323 C.2     1  UNL1        0.1987
     21 O          -8.5596  -16.3640   25.1017 O.2     1  UNL1       -0.2865
     22 C         -10.5197  -17.4441   23.7823 C.ar    1  UNL1        0.0601
     23 C         -11.3511  -16.6141   22.8496 C.ar    1  UNL1        0.0615
     24 CL        -10.7167  -15.5027   22.0669 Cl      1  UNL1       -0.0821
     25 C         -12.8168  -16.8954   22.6995 C.ar    1  UNL1        0.0115
     26 C         -13.4511  -18.0068   23.4821 C.ar    1  UNL1        0.0017
     27 C         -12.6197  -18.8368   24.4148 C.ar    1  UNL1        0.0115
     28 C         -11.1540  -18.5555   24.5649 C.ar    1  UNL1        0.0615
     29 CL        -10.3226  -19.3854   25.4976 Cl      1  UNL1       -0.0821
@<TRIPOS>UNITY_ATOM_ATTR
17 1
charge -1
@<TRIPOS>BOND
     1    17    18   ar
     2    18    19   ar
     3    18    11    1
     4    11    12   ar
     5    12    13   ar
     6    13    14   ar
     7    14     1    1
     8     1     2   ar
     9     2     3   ar
    10     3    20    1
    11    20    21    2
    12    20    22    1
    13    22    23   ar
    14    23    24    1
    15    23    25   ar
    16    25    26   ar
    17    26    27   ar
    18    27    28   ar
    19    28    29    1
    20     3     4   ar
    21     4     5   ar
    22     5     6   ar
    23     6     7   ar
    24     7     8   ar
    25     8     9    1
    26     8    10   ar
    27    14    15   ar
    28    15    16   ar
    29    16    11   ar
    30    10     1   ar
    31    28    22   ar
    32    10     4   ar
@<TRIPOS>MOLECULE
*****
 29 32 0 0 0
SMALL
GASTEIGER

@<TRIPOS>ATOM
      1 N          -6.3244  -17.0952   23.3623 N.ar    1  UNL1       -0.3028
      2 C          -7.6030  -17.6279   22.7867 C.ar    1  UNL1        0.0833
      3 C          -8.7097  -17.3185   23.7508 C.ar    1  UNL1        0.0580
      4 C          -8.1150  -16.5946   24.9223 C.ar    1  UNL1        0.0229
      5 C          -8.7255  -16.0432   26.1766 C.ar    1  UNL1        0.0017
      6 C          -7.8617  -15.3539   27.1908 C.ar    1  UNL1        0.0024
      7 C          -6.3875  -15.2159   26.9507 C.ar    1  UNL1        0.0311
      8 C          -5.7770  -15.7673   25.6964 C.ar    1  UNL1        0.1561
      9 F          -4.3028  -15.6293   25.4563 F       1  UNL1       -0.2026
     10 C          -6.6408  -16.4566   24.6822 C.ar    1  UNL1        0.0917
     11 C          -2.2538  -17.3657   21.4630 C.ar    1  UNL1        0.0141
     12 C          -2.7088  -16.0771   22.0814 C.ar    1  UNL1        0.0026
     13 C          -4.0656  -15.9869   22.7145 C.ar    1  UNL1        0.0176
     14 C          -4.9675  -17.1853   22.7292 C.ar    1  UNL1        0.0641
     15 C          -4.5125  -18.4740   22.1108 C.ar    1  UNL1        0.0176
     16 C          -3.1556  -18.5642   21.4777 C.ar    1  UNL1        0.0026
     17 O          -0.3074  -18.7968   20.5074 O.co2   1  UNL1       -0.5446
     18 C          -0.8969  -17.4558   20.8300 C.2     1  UNL1        0.0729
     19 O          -0.1295  -16.2049   20.5195 O.co2   1  UNL1       -0.5446
     20 C         -10.1570  -17.6711   23.5744 C.2     1  UNL1        0.1987
     21 O         -10.9359  -18.2394   24.7233 O.2     1  UNL1       -0.2865
     22 C         -10.8254  -17.4552   22.2489 C.ar    1  UNL1        0.0601
     23 C         -11.7081  -16.2606   22.0398 C.ar    1  UNL1        0.0615
     24 CL        -11.9224  -15.2819   23.1562 Cl      1  UNL1       -0.0821
     25 C         -12.3765  -16.0447   20.7145 C.ar    1  UNL1        0.0115
     26 C         -12.1621  -17.0235   19.5982 C.ar    1  UNL1        0.0017
     27 C         -11.2794  -18.2181   19.8073 C.ar    1  UNL1        0.0115
     28 C         -10.6110  -18.4340   21.1327 C.ar    1  UNL1        0.0615
     29 CL         -9.7283  -19.6286   21.3418 Cl      1  UNL1       -0.0821
@<TRIPOS>UNITY_ATOM_ATTR
17 1
charge -1
@<TRIPOS>BOND
     1    17    18   ar
     2    18    19   ar
     3    18    11    1
     4    11    12   ar
     5    12    13   ar
     6    13    14   ar
     7    14     1    1
     8     1     2   ar
     9     2     3   ar
    10     3    20    1
    11    20    21    2
    12    20    22    1
    13    22    23   ar
    14    23    24    1
    15    23    25   ar
    16    25    26   ar
    17    26    27   ar
    18    27    28   ar
    19    28    29    1
    20     3     4   ar
    21     4     5   ar
    22     5     6   ar
    23     6     7   ar
    24     7     8   ar
    25     8     9    1
    26     8    10   ar
    27    14    15   ar
    28    15    16   ar
    29    16    11   ar
    30    10     1   ar
    31    28    22   ar
    32    10     4   ar
