@<TRIPOS>MOLECULE
*****
 31 35 0 0 0
SMALL
GASTEIGER

@<TRIPOS>ATOM
      1 C           4.8948   -3.3397   22.1160 C.3     1  UNL1        0.1128
      2 O           6.0943   -4.2277   21.9659 O.3     1  UNL1       -0.3844
      3 H           6.0510   -4.6882   21.1133 H       1  UNL1        0.2103
      4 O           5.0715   -0.2964   28.2769 O.2     1  UNL1       -0.2745
      5 C           4.2107   -0.0346   27.0766 C.2     1  UNL1        0.2302
      6 N           4.3818   -0.8609   25.8365 N.am    1  UNL1       -0.2793
      7 C           5.4136   -1.9489   25.7966 C.3     1  UNL1        0.0935
      8 C           5.5846   -2.7752   24.5564 C.3     1  UNL1        0.0240
      9 C           4.7238   -2.5134   23.3562 C.3     1  UNL1        0.0304
     10 C           3.6920   -1.4254   23.3961 C.3     1  UNL1        0.0240
     11 C           3.5210   -0.5992   24.6363 C.3     1  UNL1        0.0935
     12 C           3.1789    1.0534   27.1166 C.3     1  UNL1        0.1146
     13 C           1.8076    0.7672   27.6528 C.ar    1  UNL1        0.0253
     14 C           0.5981    1.2923   26.9377 C.ar    1  UNL1        0.0984
     15 N          -0.7733    1.0062   27.4739 N.ar    1  UNL1       -0.2227
     16 C          -0.9351    0.1950   28.7251 C.ar    1  UNL1        0.1989
     17 N           0.2744   -0.3302   29.4403 N.ar    1  UNL1       -0.2227
     18 C           1.6457   -0.0440   28.9041 C.ar    1  UNL1        0.0984
     19 C           3.8662   -3.2779   21.0259 C.3     1  UNL1        0.0564
     20 C           3.9239   -2.1838   20.0014 C.3     1  UNL1        0.1119
     21 C           2.8629   -1.1534   19.7511 C.ar    1  UNL1       -0.0002
     22 C           1.5271   -0.9128   20.3896 C.ar    1  UNL1       -0.0024
     23 C           0.6643    0.2206   19.9194 C.ar    1  UNL1       -0.0003
     24 C           1.1374    1.1133   18.8106 C.ar    1  UNL1        0.0000
     25 C           2.4732    0.8726   18.1722 C.ar    1  UNL1        0.0012
     26 C           3.3359   -0.2607   18.6424 C.ar    1  UNL1        0.0152
     27 C           4.6893   -0.7394   18.2074 C.ar    1  UNL1        0.0804
     28 C           5.8182   -0.4834   17.2533 C.ar    1  UNL1        0.1177
     29 N           6.8792   -1.5138   17.5036 N.ar    1  UNL1       -0.2223
     30 C           6.4062   -2.4065   18.6124 C.ar    1  UNL1        0.1788
     31 N           5.0527   -1.9279   19.0473 N.ar    1  UNL1       -0.3069
@<TRIPOS>BOND
     1     4     5    2
     2     5    12    1
     3    12    13    1
     4    13    14   ar
     5    14    15   ar
     6    15    16   ar
     7    16    17   ar
     8    17    18   ar
     9     5     6   am
    10     6     7    1
    11     7     8    1
    12     8     9    1
    13     9     1    1
    14     1     2    1
    15     1    19    1
    16    19    20    1
    17    20    21    1
    18    21    22   ar
    19    22    23   ar
    20    23    24   ar
    21    24    25   ar
    22    25    26   ar
    23    26    27    1
    24    27    28   ar
    25    28    29   ar
    26    29    30   ar
    27    30    31   ar
    28     9    10    1
    29    10    11    1
    30    18    13   ar
    31    11     6    1
    32    31    20    1
    33    26    21   ar
    34    31    27   ar
    35     2     3    1
@<TRIPOS>MOLECULE
*****
 31 35 0 0 0
SMALL
GASTEIGER

@<TRIPOS>ATOM
      1 C           5.1001   -3.7678   21.0790 C.3     1  UNL1        0.1128
      2 O           6.1043   -4.6442   20.3908 O.3     1  UNL1       -0.3844
      3 H           5.8014   -4.8371   19.4898 H       1  UNL1        0.2103
      4 O           5.0528   -1.0920   27.4104 O.2     1  UNL1       -0.2745
      5 C           6.0426   -1.9921   26.7321 C.2     1  UNL1        0.2302
      6 N           5.8069   -2.4360   25.3188 N.am    1  UNL1       -0.2793
      7 C           4.5815   -1.9798   24.5838 C.3     1  UNL1        0.0935
      8 C           4.3459   -2.4238   23.1705 C.3     1  UNL1        0.0240
      9 C           5.3357   -3.3239   22.4923 C.3     1  UNL1        0.0304
     10 C           6.5611   -3.7800   23.2272 C.3     1  UNL1        0.0240
     11 C           6.7968   -3.3361   24.6405 C.3     1  UNL1        0.0935
     12 C           7.2681   -2.4482   27.4671 C.3     1  UNL1        0.1146
     13 C           7.1597   -3.5139   28.5171 C.ar    1  UNL1        0.0253
     14 C           7.4411   -4.9446   28.1652 C.ar    1  UNL1        0.0984
     15 N           7.3327   -6.0105   29.2151 N.ar    1  UNL1       -0.2227
     16 C           6.9429   -5.6455   30.6168 C.ar    1  UNL1        0.1989
     17 N           6.6615   -4.2147   30.9687 N.ar    1  UNL1       -0.2227
     18 C           6.7699   -3.1490   29.9188 C.ar    1  UNL1        0.0984
     19 C           3.8602   -3.3354   20.3538 C.3     1  UNL1        0.0564
     20 C           3.8638   -2.0676   19.5521 C.3     1  UNL1        0.1119
     21 C           2.7772   -1.0337   19.5327 C.ar    1  UNL1       -0.0002
     22 C           1.4602   -0.9482   20.2455 C.ar    1  UNL1       -0.0024
     23 C           0.5625    0.2327   20.0233 C.ar    1  UNL1       -0.0003
     24 C           0.9817    1.3282   19.0884 C.ar    1  UNL1        0.0000
     25 C           2.2987    1.2427   18.3756 C.ar    1  UNL1        0.0012
     26 C           3.1965    0.0618   18.5977 C.ar    1  UNL1        0.0152
     27 C           4.5422   -0.2951   18.0394 C.ar    1  UNL1        0.0804
     28 C           5.6330    0.1615   17.1165 C.ar    1  UNL1        0.1177
     29 N           6.7196   -0.8725   17.1360 N.ar    1  UNL1       -0.2223
     30 C           6.3003   -1.9680   18.0709 C.ar    1  UNL1        0.1788
     31 N           4.9546   -1.6111   18.6293 N.ar    1  UNL1       -0.3069
@<TRIPOS>BOND
     1     4     5    2
     2     5    12    1
     3    12    13    1
     4    13    14   ar
     5    14    15   ar
     6    15    16   ar
     7    16    17   ar
     8    17    18   ar
     9     5     6   am
    10     6     7    1
    11     7     8    1
    12     8     9    1
    13     9     1    1
    14     1     2    1
    15     1    19    1
    16    19    20    1
    17    20    21    1
    18    21    22   ar
    19    22    23   ar
    20    23    24   ar
    21    24    25   ar
    22    25    26   ar
    23    26    27    1
    24    27    28   ar
    25    28    29   ar
    26    29    30   ar
    27    30    31   ar
    28     9    10    1
    29    10    11    1
    30    18    13   ar
    31    11     6    1
    32    31    20    1
    33    26    21   ar
    34    31    27   ar
    35     2     3    1
@<TRIPOS>MOLECULE
*****
 31 35 0 0 0
SMALL
GASTEIGER

@<TRIPOS>ATOM
      1 C           4.9693   -2.1196   26.1716 C.3     1  UNL1        0.1128
      2 O           4.0903   -2.0760   27.3862 O.3     1  UNL1       -0.3844
      3 H           4.6142   -2.2956   28.1725 H       1  UNL1        0.2103
      4 O           1.6204    0.1514   20.6149 O.2     1  UNL1       -0.2745
      5 C           2.6744   -0.9056   20.7624 C.2     1  UNL1        0.2302
      6 N           3.2481   -1.2091   22.1148 N.am    1  UNL1       -0.2793
      7 C           2.7679   -0.4555   23.3195 C.3     1  UNL1        0.0935
      8 C           3.3416   -0.7590   24.6718 C.3     1  UNL1        0.0240
      9 C           4.3956   -1.8161   24.8193 C.3     1  UNL1        0.0304
     10 C           4.8758   -2.5697   23.6146 C.3     1  UNL1        0.0240
     11 C           4.3020   -2.2662   22.2623 C.3     1  UNL1        0.0935
     12 C           3.1545   -1.6592   19.5576 C.3     1  UNL1        0.1146
     13 C           4.2699   -1.1049   18.7217 C.ar    1  UNL1        0.0253
     14 C           4.3131    0.3606   18.4054 C.ar    1  UNL1        0.0984
     15 N           5.4285    0.9150   17.5695 N.ar    1  UNL1       -0.2227
     16 C           6.5006    0.0036   17.0500 C.ar    1  UNL1        0.1989
     17 N           6.4575   -1.4620   17.3664 N.ar    1  UNL1       -0.2227
     18 C           5.3421   -2.0163   18.2023 C.ar    1  UNL1        0.0984
     19 C           6.4222   -2.4666   26.3092 C.3     1  UNL1        0.0564
     20 C           6.8255   -3.7943   26.8790 C.3     1  UNL1        0.1119
     21 C           7.2900   -4.9858   26.0950 C.ar    1  UNL1       -0.0002
     22 C           7.4811   -5.2068   24.6238 C.ar    1  UNL1       -0.0024
     23 C           7.9689   -6.5334   24.1219 C.ar    1  UNL1       -0.0003
     24 C           8.2655   -7.6391   25.0911 C.ar    1  UNL1        0.0000
     25 C           8.0744   -7.4181   26.5624 C.ar    1  UNL1        0.0012
     26 C           7.5866   -6.0914   27.0643 C.ar    1  UNL1        0.0152
     27 C           7.3054   -5.5833   28.4473 C.ar    1  UNL1        0.0804
     28 C           7.3149   -5.9526   29.9012 C.ar    1  UNL1        0.1177
     29 N           6.8504   -4.7610   30.6851 N.ar    1  UNL1       -0.2223
     30 C           6.5538   -3.6554   29.7158 C.ar    1  UNL1        0.1788
     31 N           6.8350   -4.1636   28.3328 N.ar    1  UNL1       -0.3069
@<TRIPOS>BOND
     1     4     5    2
     2     5    12    1
     3    12    13    1
     4    13    14   ar
     5    14    15   ar
     6    15    16   ar
     7    16    17   ar
     8    17    18   ar
     9     5     6   am
    10     6     7    1
    11     7     8    1
    12     8     9    1
    13     9     1    1
    14     1     2    1
    15     1    19    1
    16    19    20    1
    17    20    21    1
    18    21    22   ar
    19    22    23   ar
    20    23    24   ar
    21    24    25   ar
    22    25    26   ar
    23    26    27    1
    24    27    28   ar
    25    28    29   ar
    26    29    30   ar
    27    30    31   ar
    28     9    10    1
    29    10    11    1
    30    18    13   ar
    31    11     6    1
    32    31    20    1
    33    26    21   ar
    34    31    27   ar
    35     2     3    1
@<TRIPOS>MOLECULE
*****
 31 35 0 0 0
SMALL
GASTEIGER

@<TRIPOS>ATOM
      1 C         -14.9683   -3.4363   20.1521 C.3     1  UNL1        0.1128
      2 O         -16.4261   -3.7256   20.3541 O.3     1  UNL1       -0.3844
      3 H         -16.5268   -4.5753   20.8112 H       1  UNL1        0.2103
      4 O         -11.8098    1.8870   17.1628 O.2     1  UNL1       -0.2745
      5 C         -13.2660    1.6156   17.3988 C.2     1  UNL1        0.2302
      6 N         -13.6915    0.3526   18.0871 N.am    1  UNL1       -0.2793
      7 C         -12.6608   -0.6389   18.5395 C.3     1  UNL1        0.0935
      8 C         -13.0864   -1.9018   19.2278 C.3     1  UNL1        0.0240
      9 C         -14.5427   -2.1733   19.4638 C.3     1  UNL1        0.0304
     10 C         -15.5734   -1.1819   19.0114 C.3     1  UNL1        0.0240
     11 C         -15.1478    0.0811   18.3231 C.3     1  UNL1        0.0935
     12 C         -14.2967    2.6071   16.9464 C.3     1  UNL1        0.1146
     13 C         -14.5695    3.8326   17.7671 C.ar    1  UNL1        0.0253
     14 C         -15.4263    3.7376   18.9946 C.ar    1  UNL1        0.0984
     15 N         -15.6993    4.9631   19.8155 N.ar    1  UNL1       -0.2227
     16 C         -15.1153    6.2835   19.4087 C.ar    1  UNL1        0.1989
     17 N         -14.2585    6.3785   18.1812 N.ar    1  UNL1       -0.2227
     18 C         -13.9856    5.1530   17.3604 C.ar    1  UNL1        0.0984
     19 C         -13.9359   -4.4099   20.6384 C.3     1  UNL1        0.0564
     20 C         -13.5127   -5.5532   19.7645 C.3     1  UNL1        0.1119
     21 C         -12.1504   -5.7501   19.1685 C.ar    1  UNL1       -0.0002
     22 C         -10.8920   -4.9380   19.2506 C.ar    1  UNL1       -0.0024
     23 C          -9.6565   -5.3947   18.5331 C.ar    1  UNL1       -0.0003
     24 C          -9.6794   -6.6635   17.7334 C.ar    1  UNL1        0.0000
     25 C         -10.9378   -7.4757   17.6512 C.ar    1  UNL1        0.0012
     26 C         -12.1733   -7.0190   18.3688 C.ar    1  UNL1        0.0152
     27 C         -13.5498   -7.6062   18.4706 C.ar    1  UNL1        0.0804
     28 C         -14.4147   -8.7534   18.0392 C.ar    1  UNL1        0.1177
     29 N         -15.7770   -8.5565   18.6353 N.ar    1  UNL1       -0.2223
     30 C         -15.7541   -7.2876   19.4350 C.ar    1  UNL1        0.1788
     31 N         -14.3776   -6.7004   19.3332 N.ar    1  UNL1       -0.3069
@<TRIPOS>BOND
     1     4     5    2
     2     5    12    1
     3    12    13    1
     4    13    14   ar
     5    14    15   ar
     6    15    16   ar
     7    16    17   ar
     8    17    18   ar
     9     5     6   am
    10     6     7    1
    11     7     8    1
    12     8     9    1
    13     9     1    1
    14     1     2    1
    15     1    19    1
    16    19    20    1
    17    20    21    1
    18    21    22   ar
    19    22    23   ar
    20    23    24   ar
    21    24    25   ar
    22    25    26   ar
    23    26    27    1
    24    27    28   ar
    25    28    29   ar
    26    29    30   ar
    27    30    31   ar
    28     9    10    1
    29    10    11    1
    30    18    13   ar
    31    11     6    1
    32    31    20    1
    33    26    21   ar
    34    31    27   ar
    35     2     3    1
@<TRIPOS>MOLECULE
*****
 31 35 0 0 0
SMALL
GASTEIGER

@<TRIPOS>ATOM
      1 C           3.8516   -1.2452   25.8033 C.3     1  UNL1        0.1128
      2 O           3.7650   -2.1040   27.0301 O.3     1  UNL1       -0.3844
      3 H           3.5117   -1.5573   27.7902 H       1  UNL1        0.2103
      4 O           6.5055   -4.6483   20.4531 O.2     1  UNL1       -0.2745
      5 C           5.3581   -3.6855   20.5331 C.2     1  UNL1        0.2302
      6 N           4.9815   -3.0754   21.8507 N.am    1  UNL1       -0.2793
      7 C           5.7523   -3.4282   23.0882 C.3     1  UNL1        0.0935
      8 C           5.3757   -2.8181   24.4057 C.3     1  UNL1        0.0240
      9 C           4.2283   -1.8553   24.4857 C.3     1  UNL1        0.0304
     10 C           3.4575   -1.5025   23.2483 C.3     1  UNL1        0.0240
     11 C           3.8341   -2.1126   21.9307 C.3     1  UNL1        0.0935
     12 C           4.5873   -3.3328   19.2956 C.3     1  UNL1        0.1146
     13 C           4.9717   -2.1267   18.4909 C.ar    1  UNL1        0.0253
     14 C           6.3783   -1.9747   17.9927 C.ar    1  UNL1        0.0984
     15 N           6.7628   -0.7686   17.1879 N.ar    1  UNL1       -0.2227
     16 C           5.7406    0.2855   16.8815 C.ar    1  UNL1        0.1989
     17 N           4.3338    0.1335   17.3797 N.ar    1  UNL1       -0.2227
     18 C           3.9495   -1.0726   18.1844 C.ar    1  UNL1        0.0984
     19 C           3.5616    0.2238   25.8941 C.3     1  UNL1        0.0564
     20 C           2.2154    0.6952   26.3586 C.3     1  UNL1        0.1119
     21 C           1.2138    1.4506   25.5363 C.ar    1  UNL1       -0.0002
     22 C           1.2394    1.9310   24.1156 C.ar    1  UNL1       -0.0024
     23 C           0.0650    2.6770   23.5550 C.ar    1  UNL1       -0.0003
     24 C          -1.1348    2.9426   24.4150 C.ar    1  UNL1        0.0000
     25 C          -1.1604    2.4622   25.8358 C.ar    1  UNL1        0.0012
     26 C           0.0140    1.7162   26.3964 C.ar    1  UNL1        0.0152
     27 C           0.2740    1.1249   27.7502 C.ar    1  UNL1        0.0804
     28 C          -0.3069    0.9235   29.1185 C.ar    1  UNL1        0.1177
     29 N           0.6948    0.1680   29.9407 N.ar    1  UNL1       -0.2223
     30 C           1.8947   -0.0975   29.0806 C.ar    1  UNL1        0.1788
     31 N           1.6346    0.4938   27.7268 N.ar    1  UNL1       -0.3069
@<TRIPOS>BOND
     1     4     5    2
     2     5    12    1
     3    12    13    1
     4    13    14   ar
     5    14    15   ar
     6    15    16   ar
     7    16    17   ar
     8    17    18   ar
     9     5     6   am
    10     6     7    1
    11     7     8    1
    12     8     9    1
    13     9     1    1
    14     1     2    1
    15     1    19    1
    16    19    20    1
    17    20    21    1
    18    21    22   ar
    19    22    23   ar
    20    23    24   ar
    21    24    25   ar
    22    25    26   ar
    23    26    27    1
    24    27    28   ar
    25    28    29   ar
    26    29    30   ar
    27    30    31   ar
    28     9    10    1
    29    10    11    1
    30    18    13   ar
    31    11     6    1
    32    31    20    1
    33    26    21   ar
    34    31    27   ar
    35     2     3    1
@<TRIPOS>MOLECULE
*****
 31 35 0 0 0
SMALL
GASTEIGER

@<TRIPOS>ATOM
      1 C          -6.0304  -20.2872   21.6070 C.3     1  UNL1        0.1128
      2 O          -6.0435  -21.1268   20.3641 O.3     1  UNL1       -0.3844
      3 H          -5.1438  -21.4347   20.1724 H       1  UNL1        0.2103
      4 O         -12.0124  -18.6745   24.5843 O.2     1  UNL1       -0.2745
      5 C         -11.1318  -17.8870   23.6599 C.2     1  UNL1        0.2302
      6 N          -9.8564  -18.4871   23.1467 N.am    1  UNL1       -0.2793
      7 C          -9.4617  -19.8746   23.5579 C.3     1  UNL1        0.0935
      8 C          -8.1863  -20.4746   23.0447 C.3     1  UNL1        0.0240
      9 C          -7.3058  -19.6872   22.1203 C.3     1  UNL1        0.0304
     10 C          -7.7005  -18.2997   21.7090 C.3     1  UNL1        0.0240
     11 C          -8.9759  -17.6997   22.2223 C.3     1  UNL1        0.0935
     12 C         -11.5266  -16.4996   23.2487 C.3     1  UNL1        0.1146
     13 C         -11.5231  -16.1176   21.7982 C.ar    1  UNL1        0.0253
     14 C         -12.6881  -16.4781   20.9249 C.ar    1  UNL1        0.0984
     15 N         -12.6846  -16.0962   19.4743 N.ar    1  UNL1       -0.2227
     16 C         -11.5160  -15.3537   18.8971 C.ar    1  UNL1        0.1989
     17 N         -10.3509  -14.9931   19.7705 N.ar    1  UNL1       -0.2227
     18 C         -10.3545  -15.3751   21.2210 C.ar    1  UNL1        0.0984
     19 C          -4.7419  -20.0475   22.3367 C.3     1  UNL1        0.0564
     20 C          -4.0990  -18.6928   22.2985 C.3     1  UNL1        0.1119
     21 C          -2.8640  -18.3243   21.5311 C.ar    1  UNL1       -0.0002
     22 C          -1.9613  -19.1232   20.6384 C.ar    1  UNL1       -0.0024
     23 C          -0.7746  -18.4702   19.9939 C.ar    1  UNL1       -0.0003
     24 C          -0.4907  -17.0184   20.2421 C.ar    1  UNL1        0.0000
     25 C          -1.3934  -16.2195   21.1347 C.ar    1  UNL1        0.0012
     26 C          -2.5800  -16.8725   21.7793 C.ar    1  UNL1        0.0152
     27 C          -3.6396  -16.3438   22.7000 C.ar    1  UNL1        0.0804
     28 C          -4.1189  -15.1196   23.4225 C.ar    1  UNL1        0.1177
     29 N          -5.3540  -15.4882   24.1899 N.ar    1  UNL1       -0.2223
     30 C          -5.6379  -16.9400   23.9417 C.ar    1  UNL1        0.1788
     31 N          -4.5784  -17.4688   23.0209 N.ar    1  UNL1       -0.3069
@<TRIPOS>BOND
     1     4     5    2
     2     5    12    1
     3    12    13    1
     4    13    14   ar
     5    14    15   ar
     6    15    16   ar
     7    16    17   ar
     8    17    18   ar
     9     5     6   am
    10     6     7    1
    11     7     8    1
    12     8     9    1
    13     9     1    1
    14     1     2    1
    15     1    19    1
    16    19    20    1
    17    20    21    1
    18    21    22   ar
    19    22    23   ar
    20    23    24   ar
    21    24    25   ar
    22    25    26   ar
    23    26    27    1
    24    27    28   ar
    25    28    29   ar
    26    29    30   ar
    27    30    31   ar
    28     9    10    1
    29    10    11    1
    30    18    13   ar
    31    11     6    1
    32    31    20    1
    33    26    21   ar
    34    31    27   ar
    35     2     3    1
@<TRIPOS>MOLECULE
*****
 31 35 0 0 0
SMALL
GASTEIGER

@<TRIPOS>ATOM
      1 C         -15.1289   -2.8284   19.3248 C.3     1  UNL1        0.1128
      2 O         -15.5668   -3.6057   20.5306 O.3     1  UNL1       -0.3844
      3 H         -15.4603   -4.5546   20.3597 H       1  UNL1        0.2103
      4 O         -14.4436    3.9635   18.5187 O.2     1  UNL1       -0.2745
      5 C         -15.3945    3.1656   19.3609 C.2     1  UNL1        0.2302
      6 N         -15.3280    1.6671   19.3518 N.am    1  UNL1       -0.2793
      7 C         -14.3108    0.9666   18.5007 C.3     1  UNL1        0.0935
      8 C         -14.2444   -0.5319   18.4917 C.3     1  UNL1        0.0240
      9 C         -15.1952   -1.3298   19.3338 C.3     1  UNL1        0.0304
     10 C         -16.2125   -0.6294   20.1850 C.3     1  UNL1        0.0240
     11 C         -16.2788    0.8692   20.1940 C.3     1  UNL1        0.0935
     12 C         -16.4117    3.8662   20.2120 C.3     1  UNL1        0.1146
     13 C         -16.1251    4.1278   21.6610 C.ar    1  UNL1        0.0253
     14 C         -14.8108    4.7240   22.0697 C.ar    1  UNL1        0.0984
     15 N         -14.5242    4.9856   23.5187 N.ar    1  UNL1       -0.2227
     16 C         -15.5519    4.6509   24.5588 C.ar    1  UNL1        0.1989
     17 N         -16.8662    4.0547   24.1500 N.ar    1  UNL1       -0.2227
     18 C         -17.1528    3.7931   22.7011 C.ar    1  UNL1        0.0984
     19 C         -14.6245   -3.5495   18.1100 C.3     1  UNL1        0.0564
     20 C         -13.9315   -4.8718   18.2565 C.3     1  UNL1        0.1119
     21 C         -12.4690   -5.0763   18.5198 C.ar    1  UNL1       -0.0002
     22 C         -11.3374   -4.1091   18.7036 C.ar    1  UNL1       -0.0024
     23 C          -9.9498   -4.6181   18.9590 C.ar    1  UNL1       -0.0003
     24 C          -9.6937   -6.0943   19.0307 C.ar    1  UNL1        0.0000
     25 C         -10.8254   -7.0615   18.8469 C.ar    1  UNL1        0.0012
     26 C         -12.2130   -6.5525   18.5915 C.ar    1  UNL1        0.0152
     27 C         -13.5173   -7.2603   18.3725 C.ar    1  UNL1        0.0804
     28 C         -14.1651   -8.6102   18.2815 C.ar    1  UNL1        0.1177
     29 N         -15.6276   -8.4056   18.0182 N.ar    1  UNL1       -0.2223
     30 C         -15.8836   -6.9293   17.9465 C.ar    1  UNL1        0.1788
     31 N         -14.5794   -6.2216   18.1655 N.ar    1  UNL1       -0.3069
@<TRIPOS>BOND
     1     4     5    2
     2     5    12    1
     3    12    13    1
     4    13    14   ar
     5    14    15   ar
     6    15    16   ar
     7    16    17   ar
     8    17    18   ar
     9     5     6   am
    10     6     7    1
    11     7     8    1
    12     8     9    1
    13     9     1    1
    14     1     2    1
    15     1    19    1
    16    19    20    1
    17    20    21    1
    18    21    22   ar
    19    22    23   ar
    20    23    24   ar
    21    24    25   ar
    22    25    26   ar
    23    26    27    1
    24    27    28   ar
    25    28    29   ar
    26    29    30   ar
    27    30    31   ar
    28     9    10    1
    29    10    11    1
    30    18    13   ar
    31    11     6    1
    32    31    20    1
    33    26    21   ar
    34    31    27   ar
    35     2     3    1
@<TRIPOS>MOLECULE
*****
 31 35 0 0 0
SMALL
GASTEIGER

@<TRIPOS>ATOM
      1 C          -5.8025  -20.3515   21.0993 C.3     1  UNL1        0.1128
      2 O          -5.4385  -21.4294   20.1218 O.3     1  UNL1       -0.3844
      3 H          -4.5661  -21.7888   20.3468 H       1  UNL1        0.2103
      4 O         -11.8156  -17.5513   19.2962 O.2     1  UNL1       -0.2745
      5 C         -11.0415  -17.4737   20.5787 C.2     1  UNL1        0.2302
      6 N          -9.7317  -18.1932   20.7088 N.am    1  UNL1       -0.2793
      7 C          -9.1961  -18.9902   19.5565 C.3     1  UNL1        0.0935
      8 C          -7.8863  -19.7097   19.6867 C.3     1  UNL1        0.0240
      9 C          -7.1123  -19.6321   20.9691 C.3     1  UNL1        0.0304
     10 C          -7.6478  -18.8351   22.1215 C.3     1  UNL1        0.0240
     11 C          -8.9576  -18.1156   21.9913 C.3     1  UNL1        0.0935
     12 C         -11.5771  -16.6767   21.7310 C.3     1  UNL1        0.1146
     13 C         -12.2113  -17.3764   22.8964 C.ar    1  UNL1        0.0253
     14 C         -13.7028  -17.3671   23.0555 C.ar    1  UNL1        0.0984
     15 N         -14.3371  -18.0668   24.2210 N.ar    1  UNL1       -0.2227
     16 C         -13.4798  -18.7756   25.2273 C.ar    1  UNL1        0.1989
     17 N         -11.9882  -18.7848   25.0682 N.ar    1  UNL1       -0.2227
     18 C         -11.3540  -18.0852   23.9027 C.ar    1  UNL1        0.0984
     19 C          -4.8567  -19.9931   22.2072 C.3     1  UNL1        0.0564
     20 C          -4.1730  -18.6580   22.2070 C.3     1  UNL1        0.1119
     21 C          -2.9122  -18.3132   21.4710 C.ar    1  UNL1       -0.0002
     22 C          -2.0160  -19.1228   20.5814 C.ar    1  UNL1       -0.0024
     23 C          -0.7976  -18.4945   19.9727 C.ar    1  UNL1       -0.0003
     24 C          -0.4753  -17.0567   20.2535 C.ar    1  UNL1        0.0000
     25 C          -1.3715  -16.2472   21.1431 C.ar    1  UNL1        0.0012
     26 C          -2.5899  -16.8754   21.7519 C.ar    1  UNL1        0.0152
     27 C          -3.6516  -16.3316   22.6614 C.ar    1  UNL1        0.0804
     28 C          -4.1085  -15.1068   23.3971 C.ar    1  UNL1        0.1177
     29 N          -5.3693  -15.4516   24.1331 N.ar    1  UNL1       -0.2223
     30 C          -5.6915  -16.8894   23.8522 C.ar    1  UNL1        0.1788
     31 N          -4.6299  -17.4333   22.9427 N.ar    1  UNL1       -0.3069
@<TRIPOS>BOND
     1     4     5    2
     2     5    12    1
     3    12    13    1
     4    13    14   ar
     5    14    15   ar
     6    15    16   ar
     7    16    17   ar
     8    17    18   ar
     9     5     6   am
    10     6     7    1
    11     7     8    1
    12     8     9    1
    13     9     1    1
    14     1     2    1
    15     1    19    1
    16    19    20    1
    17    20    21    1
    18    21    22   ar
    19    22    23   ar
    20    23    24   ar
    21    24    25   ar
    22    25    26   ar
    23    26    27    1
    24    27    28   ar
    25    28    29   ar
    26    29    30   ar
    27    30    31   ar
    28     9    10    1
    29    10    11    1
    30    18    13   ar
    31    11     6    1
    32    31    20    1
    33    26    21   ar
    34    31    27   ar
    35     2     3    1
@<TRIPOS>MOLECULE
*****
 31 35 0 0 0
SMALL
GASTEIGER

@<TRIPOS>ATOM
      1 C           7.2454   -4.8230   31.6650 C.3     1  UNL1        0.1128
      2 O           6.5226   -6.0102   32.2289 O.3     1  UNL1       -0.3844
      3 H           6.8404   -6.8179   31.7960 H       1  UNL1        0.2103
      4 O           7.1146    1.6261   34.0400 O.2     1  UNL1       -0.2745
      5 C           5.9996    0.6867   33.6875 C.2     1  UNL1        0.2302
      6 N           6.3112   -0.6908   33.1819 N.am    1  UNL1       -0.2793
      7 C           7.7376   -1.1287   33.0287 C.3     1  UNL1        0.0935
      8 C           8.0490   -2.5061   32.5231 C.3     1  UNL1        0.0240
      9 C           6.9340   -3.4456   32.1706 C.3     1  UNL1        0.0304
     10 C           5.5076   -3.0077   32.3238 C.3     1  UNL1        0.0240
     11 C           5.1962   -1.6302   32.8294 C.3     1  UNL1        0.0935
     12 C           4.5732    1.1247   33.8407 C.3     1  UNL1        0.1146
     13 C           3.9898    1.3145   35.2096 C.ar    1  UNL1        0.0253
     14 C           4.5625    0.5695   36.3787 C.ar    1  UNL1        0.0984
     15 N           3.9792    0.7593   37.7476 N.ar    1  UNL1       -0.2227
     16 C           2.8232    1.6941   37.9472 C.ar    1  UNL1        0.1989
     17 N           2.2505    2.4392   36.7779 N.ar    1  UNL1       -0.2227
     18 C           2.8339    2.2493   35.4091 C.ar    1  UNL1        0.0984
     19 C           8.2798   -5.0133   30.5953 C.3     1  UNL1        0.0564
     20 C           7.8968   -4.8867   29.1506 C.3     1  UNL1        0.1119
     21 C           7.9219   -5.9877   28.1321 C.ar    1  UNL1       -0.0002
     22 C           8.3041   -7.4350   28.2279 C.ar    1  UNL1       -0.0024
     23 C           8.2265   -8.3131   27.0143 C.ar    1  UNL1       -0.0003
     24 C           7.7666   -7.7438   25.7049 C.ar    1  UNL1        0.0000
     25 C           7.3843   -6.2965   25.6091 C.ar    1  UNL1        0.0012
     26 C           7.4620   -5.4185   26.8228 C.ar    1  UNL1        0.0152
     27 C           7.1526   -3.9657   27.0320 C.ar    1  UNL1        0.0804
     28 C           6.6772   -2.7160   26.3520 C.ar    1  UNL1        0.1177
     29 N           6.6521   -1.6151   27.3706 N.ar    1  UNL1       -0.2223
     30 C           7.1120   -2.1843   28.6799 C.ar    1  UNL1        0.1788
     31 N           7.4213   -3.6371   28.4707 N.ar    1  UNL1       -0.3069
@<TRIPOS>BOND
     1     4     5    2
     2     5    12    1
     3    12    13    1
     4    13    14   ar
     5    14    15   ar
     6    15    16   ar
     7    16    17   ar
     8    17    18   ar
     9     5     6   am
    10     6     7    1
    11     7     8    1
    12     8     9    1
    13     9     1    1
    14     1     2    1
    15     1    19    1
    16    19    20    1
    17    20    21    1
    18    21    22   ar
    19    22    23   ar
    20    23    24   ar
    21    24    25   ar
    22    25    26   ar
    23    26    27    1
    24    27    28   ar
    25    28    29   ar
    26    29    30   ar
    27    30    31   ar
    28     9    10    1
    29    10    11    1
    30    18    13   ar
    31    11     6    1
    32    31    20    1
    33    26    21   ar
    34    31    27   ar
    35     2     3    1
