@<TRIPOS>MOLECULE
*****
 36 38 0 0 0
SMALL
GASTEIGER

@<TRIPOS>ATOM
      1 C          -4.6395  -18.4119   22.3145 C.2     1  UNL1        0.0707
      2 C          -3.8789  -19.4910   21.6026 C.2     1  UNL1        0.0283
      3 C          -2.3873  -19.5726   21.7396 C.3     1  UNL1        0.0470
      4 N          -4.6097  -20.4886   20.7536 N.pl3   1  UNL1       -0.3192
      5 C          -6.1011  -20.4071   20.6165 C.2     1  UNL1        0.0283
      6 C          -6.8319  -21.4047   19.7676 C.3     1  UNL1        0.0470
      7 C          -6.8618  -19.3279   21.3284 C.2     1  UNL1        0.0707
      8 C          -6.1310  -18.3303   22.1774 C.3     1  UNL1        0.0814
      9 H          -4.1104  -21.1969   20.2864 H       1  UNL1        0.1516
     10 C          -6.8918  -17.2512   22.8893 C.ar    1  UNL1       -0.0077
     11 C          -7.2502  -15.9857   22.1681 C.ar    1  UNL1       -0.0032
     12 C          -8.0109  -14.9066   22.8800 C.ar    1  UNL1        0.0060
     13 C          -8.4132  -15.0929   24.3130 C.ar    1  UNL1        0.0752
     14 C          -8.0547  -16.3583   25.0341 C.ar    1  UNL1        0.2898
     15 C          -7.2940  -17.4375   24.3222 C.ar    1  UNL1        0.0716
     16 N          -8.4569  -16.5447   26.4671 N.pl3   1  UNL1        0.0809
     17 O          -9.0805  -17.8353   26.9094 O.2     1  UNL1        0.0415
     18 O          -8.2357  -15.4404   27.4578 O.co2   1  UNL1       -0.5760
     19 C          -3.9087  -17.4143   23.1634 C.2     1  UNL1        0.3388
     20 O          -3.6552  -17.7058   24.6128 O.2     1  UNL1       -0.2452
     21 C          -2.1533  -16.0911   21.7788 C.3     1  UNL1        0.2559
     22 O          -3.4315  -16.1253   22.5630 O.3     1  UNL1       -0.4415
     23 C          -8.3534  -19.2463   21.1913 C.2     1  UNL1        0.3387
     24 O          -9.2369  -19.9458   22.1814 O.2     1  UNL1       -0.2452
     25 O          -8.9613  -18.4653   20.0642 O.3     1  UNL1       -0.4441
     26 C         -10.3141  -18.8405   19.5358 C.3     1  UNL1        0.2260
     27 C         -11.5002  -17.9688   19.8245 C.3     1  UNL1        0.1204
     28 N         -11.2990  -16.5381   20.2281 N.3     1  UNL1       -0.2646
     29 C         -11.2644  -15.4620   19.1837 C.3     1  UNL1        0.0900
     30 C         -11.1325  -16.1836   21.6760 C.3     1  UNL1        0.0993
     31 C         -11.7576  -17.0424   22.7351 C.ar    1  UNL1       -0.0061
     32 C         -13.2494  -17.0775   22.8884 C.ar    1  UNL1       -0.0029
     33 C         -13.8745  -17.9363   23.9474 C.ar    1  UNL1       -0.0003
     34 C         -13.0079  -18.7600   24.8532 C.ar    1  UNL1       -0.0000
     35 C         -11.5162  -18.7250   24.7000 C.ar    1  UNL1       -0.0003
     36 C         -10.8910  -17.8662   23.6409 C.ar    1  UNL1       -0.0029
@<TRIPOS>UNITY_ATOM_ATTR
16 1
charge 1
18 1
charge -1
@<TRIPOS>BOND
     1    21    22    1
     2    22    19    1
     3    19    20    2
     4    19     1    1
     5     1     2    2
     6     2     3    1
     7     2     4    1
     8     4     5    1
     9     5     6    1
    10     5     7    2
    11     7    23    1
    12    23    24    2
    13    23    25    1
    14    25    26    1
    15    26    27    1
    16    27    28    1
    17    28    29    1
    18    28    30    1
    19    30    31    1
    20    31    32   ar
    21    32    33   ar
    22    33    34   ar
    23    34    35   ar
    24    35    36   ar
    25     7     8    1
    26     8    10    1
    27    10    11   ar
    28    11    12   ar
    29    12    13   ar
    30    13    14   ar
    31    14    16    1
    32    16    17    2
    33    16    18    1
    34    14    15   ar
    35     8     1    1
    36    15    10   ar
    37    36    31   ar
    38     4     9    1
@<TRIPOS>MOLECULE
*****
 36 38 0 0 0
SMALL
GASTEIGER

@<TRIPOS>ATOM
      1 C         -10.9281  -17.1160   21.8065 C.2     1  UNL1        0.0707
      2 C         -11.2889  -17.3281   20.3661 C.2     1  UNL1        0.0283
      3 C         -12.5222  -16.6890   19.7999 C.3     1  UNL1        0.0470
      4 N         -10.4164  -18.1792   19.4919 N.pl3   1  UNL1       -0.3192
      5 C          -9.1831  -18.8183   20.0580 C.2     1  UNL1        0.0283
      6 C          -8.3106  -19.6695   19.1838 C.3     1  UNL1        0.0470
      7 C          -8.8223  -18.6062   21.4984 C.2     1  UNL1        0.0707
      8 C          -9.6948  -17.7550   22.3726 C.3     1  UNL1        0.0814
      9 H         -10.6532  -18.3185   18.5465 H       1  UNL1        0.1516
     10 C          -9.3339  -17.5429   23.8131 C.ar    1  UNL1       -0.0077
     11 C          -9.9891  -18.3692   24.8799 C.ar    1  UNL1       -0.0032
     12 C          -9.6283  -18.1572   26.3203 C.ar    1  UNL1        0.0060
     13 C          -8.6123  -17.1188   26.6940 C.ar    1  UNL1        0.0752
     14 C          -7.9571  -16.2925   25.6272 C.ar    1  UNL1        0.2898
     15 C          -8.3179  -16.5046   24.1867 C.ar    1  UNL1        0.0716
     16 N          -6.9411  -15.2542   26.0008 N.pl3   1  UNL1        0.0809
     17 O          -6.2483  -14.4636   24.9308 O.2     1  UNL1        0.0415
     18 O          -6.6178  -15.0066   27.4445 O.co2   1  UNL1       -0.5760
     19 C         -11.8006  -16.2648   22.6807 C.2     1  UNL1        0.3388
     20 O         -11.2935  -14.9493   23.1928 O.2     1  UNL1       -0.2452
     21 C         -13.3860  -18.1079   23.5970 C.3     1  UNL1        0.2559
     22 O         -13.1801  -16.7292   23.0430 O.3     1  UNL1       -0.4415
     23 C          -7.5890  -19.2453   22.0646 C.2     1  UNL1        0.3387
     24 O          -7.7004  -20.5022   22.8755 O.2     1  UNL1       -0.2452
     25 O          -6.2443  -18.6273   21.8199 O.3     1  UNL1       -0.4441
     26 C          -5.0186  -19.4909   21.7770 C.3     1  UNL1        0.2260
     27 C          -3.8284  -19.1463   22.6224 C.3     1  UNL1        0.1204
     28 N          -3.5964  -17.7267   23.0480 N.3     1  UNL1       -0.2646
     29 C          -4.4220  -17.1293   24.1487 C.3     1  UNL1        0.0900
     30 C          -2.5389  -16.9046   22.3728 C.3     1  UNL1        0.0993
     31 C          -2.0993  -17.2457   20.9799 C.ar    1  UNL1       -0.0061
     32 C          -0.7168  -17.7753   20.7382 C.ar    1  UNL1       -0.0029
     33 C          -0.2772  -18.1164   19.3453 C.ar    1  UNL1       -0.0003
     34 C          -1.2200  -17.9279   18.1939 C.ar    1  UNL1       -0.0000
     35 C          -2.6024  -17.3983   18.4355 C.ar    1  UNL1       -0.0003
     36 C          -3.0421  -17.0572   19.8285 C.ar    1  UNL1       -0.0029
@<TRIPOS>UNITY_ATOM_ATTR
16 1
charge 1
18 1
charge -1
@<TRIPOS>BOND
     1    21    22    1
     2    22    19    1
     3    19    20    2
     4    19     1    1
     5     1     2    2
     6     2     3    1
     7     2     4    1
     8     4     5    1
     9     5     6    1
    10     5     7    2
    11     7    23    1
    12    23    24    2
    13    23    25    1
    14    25    26    1
    15    26    27    1
    16    27    28    1
    17    28    29    1
    18    28    30    1
    19    30    31    1
    20    31    32   ar
    21    32    33   ar
    22    33    34   ar
    23    34    35   ar
    24    35    36   ar
    25     7     8    1
    26     8    10    1
    27    10    11   ar
    28    11    12   ar
    29    12    13   ar
    30    13    14   ar
    31    14    16    1
    32    16    17    2
    33    16    18    1
    34    14    15   ar
    35     8     1    1
    36    15    10   ar
    37    36    31   ar
    38     4     9    1
@<TRIPOS>MOLECULE
*****
 36 38 0 0 0
SMALL
GASTEIGER

@<TRIPOS>ATOM
      1 C           4.5369   -2.2894   22.3382 C.2     1  UNL1        0.0707
      2 C           5.0549   -2.8926   23.6101 C.2     1  UNL1        0.0283
      3 C           5.9053   -4.1274   23.5627 C.3     1  UNL1        0.0470
      4 N           4.7226   -2.2610   24.9295 N.pl3   1  UNL1       -0.3192
      5 C           3.8723   -1.0263   24.9770 C.2     1  UNL1        0.0283
      6 C           3.5400   -0.3947   26.2963 C.3     1  UNL1        0.0470
      7 C           3.3543   -0.4231   23.7051 C.2     1  UNL1        0.0707
      8 C           3.6866   -1.0547   22.3857 C.3     1  UNL1        0.0814
      9 H           5.0626   -2.6569   25.7643 H       1  UNL1        0.1516
     10 C           3.1685   -0.4514   21.1138 C.ar    1  UNL1       -0.0077
     11 C           1.8019   -0.8150   20.6135 C.ar    1  UNL1       -0.0032
     12 C           1.2838   -0.2118   19.3416 C.ar    1  UNL1        0.0060
     13 C           2.1323    0.7550   18.5699 C.ar    1  UNL1        0.0752
     14 C           3.4989    1.1186   19.0702 C.ar    1  UNL1        0.2898
     15 C           4.0170    0.5154   20.3422 C.ar    1  UNL1        0.0716
     16 N           4.3474    2.0854   18.2987 N.pl3   1  UNL1        0.0809
     17 O           5.5403    1.5923   17.5346 O.2     1  UNL1        0.0415
     18 O           4.0029    3.5452   18.2911 O.co2   1  UNL1       -0.5760
     19 C           4.8692   -2.9210   21.0189 C.2     1  UNL1        0.3388
     20 O           6.0366   -2.4209   20.2208 O.2     1  UNL1       -0.2452
     21 C           3.3846   -3.9466   19.1496 C.3     1  UNL1        0.2559
     22 O           4.0340   -4.0527   20.4976 O.3     1  UNL1       -0.4415
     23 C           2.5039    0.8117   23.7525 C.2     1  UNL1        0.3387
     24 O           3.1488    2.1655   23.7905 O.2     1  UNL1       -0.2452
     25 O           1.0087    0.6927   23.7619 O.3     1  UNL1       -0.4441
     26 C           0.1946    1.5415   24.6928 C.3     1  UNL1        0.2260
     27 C           0.4094    1.4480   26.1744 C.3     1  UNL1        0.1204
     28 N          -0.7075    1.7861   27.1170 N.3     1  UNL1       -0.2646
     29 C          -1.6472    2.9097   26.7940 C.3     1  UNL1        0.0900
     30 C          -0.8845    1.0005   28.3825 C.3     1  UNL1        0.0993
     31 C           0.2593    0.8567   29.3421 C.ar    1  UNL1       -0.0061
     32 C           0.4559    1.8685   30.4319 C.ar    1  UNL1       -0.0029
     33 C           1.5997    1.7246   31.3915 C.ar    1  UNL1       -0.0003
     34 C           2.5470    0.5689   31.2614 C.ar    1  UNL1       -0.0000
     35 C           2.3505   -0.4429   30.1717 C.ar    1  UNL1       -0.0003
     36 C           1.2067   -0.2990   29.2120 C.ar    1  UNL1       -0.0029
@<TRIPOS>UNITY_ATOM_ATTR
16 1
charge 1
18 1
charge -1
@<TRIPOS>BOND
     1    21    22    1
     2    22    19    1
     3    19    20    2
     4    19     1    1
     5     1     2    2
     6     2     3    1
     7     2     4    1
     8     4     5    1
     9     5     6    1
    10     5     7    2
    11     7    23    1
    12    23    24    2
    13    23    25    1
    14    25    26    1
    15    26    27    1
    16    27    28    1
    17    28    29    1
    18    28    30    1
    19    30    31    1
    20    31    32   ar
    21    32    33   ar
    22    33    34   ar
    23    34    35   ar
    24    35    36   ar
    25     7     8    1
    26     8    10    1
    27    10    11   ar
    28    11    12   ar
    29    12    13   ar
    30    13    14   ar
    31    14    16    1
    32    16    17    2
    33    16    18    1
    34    14    15   ar
    35     8     1    1
    36    15    10   ar
    37    36    31   ar
    38     4     9    1
@<TRIPOS>MOLECULE
*****
 36 38 0 0 0
SMALL
GASTEIGER

@<TRIPOS>ATOM
      1 C           4.6686   -1.8384   23.0565 C.2     1  UNL1        0.0707
      2 C           5.1741   -3.2219   22.7731 C.2     1  UNL1        0.0283
      3 C           6.0573   -3.9160   23.7673 C.3     1  UNL1        0.0470
      4 N           4.7963   -3.9115   21.4957 N.pl3   1  UNL1       -0.3192
      5 C           3.9131   -3.2175   20.5016 C.2     1  UNL1        0.0283
      6 C           3.5353   -3.9070   19.2242 C.3     1  UNL1        0.0470
      7 C           3.4076   -1.8339   20.7850 C.2     1  UNL1        0.0707
      8 C           3.7854   -1.1444   22.0624 C.3     1  UNL1        0.0814
      9 H           5.1281   -4.8195   21.3098 H       1  UNL1        0.1516
     10 C           3.2799    0.2392   22.3457 C.ar    1  UNL1       -0.0077
     11 C           4.0606    1.4327   21.8808 C.ar    1  UNL1       -0.0032
     12 C           3.5552    2.8163   22.1641 C.ar    1  UNL1        0.0060
     13 C           2.2690    3.0064   22.9122 C.ar    1  UNL1        0.0752
     14 C           1.4883    1.8129   23.3771 C.ar    1  UNL1        0.2898
     15 C           1.9938    0.4293   23.0938 C.ar    1  UNL1        0.0716
     16 N           0.2022    2.0029   24.1252 N.pl3   1  UNL1        0.0809
     17 O          -0.0745    1.1952   25.3586 O.2     1  UNL1        0.0415
     18 O          -0.8073    3.0007   23.6400 O.co2   1  UNL1       -0.5760
     19 C           5.0464   -1.1488   24.3339 C.2     1  UNL1        0.3388
     20 O           6.1559   -0.1394   24.3416 O.2     1  UNL1       -0.2452
     21 C           3.5115   -0.4067   26.2943 C.3     1  UNL1        0.2559
     22 O           4.3147   -1.4687   25.6036 O.3     1  UNL1       -0.4415
     23 C           2.5244   -1.1399   19.7908 C.2     1  UNL1        0.3387
     24 O           1.0752   -0.9136   20.1047 O.2     1  UNL1       -0.2452
     25 O           3.0904   -0.6721   18.4828 O.3     1  UNL1       -0.4441
     26 C           3.3516    0.7877   18.2578 C.3     1  UNL1        0.2260
     27 C           4.7584    1.2812   18.0927 C.3     1  UNL1        0.1204
     28 N           5.7875    0.4081   17.4379 N.3     1  UNL1       -0.2646
     29 C           6.6664    0.9656   16.3578 C.3     1  UNL1        0.0900
     30 C           5.9377   -1.0224   17.8633 C.3     1  UNL1        0.0993
     31 C           6.7488   -1.3623   19.0784 C.ar    1  UNL1       -0.0061
     32 C           6.9381   -0.3434   20.1629 C.ar    1  UNL1       -0.0029
     33 C           7.7492   -0.6833   21.3780 C.ar    1  UNL1       -0.0003
     34 C           8.3709   -2.0421   21.5088 C.ar    1  UNL1       -0.0000
     35 C           8.1816   -3.0610   20.4244 C.ar    1  UNL1       -0.0003
     36 C           7.3705   -2.7211   19.2092 C.ar    1  UNL1       -0.0029
@<TRIPOS>UNITY_ATOM_ATTR
16 1
charge 1
18 1
charge -1
@<TRIPOS>BOND
     1    21    22    1
     2    22    19    1
     3    19    20    2
     4    19     1    1
     5     1     2    2
     6     2     3    1
     7     2     4    1
     8     4     5    1
     9     5     6    1
    10     5     7    2
    11     7    23    1
    12    23    24    2
    13    23    25    1
    14    25    26    1
    15    26    27    1
    16    27    28    1
    17    28    29    1
    18    28    30    1
    19    30    31    1
    20    31    32   ar
    21    32    33   ar
    22    33    34   ar
    23    34    35   ar
    24    35    36   ar
    25     7     8    1
    26     8    10    1
    27    10    11   ar
    28    11    12   ar
    29    12    13   ar
    30    13    14   ar
    31    14    16    1
    32    16    17    2
    33    16    18    1
    34    14    15   ar
    35     8     1    1
    36    15    10   ar
    37    36    31   ar
    38     4     9    1
@<TRIPOS>MOLECULE
*****
 36 38 0 0 0
SMALL
GASTEIGER

@<TRIPOS>ATOM
      1 C           6.8933   -3.6495   24.5633 C.2     1  UNL1        0.0707
      2 C           6.8458   -3.6258   26.0624 C.2     1  UNL1        0.0283
      3 C           7.7301   -4.5420   26.8553 C.3     1  UNL1        0.0470
      4 N           5.9140   -2.6861   26.7685 N.pl3   1  UNL1       -0.3192
      5 C           5.0297   -1.7700   25.9756 C.2     1  UNL1        0.0283
      6 C           4.0979   -0.8302   26.6818 C.3     1  UNL1        0.0470
      7 C           5.0772   -1.7936   24.4766 C.2     1  UNL1        0.0707
      8 C           6.0090   -2.7334   23.7705 C.3     1  UNL1        0.0814
      9 H           5.8829   -2.6706   27.7524 H       1  UNL1        0.1516
     10 C           6.0564   -2.7570   22.2713 C.ar    1  UNL1       -0.0077
     11 C           6.9648   -1.8176   21.5349 C.ar    1  UNL1       -0.0032
     12 C           7.0122   -1.8412   20.0358 C.ar    1  UNL1        0.0060
     13 C           6.1513   -2.8042   19.2732 C.ar    1  UNL1        0.0752
     14 C           5.2430   -3.7436   20.0097 C.ar    1  UNL1        0.2898
     15 C           5.1955   -3.7200   21.5088 C.ar    1  UNL1        0.0716
     16 N           4.3821   -4.7065   19.2472 N.pl3   1  UNL1        0.0809
     17 O           4.9421   -6.0264   18.8064 O.2     1  UNL1        0.0415
     18 O           2.9612   -4.3496   18.9254 O.co2   1  UNL1       -0.5760
     19 C           7.8250   -4.5892   23.8572 C.2     1  UNL1        0.3388
     20 O           9.1730   -4.1106   23.4057 O.2     1  UNL1       -0.2452
     21 C           8.2668   -7.1393   24.0856 C.3     1  UNL1        0.2559
     22 O           7.4089   -6.0076   23.6025 O.3     1  UNL1       -0.4415
     23 C           4.1929   -0.8775   23.6837 C.2     1  UNL1        0.3387
     24 O           2.8943   -1.3832   23.1288 O.2     1  UNL1       -0.2452
     25 O           4.6072    0.5444   23.4456 O.3     1  UNL1       -0.4441
     26 C           4.3757    1.1789   22.1063 C.3     1  UNL1        0.2260
     27 C           3.1785    2.0559   21.8887 C.3     1  UNL1        0.1204
     28 N           2.1314    1.6614   20.8896 N.3     1  UNL1       -0.2646
     29 C           0.9244    0.8893   21.3335 C.3     1  UNL1        0.0900
     30 C           2.2913    2.0390   19.4468 C.3     1  UNL1        0.0993
     31 C           3.3054    1.3345   18.5952 C.ar    1  UNL1       -0.0061
     32 C           4.6709    1.9272   18.4099 C.ar    1  UNL1       -0.0029
     33 C           5.6850    1.2227   17.5583 C.ar    1  UNL1       -0.0003
     34 C           5.3337   -0.0744   16.8920 C.ar    1  UNL1       -0.0000
     35 C           3.9683   -0.6671   17.0773 C.ar    1  UNL1       -0.0003
     36 C           2.9542    0.0373   17.9289 C.ar    1  UNL1       -0.0029
@<TRIPOS>UNITY_ATOM_ATTR
16 1
charge 1
18 1
charge -1
@<TRIPOS>BOND
     1    21    22    1
     2    22    19    1
     3    19    20    2
     4    19     1    1
     5     1     2    2
     6     2     3    1
     7     2     4    1
     8     4     5    1
     9     5     6    1
    10     5     7    2
    11     7    23    1
    12    23    24    2
    13    23    25    1
    14    25    26    1
    15    26    27    1
    16    27    28    1
    17    28    29    1
    18    28    30    1
    19    30    31    1
    20    31    32   ar
    21    32    33   ar
    22    33    34   ar
    23    34    35   ar
    24    35    36   ar
    25     7     8    1
    26     8    10    1
    27    10    11   ar
    28    11    12   ar
    29    12    13   ar
    30    13    14   ar
    31    14    16    1
    32    16    17    2
    33    16    18    1
    34    14    15   ar
    35     8     1    1
    36    15    10   ar
    37    36    31   ar
    38     4     9    1
@<TRIPOS>MOLECULE
*****
 36 38 0 0 0
SMALL
GASTEIGER

@<TRIPOS>ATOM
      1 C           5.0658   -2.9370   20.4583 C.2     1  UNL1        0.0707
      2 C           4.1801   -3.5177   19.3961 C.2     1  UNL1        0.0283
      3 C           3.5833   -4.8815   19.5803 C.3     1  UNL1        0.0470
      4 N           3.8912   -2.7347   18.1498 N.pl3   1  UNL1       -0.3192
      5 C           4.4880   -1.3709   17.9656 C.2     1  UNL1        0.0283
      6 C           4.1991   -0.5879   16.7193 C.3     1  UNL1        0.0470
      7 C           5.3737   -0.7902   19.0278 C.2     1  UNL1        0.0707
      8 C           5.6626   -1.5732   20.2741 C.3     1  UNL1        0.0814
      9 H           3.3099   -3.1158   17.4526 H       1  UNL1        0.1516
     10 C           6.5483   -0.9924   21.3363 C.ar    1  UNL1       -0.0077
     11 C           8.0343   -1.1819   21.2599 C.ar    1  UNL1       -0.0032
     12 C           8.9201   -0.6011   22.3220 C.ar    1  UNL1        0.0060
     13 C           8.3198    0.1691   23.4607 C.ar    1  UNL1        0.0752
     14 C           6.8338    0.3586   23.5371 C.ar    1  UNL1        0.2898
     15 C           5.9480   -0.2222   22.4749 C.ar    1  UNL1        0.0716
     16 N           6.2335    1.1288   24.6757 N.pl3   1  UNL1        0.0809
     17 O           5.2735    0.4569   25.6122 O.2     1  UNL1        0.0415
     18 O           6.5932    2.5709   24.8778 O.co2   1  UNL1       -0.5760
     19 C           5.3547   -3.7200   21.7047 C.2     1  UNL1        0.3388
     20 O           4.3809   -3.7005   22.8453 O.2     1  UNL1       -0.2452
     21 C           7.4736   -4.4157   23.0374 C.3     1  UNL1        0.2559
     22 O           6.6175   -4.5226   21.8104 O.3     1  UNL1       -0.4415
     23 C           5.9705    0.5737   18.8436 C.2     1  UNL1        0.3387
     24 O           7.3624    0.7165   18.3031 O.2     1  UNL1       -0.2452
     25 O           5.1754    1.7946   19.2000 O.3     1  UNL1       -0.4441
     26 C           5.6890    2.7474   20.2384 C.3     1  UNL1        0.2260
     27 C           4.9731    4.0417   20.4883 C.3     1  UNL1        0.1204
     28 N           3.5002    4.1472   20.2246 N.3     1  UNL1       -0.2646
     29 C           2.9988    5.0087   19.1037 C.3     1  UNL1        0.0900
     30 C           2.5288    3.3912   21.0817 C.3     1  UNL1        0.0993
     31 C           2.2173    1.9562   20.7755 C.ar    1  UNL1       -0.0061
     32 C           1.5328    1.5950   19.4906 C.ar    1  UNL1       -0.0029
     33 C           1.2213    0.1600   19.1844 C.ar    1  UNL1       -0.0003
     34 C           1.5943   -0.9138   20.1630 C.ar    1  UNL1       -0.0000
     35 C           2.2788   -0.5526   21.4479 C.ar    1  UNL1       -0.0003
     36 C           2.5903    0.8824   21.7542 C.ar    1  UNL1       -0.0029
@<TRIPOS>UNITY_ATOM_ATTR
16 1
charge 1
18 1
charge -1
@<TRIPOS>BOND
     1    21    22    1
     2    22    19    1
     3    19    20    2
     4    19     1    1
     5     1     2    2
     6     2     3    1
     7     2     4    1
     8     4     5    1
     9     5     6    1
    10     5     7    2
    11     7    23    1
    12    23    24    2
    13    23    25    1
    14    25    26    1
    15    26    27    1
    16    27    28    1
    17    28    29    1
    18    28    30    1
    19    30    31    1
    20    31    32   ar
    21    32    33   ar
    22    33    34   ar
    23    34    35   ar
    24    35    36   ar
    25     7     8    1
    26     8    10    1
    27    10    11   ar
    28    11    12   ar
    29    12    13   ar
    30    13    14   ar
    31    14    16    1
    32    16    17    2
    33    16    18    1
    34    14    15   ar
    35     8     1    1
    36    15    10   ar
    37    36    31   ar
    38     4     9    1
@<TRIPOS>MOLECULE
*****
 36 38 0 0 0
SMALL
GASTEIGER

@<TRIPOS>ATOM
      1 C           5.3630   -3.0904   20.3463 C.2     1  UNL1        0.0707
      2 C           4.2926   -3.6752   19.4733 C.2     1  UNL1        0.0283
      3 C           3.7055   -5.0158   19.8025 C.3     1  UNL1        0.0470
      4 N           3.8093   -2.9196   18.2711 N.pl3   1  UNL1       -0.3192
      5 C           4.3963   -1.5791   17.9419 C.2     1  UNL1        0.0283
      6 C           3.9130   -0.8234   16.7396 C.3     1  UNL1        0.0470
      7 C           5.4667   -0.9943   18.8149 C.2     1  UNL1        0.0707
      8 C           5.9501   -1.7499   20.0171 C.3     1  UNL1        0.0814
      9 H           3.1067   -3.3034   17.6981 H       1  UNL1        0.1516
     10 C           7.0206   -1.1650   20.8901 C.ar    1  UNL1       -0.0077
     11 C           8.4651   -1.4288   20.5841 C.ar    1  UNL1       -0.0032
     12 C           9.5356   -0.8440   21.4571 C.ar    1  UNL1        0.0060
     13 C           9.1615    0.0047   22.6360 C.ar    1  UNL1        0.0752
     14 C           7.7169    0.2685   22.9420 C.ar    1  UNL1        0.2898
     15 C           6.6464   -0.3164   22.0690 C.ar    1  UNL1        0.0716
     16 N           7.3428    1.1171   24.1208 N.pl3   1  UNL1        0.0809
     17 O           7.0430    0.4745   25.4426 O.2     1  UNL1        0.0415
     18 O           7.2684    2.6084   23.9779 O.co2   1  UNL1       -0.5760
     19 C           5.8464   -3.8461   21.5485 C.2     1  UNL1        0.3388
     20 O           7.0818   -4.6917   21.4561 O.2     1  UNL1       -0.2452
     21 C           5.8196   -3.4084   24.1093 C.3     1  UNL1        0.2559
     22 O           5.0943   -3.7561   22.8432 O.3     1  UNL1       -0.4415
     23 C           6.0538    0.3463   18.4856 C.2     1  UNL1        0.3387
     24 O           7.1676    0.4524   17.4865 O.2     1  UNL1       -0.2452
     25 O           5.5271    1.5807   19.1556 O.3     1  UNL1       -0.4441
     26 C           4.2570    2.2138   18.6698 C.3     1  UNL1        0.2260
     27 C           3.0199    2.1582   19.5162 C.3     1  UNL1        0.1204
     28 N           2.0693    1.0057   19.3802 N.3     1  UNL1       -0.2646
     29 C           0.9685    1.0576   18.3626 C.3     1  UNL1        0.0900
     30 C           2.2195   -0.1985   20.2618 C.3     1  UNL1        0.0993
     31 C           2.2479   -0.0375   21.7528 C.ar    1  UNL1       -0.0061
     32 C           3.1922   -0.8604   22.5782 C.ar    1  UNL1       -0.0029
     33 C           3.2206   -0.6994   24.0693 C.ar    1  UNL1       -0.0003
     34 C           2.3048    0.2845   24.7350 C.ar    1  UNL1       -0.0000
     35 C           1.3606    1.1074   23.9097 C.ar    1  UNL1       -0.0003
     36 C           1.3321    0.9464   22.4186 C.ar    1  UNL1       -0.0029
@<TRIPOS>UNITY_ATOM_ATTR
16 1
charge 1
18 1
charge -1
@<TRIPOS>BOND
     1    21    22    1
     2    22    19    1
     3    19    20    2
     4    19     1    1
     5     1     2    2
     6     2     3    1
     7     2     4    1
     8     4     5    1
     9     5     6    1
    10     5     7    2
    11     7    23    1
    12    23    24    2
    13    23    25    1
    14    25    26    1
    15    26    27    1
    16    27    28    1
    17    28    29    1
    18    28    30    1
    19    30    31    1
    20    31    32   ar
    21    32    33   ar
    22    33    34   ar
    23    34    35   ar
    24    35    36   ar
    25     7     8    1
    26     8    10    1
    27    10    11   ar
    28    11    12   ar
    29    12    13   ar
    30    13    14   ar
    31    14    16    1
    32    16    17    2
    33    16    18    1
    34    14    15   ar
    35     8     1    1
    36    15    10   ar
    37    36    31   ar
    38     4     9    1
@<TRIPOS>MOLECULE
*****
 36 38 0 0 0
SMALL
GASTEIGER

@<TRIPOS>ATOM
      1 C           3.9285   -1.2313   23.3960 C.2     1  UNL1        0.0707
      2 C           3.4852   -0.8111   24.7659 C.2     1  UNL1        0.0283
      3 C           4.2070   -1.3222   25.9775 C.3     1  UNL1        0.0470
      4 N           2.3201    0.1202   24.9244 N.pl3   1  UNL1       -0.3192
      5 C           1.5983    0.6314   23.7130 C.2     1  UNL1        0.0283
      6 C           0.4332    1.5627   23.8715 C.3     1  UNL1        0.0470
      7 C           2.0416    0.2112   22.3430 C.2     1  UNL1        0.0707
      8 C           3.2068   -0.7201   22.1845 C.3     1  UNL1        0.0814
      9 H           2.0291    0.3960   25.8236 H       1  UNL1        0.1516
     10 C           3.6501   -1.1403   20.8144 C.ar    1  UNL1       -0.0077
     11 C           3.2085   -2.4602   20.2552 C.ar    1  UNL1       -0.0032
     12 C           3.6517   -2.8804   18.8852 C.ar    1  UNL1        0.0060
     13 C           4.5367   -1.9807   18.0744 C.ar    1  UNL1        0.0752
     14 C           4.9783   -0.6607   18.6336 C.ar    1  UNL1        0.2898
     15 C           4.5350   -0.2406   20.0037 C.ar    1  UNL1        0.0716
     16 N           5.8632    0.2390   17.8228 N.pl3   1  UNL1        0.0809
     17 O           6.8310   -0.3489   16.8392 O.2     1  UNL1        0.0415
     18 O           5.7802    1.7267   17.9958 O.co2   1  UNL1       -0.5760
     19 C           5.0937   -2.1626   23.2375 C.2     1  UNL1        0.3388
     20 O           4.8610   -3.6378   23.0973 O.2     1  UNL1       -0.2452
     21 C           7.3105   -1.6974   21.9649 C.3     1  UNL1        0.2559
     22 O           6.4915   -1.6188   23.2192 O.3     1  UNL1       -0.4415
     23 C           1.3198    0.7224   21.1314 C.2     1  UNL1        0.3387
     24 O           0.0607    0.0506   20.6696 O.2     1  UNL1       -0.2452
     25 O           1.8572    1.9053   20.3818 O.3     1  UNL1       -0.4441
     26 C           1.1958    3.2444   20.5201 C.3     1  UNL1        0.2260
     27 C           2.0071    4.4990   20.3863 C.3     1  UNL1        0.1204
     28 N           2.7835    5.0188   21.5598 N.3     1  UNL1       -0.2646
     29 C           3.6201    6.2556   21.4171 C.3     1  UNL1        0.0900
     30 C           2.7231    4.3019   22.8760 C.3     1  UNL1        0.0993
     31 C           3.8678    3.4359   23.3115 C.ar    1  UNL1       -0.0061
     32 C           4.7323    2.7640   22.2862 C.ar    1  UNL1       -0.0029
     33 C           5.8770    1.8980   22.7216 C.ar    1  UNL1       -0.0003
     34 C           6.1573    1.7040   24.1824 C.ar    1  UNL1       -0.0000
     35 C           5.2929    2.3759   25.2077 C.ar    1  UNL1       -0.0003
     36 C           4.1481    3.2419   24.7722 C.ar    1  UNL1       -0.0029
@<TRIPOS>UNITY_ATOM_ATTR
16 1
charge 1
18 1
charge -1
@<TRIPOS>BOND
     1    21    22    1
     2    22    19    1
     3    19    20    2
     4    19     1    1
     5     1     2    2
     6     2     3    1
     7     2     4    1
     8     4     5    1
     9     5     6    1
    10     5     7    2
    11     7    23    1
    12    23    24    2
    13    23    25    1
    14    25    26    1
    15    26    27    1
    16    27    28    1
    17    28    29    1
    18    28    30    1
    19    30    31    1
    20    31    32   ar
    21    32    33   ar
    22    33    34   ar
    23    34    35   ar
    24    35    36   ar
    25     7     8    1
    26     8    10    1
    27    10    11   ar
    28    11    12   ar
    29    12    13   ar
    30    13    14   ar
    31    14    16    1
    32    16    17    2
    33    16    18    1
    34    14    15   ar
    35     8     1    1
    36    15    10   ar
    37    36    31   ar
    38     4     9    1
@<TRIPOS>MOLECULE
*****
 36 38 0 0 0
SMALL
GASTEIGER

@<TRIPOS>ATOM
      1 C           4.4271   -2.4494   21.3012 C.2     1  UNL1        0.0707
      2 C           3.6518   -2.8058   20.0676 C.2     1  UNL1        0.0283
      3 C           4.1154   -3.9297   19.1890 C.3     1  UNL1        0.0470
      4 N           2.4128   -2.0384   19.7126 N.pl3   1  UNL1       -0.3192
      5 C           1.9492   -0.9145   20.5913 C.2     1  UNL1        0.0283
      6 C           0.7102   -0.1471   20.2363 C.3     1  UNL1        0.0470
      7 C           2.7245   -0.5581   21.8248 C.2     1  UNL1        0.0707
      8 C           3.9635   -1.3256   22.1798 C.3     1  UNL1        0.0814
      9 H           1.9040   -2.2723   18.9030 H       1  UNL1        0.1516
     10 C           4.7388   -0.9691   23.4135 C.ar    1  UNL1       -0.0077
     11 C           5.8902   -0.0118   23.3252 C.ar    1  UNL1       -0.0032
     12 C           6.6656    0.3446   24.5588 C.ar    1  UNL1        0.0060
     13 C           6.2895   -0.2562   25.8808 C.ar    1  UNL1        0.0752
     14 C           5.1380   -1.2135   25.9691 C.ar    1  UNL1        0.2898
     15 C           4.3627   -1.5700   24.7354 C.ar    1  UNL1        0.0716
     16 N           4.7619   -1.8144   27.2910 N.pl3   1  UNL1        0.0809
     17 O           5.7842   -2.5656   28.0914 O.2     1  UNL1        0.0415
     18 O           3.3636   -1.6640   27.8125 O.co2   1  UNL1       -0.5760
     19 C           5.6661   -3.2168   21.6562 C.2     1  UNL1        0.3388
     20 O           5.6036   -4.3087   22.6828 O.2     1  UNL1       -0.2452
     21 C           8.1503   -3.7972   21.1646 C.3     1  UNL1        0.2559
     22 O           6.9675   -2.8924   20.9847 O.3     1  UNL1       -0.4415
     23 C           2.2609    0.5658   22.7035 C.2     1  UNL1        0.3387
     24 O           1.6945    0.2718   24.0610 O.2     1  UNL1       -0.2452
     25 O           2.3637    1.9835   22.2247 O.3     1  UNL1       -0.4441
     26 C           3.7097    2.6275   22.0710 C.3     1  UNL1        0.2260
     27 C           3.8867    3.7791   21.1263 C.3     1  UNL1        0.1204
     28 N           3.9564    3.5327   19.6482 N.3     1  UNL1       -0.2646
     29 C           4.6277    4.5310   18.7523 C.3     1  UNL1        0.0900
     30 C           3.3547    2.2881   19.0662 C.3     1  UNL1        0.0993
     31 C           4.2388    1.1454   18.6632 C.ar    1  UNL1       -0.0061
     32 C           5.5114    0.8814   19.4121 C.ar    1  UNL1       -0.0029
     33 C           6.3955   -0.2614   19.0091 C.ar    1  UNL1       -0.0003
     34 C           6.0070   -1.1402   17.8572 C.ar    1  UNL1       -0.0000
     35 C           4.7345   -0.8762   17.1083 C.ar    1  UNL1       -0.0003
     36 C           3.8503    0.2666   17.5113 C.ar    1  UNL1       -0.0029
@<TRIPOS>UNITY_ATOM_ATTR
16 1
charge 1
18 1
charge -1
@<TRIPOS>BOND
     1    21    22    1
     2    22    19    1
     3    19    20    2
     4    19     1    1
     5     1     2    2
     6     2     3    1
     7     2     4    1
     8     4     5    1
     9     5     6    1
    10     5     7    2
    11     7    23    1
    12    23    24    2
    13    23    25    1
    14    25    26    1
    15    26    27    1
    16    27    28    1
    17    28    29    1
    18    28    30    1
    19    30    31    1
    20    31    32   ar
    21    32    33   ar
    22    33    34   ar
    23    34    35   ar
    24    35    36   ar
    25     7     8    1
    26     8    10    1
    27    10    11   ar
    28    11    12   ar
    29    12    13   ar
    30    13    14   ar
    31    14    16    1
    32    16    17    2
    33    16    18    1
    34    14    15   ar
    35     8     1    1
    36    15    10   ar
    37    36    31   ar
    38     4     9    1
