@<TRIPOS>MOLECULE
*****
 26 29 0 0 0
SMALL
GASTEIGER

@<TRIPOS>ATOM
      1 C          -4.4125  -19.2745   20.8202 C.ar    1  UNL1        0.0537
      2 C          -5.4480  -19.4775   19.7540 C.ar    1  UNL1        0.0061
      3 C          -6.8811  -19.1262   20.0238 C.ar    1  UNL1        0.0193
      4 C          -7.2788  -18.5720   21.3596 C.ar    1  UNL1        0.0824
      5 C          -6.2433  -18.3691   22.4259 C.ar    1  UNL1        0.0193
      6 C          -4.8102  -18.7203   22.1561 C.ar    1  UNL1        0.0061
      7 N          -8.7120  -18.2208   21.6294 N.ar    1  UNL1       -0.2339
      8 N          -9.5642  -17.3008   20.8064 N.ar    1  UNL1       -0.1617
      9 C         -10.9234  -17.2393   21.4380 C.ar    1  UNL1        0.1720
     10 C         -10.9112  -18.1213   22.6513 C.ar    1  UNL1        0.0443
     11 C          -9.5444  -18.7279   22.7696 C.ar    1  UNL1        0.0628
     12 C          -9.2344  -19.6636   23.9002 C.3     1  UNL1        0.0777
     13 C         -10.2912  -19.9927   24.9125 C.3     1  UNL1        0.1489
     14 O         -11.6580  -19.3861   24.7942 O.3     1  UNL1       -0.3485
     15 C         -11.9680  -18.4504   23.6636 C.3     1  UNL1        0.1713
     16 C         -12.0901  -16.4368   20.9431 C.3     1  UNL1        0.4363
     17 F         -13.2567  -15.6342   20.4484 F       1  UNL1       -0.1644
     18 F         -12.1783  -15.7459   22.2717 F       1  UNL1       -0.1644
     19 F         -12.0018  -17.1276   19.6147 F       1  UNL1       -0.1644
     20 O          -2.5785  -21.0610   20.3786 O.2     1  UNL1       -0.2699
     21 C          -2.9794  -19.6258   20.5504 C.2     1  UNL1        0.2490
     22 N          -1.9473  -18.5418   20.4524 N.am    1  UNL1       -0.2761
     23 C          -0.4838  -18.7390   20.1885 C.3     1  UNL1        0.0938
     24 C           0.1706  -17.3895   20.1741 C.3     1  UNL1        0.0233
     25 C          -0.8883  -16.3580   20.4291 C.3     1  UNL1        0.0233
     26 C          -2.1972  -17.0702   20.6010 C.3     1  UNL1        0.0938
@<TRIPOS>BOND
     1    20    21    2
     2    21     1    1
     3     1     2   ar
     4     2     3   ar
     5     3     4   ar
     6     4     7    1
     7     7     8   ar
     8     8     9   ar
     9     9    16    1
    10    16    17    1
    11    16    18    1
    12    16    19    1
    13     9    10   ar
    14    10    11   ar
    15    11    12    1
    16    12    13    1
    17    13    14    1
    18    14    15    1
    19     4     5   ar
    20     5     6   ar
    21    21    22   am
    22    22    23    1
    23    23    24    1
    24    24    25    1
    25    25    26    1
    26     6     1   ar
    27    26    22    1
    28    11     7   ar
    29    15    10    1
@<TRIPOS>MOLECULE
*****
 26 29 0 0 0
SMALL
GASTEIGER

@<TRIPOS>ATOM
      1 C          -5.1361  -17.9501   22.6746 C.ar    1  UNL1        0.0537
      2 C          -5.9585  -19.0794   22.1285 C.ar    1  UNL1        0.0061
      3 C          -7.4558  -19.0156   22.1914 C.ar    1  UNL1        0.0193
      4 C          -8.1308  -17.8225   22.8003 C.ar    1  UNL1        0.0824
      5 C          -7.3083  -16.6931   23.3465 C.ar    1  UNL1        0.0193
      6 C          -5.8110  -16.7569   23.2836 C.ar    1  UNL1        0.0061
      7 N          -9.6281  -17.7587   22.8632 N.ar    1  UNL1       -0.2339
      8 N         -10.4857  -18.2636   23.9855 N.ar    1  UNL1       -0.1617
      9 C         -11.9183  -17.9957   23.6307 C.ar    1  UNL1        0.1720
     10 C         -11.9461  -17.3252   22.2892 C.ar    1  UNL1        0.0443
     11 C         -10.5306  -17.1787   21.8148 C.ar    1  UNL1        0.0628
     12 C         -10.2464  -16.5362   20.4896 C.3     1  UNL1        0.0777
     13 C         -11.3777  -16.0401   19.6387 C.3     1  UNL1        0.1489
     14 O         -12.7932  -16.1866   20.1130 O.3     1  UNL1       -0.3485
     15 C         -13.0774  -16.8291   21.4383 C.3     1  UNL1        0.1713
     16 C         -13.1134  -18.3381   24.4701 C.3     1  UNL1        0.4363
     17 F         -14.3085  -18.6805   25.3095 F       1  UNL1       -0.1644
     18 F         -13.9115  -17.2821   23.7646 F       1  UNL1       -0.1644
     19 F         -12.3153  -19.3941   25.1756 F       1  UNL1       -0.1644
     20 O          -2.8306  -17.9231   23.8721 O.2     1  UNL1       -0.2699
     21 C          -3.6387  -18.0139   22.6117 C.2     1  UNL1        0.2490
     22 N          -2.9497  -18.1686   21.2884 N.am    1  UNL1       -0.2761
     23 C          -1.4676  -18.2469   21.0698 C.3     1  UNL1        0.0938
     24 C          -1.2236  -18.3987   19.5977 C.3     1  UNL1        0.0233
     25 C          -2.5547  -18.4143   18.9063 C.3     1  UNL1        0.0233
     26 C          -3.6215  -18.2721   19.9511 C.3     1  UNL1        0.0938
@<TRIPOS>BOND
     1    20    21    2
     2    21     1    1
     3     1     2   ar
     4     2     3   ar
     5     3     4   ar
     6     4     7    1
     7     7     8   ar
     8     8     9   ar
     9     9    16    1
    10    16    17    1
    11    16    18    1
    12    16    19    1
    13     9    10   ar
    14    10    11   ar
    15    11    12    1
    16    12    13    1
    17    13    14    1
    18    14    15    1
    19     4     5   ar
    20     5     6   ar
    21    21    22   am
    22    22    23    1
    23    23    24    1
    24    24    25    1
    25    25    26    1
    26     6     1   ar
    27    26    22    1
    28    11     7   ar
    29    15    10    1
@<TRIPOS>MOLECULE
*****
 26 29 0 0 0
SMALL
GASTEIGER

@<TRIPOS>ATOM
      1 C         -16.2010   -9.0234   18.4998 C.ar    1  UNL1        0.0537
      2 C         -14.9599   -9.0874   17.6597 C.ar    1  UNL1        0.0061
      3 C         -13.9803   -7.9517   17.6814 C.ar    1  UNL1        0.0193
      4 C         -14.2415   -6.7521   18.5431 C.ar    1  UNL1        0.0824
      5 C         -15.4827   -6.6881   19.3832 C.ar    1  UNL1        0.0193
      6 C         -16.4623   -7.8238   19.3615 C.ar    1  UNL1        0.0061
      7 N         -13.2619   -5.6164   18.5648 N.ar    1  UNL1       -0.2339
      8 N         -13.5905   -4.1648   18.3777 N.ar    1  UNL1       -0.1617
      9 C         -12.3133   -3.3843   18.4747 C.ar    1  UNL1        0.1720
     10 C         -11.1953   -4.3534   18.7217 C.ar    1  UNL1        0.0443
     11 C         -11.7816   -5.7329   18.7775 C.ar    1  UNL1        0.0628
     12 C         -10.8918   -6.9170   19.0146 C.3     1  UNL1        0.0777
     13 C          -9.4158   -6.7214   19.1961 C.3     1  UNL1        0.1489
     14 O          -8.8295   -5.3419   19.1403 O.3     1  UNL1       -0.3485
     15 C          -9.7193   -4.1578   18.9032 C.3     1  UNL1        0.1713
     16 C         -12.1778   -1.8959   18.3470 C.3     1  UNL1        0.4363
     17 F         -12.0422   -0.4074   18.2192 F       1  UNL1       -0.1644
     18 F         -11.7906   -2.0547   16.9065 F       1  UNL1       -0.1644
     19 F         -12.5649   -1.7370   19.7874 F       1  UNL1       -0.1644
     20 O         -16.9527  -11.3629   19.3435 O.2     1  UNL1       -0.2699
     21 C         -17.1806  -10.1591   18.4781 C.2     1  UNL1        0.2490
     22 N         -18.3882  -10.0910   17.5910 N.am    1  UNL1       -0.2761
     23 C         -19.4493  -11.1437   17.4636 C.3     1  UNL1        0.0938
     24 C         -20.4636  -10.6615   16.4694 C.3     1  UNL1        0.0233
     25 C         -20.0296   -9.3108   15.9823 C.3     1  UNL1        0.0233
     26 C         -18.7470   -8.9582   16.6754 C.3     1  UNL1        0.0938
@<TRIPOS>BOND
     1    20    21    2
     2    21     1    1
     3     1     2   ar
     4     2     3   ar
     5     3     4   ar
     6     4     7    1
     7     7     8   ar
     8     8     9   ar
     9     9    16    1
    10    16    17    1
    11    16    18    1
    12    16    19    1
    13     9    10   ar
    14    10    11   ar
    15    11    12    1
    16    12    13    1
    17    13    14    1
    18    14    15    1
    19     4     5   ar
    20     5     6   ar
    21    21    22   am
    22    22    23    1
    23    23    24    1
    24    24    25    1
    25    25    26    1
    26     6     1   ar
    27    26    22    1
    28    11     7   ar
    29    15    10    1
@<TRIPOS>MOLECULE
*****
 26 29 0 0 0
SMALL
GASTEIGER

@<TRIPOS>ATOM
      1 C         -17.4703   -7.2599   19.4378 C.ar    1  UNL1        0.0537
      2 C         -17.6357   -5.8045   19.1146 C.ar    1  UNL1        0.0061
      3 C         -16.4275   -4.9421   18.8991 C.ar    1  UNL1        0.0193
      4 C         -15.0539   -5.5350   19.0068 C.ar    1  UNL1        0.0824
      5 C         -14.8885   -6.9905   19.3300 C.ar    1  UNL1        0.0193
      6 C         -16.0967   -7.8529   19.5455 C.ar    1  UNL1        0.0061
      7 N         -13.8457   -4.6726   18.7913 N.ar    1  UNL1       -0.2339
      8 N         -13.8524   -3.1969   18.5220 N.ar    1  UNL1       -0.1617
      9 C         -12.4295   -2.7468   18.3716 C.ar    1  UNL1        0.1720
     10 C         -11.5433   -3.9442   18.5479 C.ar    1  UNL1        0.0443
     11 C         -12.4186   -5.1344   18.8073 C.ar    1  UNL1        0.0628
     12 C         -11.8031   -6.4849   19.0245 C.3     1  UNL1        0.0777
     13 C         -10.3123   -6.6452   18.9824 C.3     1  UNL1        0.1489
     14 O          -9.4371   -5.4550   18.7230 O.3     1  UNL1       -0.3485
     15 C         -10.0526   -4.1045   18.5057 C.3     1  UNL1        0.1713
     16 C         -11.9728   -1.3453   18.0936 C.3     1  UNL1        0.4363
     17 F         -11.5161    0.0562   17.8158 F       1  UNL1       -0.1644
     18 F         -11.2654   -1.3135   19.4160 F       1  UNL1       -0.1644
     19 F         -12.6801   -1.3770   16.7714 F       1  UNL1       -0.1644
     20 O         -19.4033   -8.0835   20.9660 O.2     1  UNL1       -0.2699
     21 C         -18.6785   -8.1224   19.6533 C.2     1  UNL1        0.2490
     22 N         -19.1619   -9.0236   18.5560 N.am    1  UNL1       -0.2761
     23 C         -20.3491   -9.9381   18.6248 C.3     1  UNL1        0.0938
     24 C         -20.4640  -10.6482   17.3086 C.3     1  UNL1        0.0233
     25 C         -19.3480  -10.1727   16.4263 C.3     1  UNL1        0.0233
     26 C         -18.5433   -9.1686   17.1972 C.3     1  UNL1        0.0938
@<TRIPOS>BOND
     1    20    21    2
     2    21     1    1
     3     1     2   ar
     4     2     3   ar
     5     3     4   ar
     6     4     7    1
     7     7     8   ar
     8     8     9   ar
     9     9    16    1
    10    16    17    1
    11    16    18    1
    12    16    19    1
    13     9    10   ar
    14    10    11   ar
    15    11    12    1
    16    12    13    1
    17    13    14    1
    18    14    15    1
    19     4     5   ar
    20     5     6   ar
    21    21    22   am
    22    22    23    1
    23    23    24    1
    24    24    25    1
    25    25    26    1
    26     6     1   ar
    27    26    22    1
    28    11     7   ar
    29    15    10    1
@<TRIPOS>MOLECULE
*****
 26 29 0 0 0
SMALL
GASTEIGER

@<TRIPOS>ATOM
      1 C           0.5249    3.1961   19.6533 C.ar    1  UNL1        0.0537
      2 C           1.3953    2.7349   20.7845 C.ar    1  UNL1        0.0061
      3 C           2.1878    1.4681   20.6528 C.ar    1  UNL1        0.0193
      4 C           2.1099    0.6625   19.3900 C.ar    1  UNL1        0.0824
      5 C           1.2394    1.1237   18.2587 C.ar    1  UNL1        0.0193
      6 C           0.4469    2.3905   18.3904 C.ar    1  UNL1        0.0061
      7 N           2.9023   -0.6042   19.2582 N.ar    1  UNL1       -0.2339
      8 N           2.5110   -1.9489   19.7955 N.ar    1  UNL1       -0.1617
      9 C           3.5920   -2.9244   19.4354 C.ar    1  UNL1        0.1720
     10 C           4.6515   -2.1826   18.6756 C.ar    1  UNL1        0.0443
     11 C           4.2252   -0.7486   18.5661 C.ar    1  UNL1        0.0628
     12 C           5.0967    0.2403   17.8503 C.3     1  UNL1        0.0777
     13 C           6.3945   -0.2047   17.2440 C.3     1  UNL1        0.1489
     14 O           6.8208   -1.6387   17.3535 O.3     1  UNL1       -0.3485
     15 C           5.9493   -2.6276   18.0693 C.3     1  UNL1        0.1713
     16 C           3.6105   -4.3853   19.7754 C.3     1  UNL1        0.4363
     17 F           3.6289   -5.8461   20.1154 F       1  UNL1       -0.1644
     18 F           4.6260   -4.1229   20.8477 F       1  UNL1       -0.1644
     19 F           2.5950   -4.6476   18.7031 F       1  UNL1       -0.1644
     20 O           0.3727    5.7836   19.4760 O.2     1  UNL1       -0.2699
     21 C          -0.2675    4.4628   19.7851 C.2     1  UNL1        0.2490
     22 N          -1.7003    4.4087   20.2258 N.am    1  UNL1       -0.2761
     23 C          -2.6136    5.5856   20.4021 C.3     1  UNL1        0.0938
     24 C          -3.9490    5.0726   20.8530 C.3     1  UNL1        0.0233
     25 C          -3.8612    3.5785   20.9553 C.3     1  UNL1        0.0233
     26 C          -2.4714    3.1683   20.5678 C.3     1  UNL1        0.0938
@<TRIPOS>BOND
     1    20    21    2
     2    21     1    1
     3     1     2   ar
     4     2     3   ar
     5     3     4   ar
     6     4     7    1
     7     7     8   ar
     8     8     9   ar
     9     9    16    1
    10    16    17    1
    11    16    18    1
    12    16    19    1
    13     9    10   ar
    14    10    11   ar
    15    11    12    1
    16    12    13    1
    17    13    14    1
    18    14    15    1
    19     4     5   ar
    20     5     6   ar
    21    21    22   am
    22    22    23    1
    23    23    24    1
    24    24    25    1
    25    25    26    1
    26     6     1   ar
    27    26    22    1
    28    11     7   ar
    29    15    10    1
@<TRIPOS>MOLECULE
*****
 26 29 0 0 0
SMALL
GASTEIGER

@<TRIPOS>ATOM
      1 C           0.5432    2.5294   20.1913 C.ar    1  UNL1        0.0537
      2 C           2.0358    2.5588   20.0461 C.ar    1  UNL1        0.0061
      3 C           2.8234    1.2854   20.1371 C.ar    1  UNL1        0.0193
      4 C           2.1185   -0.0173   20.3731 C.ar    1  UNL1        0.0824
      5 C           0.6257   -0.0467   20.5183 C.ar    1  UNL1        0.0193
      6 C          -0.1619    1.2267   20.4274 C.ar    1  UNL1        0.0061
      7 N           2.9061   -1.2906   20.4641 N.ar    1  UNL1       -0.2339
      8 N           3.1161   -2.2785   19.3551 N.ar    1  UNL1       -0.1617
      9 C           3.9618   -3.3981   19.8856 C.ar    1  UNL1        0.1720
     10 C           4.2744   -3.1021   21.3225 C.ar    1  UNL1        0.0443
     11 C           3.6220   -1.7996   21.6800 C.ar    1  UNL1        0.0628
     12 C           3.7640   -1.2453   23.0666 C.3     1  UNL1        0.0777
     13 C           4.5585   -1.9935   24.0956 C.3     1  UNL1        0.1489
     14 O           5.2109   -3.2960   23.7381 O.3     1  UNL1       -0.3485
     15 C           5.0689   -3.8503   22.3515 C.3     1  UNL1        0.1713
     16 C           4.4152   -4.6022   19.1146 C.3     1  UNL1        0.4363
     17 F           4.8687   -5.8064   18.3436 F       1  UNL1       -0.1644
     18 F           5.3944   -3.7513   18.3616 F       1  UNL1       -0.1644
     19 F           3.4360   -5.4531   19.8676 F       1  UNL1       -0.1644
     20 O          -0.4967    4.6183   21.3337 O.2     1  UNL1       -0.2699
     21 C          -0.2444    3.8028   20.1003 C.2     1  UNL1        0.2490
     22 N          -0.7797    4.2605   18.7760 N.am    1  UNL1       -0.2761
     23 C          -1.5802    5.5053   18.5311 C.3     1  UNL1        0.0938
     24 C          -1.9037    5.5680   17.0679 C.3     1  UNL1        0.0233
     25 C          -1.3033    4.3619   16.4082 C.3     1  UNL1        0.0233
     26 C          -0.6087    3.5539   17.4639 C.3     1  UNL1        0.0938
@<TRIPOS>BOND
     1    20    21    2
     2    21     1    1
     3     1     2   ar
     4     2     3   ar
     5     3     4   ar
     6     4     7    1
     7     7     8   ar
     8     8     9   ar
     9     9    16    1
    10    16    17    1
    11    16    18    1
    12    16    19    1
    13     9    10   ar
    14    10    11   ar
    15    11    12    1
    16    12    13    1
    17    13    14    1
    18    14    15    1
    19     4     5   ar
    20     5     6   ar
    21    21    22   am
    22    22    23    1
    23    23    24    1
    24    24    25    1
    25    25    26    1
    26     6     1   ar
    27    26    22    1
    28    11     7   ar
    29    15    10    1
@<TRIPOS>MOLECULE
*****
 26 29 0 0 0
SMALL
GASTEIGER

@<TRIPOS>ATOM
      1 C           0.4482    2.4236   19.2894 C.ar    1  UNL1        0.0537
      2 C           1.7585    2.2012   18.5939 C.ar    1  UNL1        0.0061
      3 C           2.5407    0.9474   18.8511 C.ar    1  UNL1        0.0193
      4 C           2.0128   -0.0839   19.8037 C.ar    1  UNL1        0.0824
      5 C           0.7025    0.1385   20.4992 C.ar    1  UNL1        0.0193
      6 C          -0.0798    1.3923   20.2420 C.ar    1  UNL1        0.0061
      7 N           2.7950   -1.3377   20.0608 N.ar    1  UNL1       -0.2339
      8 N           3.0794   -2.4200   19.0619 N.ar    1  UNL1       -0.1617
      9 C           3.8903   -3.4805   19.7458 C.ar    1  UNL1        0.1720
     10 C           4.1072   -3.0536   21.1674 C.ar    1  UNL1        0.0443
     11 C           3.4302   -1.7293   21.3621 C.ar    1  UNL1        0.0628
     12 C           3.4797   -1.0511   22.6990 C.3     1  UNL1        0.0777
     13 C           4.2061   -1.6972   23.8413 C.3     1  UNL1        0.1489
     14 O           4.8830   -3.0215   23.6466 O.3     1  UNL1       -0.3485
     15 C           4.8336   -3.6997   22.3097 C.3     1  UNL1        0.1713
     16 C           4.3957   -4.7457   19.1184 C.3     1  UNL1        0.4363
     17 F           4.9011   -6.0111   18.4910 F       1  UNL1       -0.1644
     18 F           3.4181   -5.5401   19.9328 F       1  UNL1       -0.1644
     19 F           5.3733   -3.9514   18.3040 F       1  UNL1       -0.1644
     20 O          -1.2811    3.7457   17.8711 O.2     1  UNL1       -0.2699
     21 C          -0.3340    3.6774   19.0322 C.2     1  UNL1        0.2490
     22 N          -0.1690    4.8630   19.9362 N.am    1  UNL1       -0.2761
     23 C          -0.8799    6.1774   19.8052 C.3     1  UNL1        0.0938
     24 C          -0.4145    7.0691   20.9179 C.3     1  UNL1        0.0233
     25 C           0.5840    6.3058   21.7368 C.3     1  UNL1        0.0233
     26 C           0.7357    4.9424   21.1301 C.3     1  UNL1        0.0938
@<TRIPOS>BOND
     1    20    21    2
     2    21     1    1
     3     1     2   ar
     4     2     3   ar
     5     3     4   ar
     6     4     7    1
     7     7     8   ar
     8     8     9   ar
     9     9    16    1
    10    16    17    1
    11    16    18    1
    12    16    19    1
    13     9    10   ar
    14    10    11   ar
    15    11    12    1
    16    12    13    1
    17    13    14    1
    18    14    15    1
    19     4     5   ar
    20     5     6   ar
    21    21    22   am
    22    22    23    1
    23    23    24    1
    24    24    25    1
    25    25    26    1
    26     6     1   ar
    27    26    22    1
    28    11     7   ar
    29    15    10    1
@<TRIPOS>MOLECULE
*****
 26 29 0 0 0
SMALL
GASTEIGER

@<TRIPOS>ATOM
      1 C           0.8633    2.0234   22.1959 C.ar    1  UNL1        0.0537
      2 C           2.3349    1.9335   22.4723 C.ar    1  UNL1        0.0061
      3 C           3.1717    0.9153   21.7559 C.ar    1  UNL1        0.0193
      4 C           2.5370   -0.0129   20.7632 C.ar    1  UNL1        0.0824
      5 C           1.0654    0.0770   20.4869 C.ar    1  UNL1        0.0193
      6 C           0.2286    1.0952   21.2032 C.ar    1  UNL1        0.0061
      7 N           3.3738   -1.0310   20.0468 N.ar    1  UNL1       -0.2339
      8 N           3.2357   -2.5206   20.1564 N.ar    1  UNL1       -0.1617
      9 C           4.2722   -3.1484   19.2724 C.ar    1  UNL1        0.1720
     10 C           5.0509   -2.0469   18.6165 C.ar    1  UNL1        0.0443
     11 C           4.4957   -0.7382   19.0951 C.ar    1  UNL1        0.0628
     12 C           5.0833    0.5509   18.6025 C.3     1  UNL1        0.0777
     13 C           6.2262    0.5314   17.6312 C.3     1  UNL1        0.1489
     14 O           6.7814   -0.7773   17.1526 O.3     1  UNL1       -0.3485
     15 C           6.1938   -2.0664   17.6452 C.3     1  UNL1        0.1713
     16 C           4.4915   -4.6196   19.0783 C.3     1  UNL1        0.4363
     17 F           4.7107   -6.0907   18.8843 F       1  UNL1       -0.1644
     18 F           3.0900   -4.7605   18.5628 F       1  UNL1       -0.1644
     19 F           5.8930   -4.4787   19.5939 F       1  UNL1       -0.1644
     20 O          -0.3844    4.3022   22.2110 O.2     1  UNL1       -0.2699
     21 C           0.0265    3.0415   22.9123 C.2     1  UNL1        0.2490
     22 N          -0.3993    2.7989   24.3299 N.am    1  UNL1       -0.2761
     23 C          -1.2325    3.7207   25.1704 C.3     1  UNL1        0.0938
     24 C          -1.4149    3.0834   26.5159 C.3     1  UNL1        0.0233
     25 C          -0.6945    1.7677   26.5072 C.3     1  UNL1        0.0233
     26 C          -0.0669    1.5918   25.1562 C.3     1  UNL1        0.0938
@<TRIPOS>BOND
     1    20    21    2
     2    21     1    1
     3     1     2   ar
     4     2     3   ar
     5     3     4   ar
     6     4     7    1
     7     7     8   ar
     8     8     9   ar
     9     9    16    1
    10    16    17    1
    11    16    18    1
    12    16    19    1
    13     9    10   ar
    14    10    11   ar
    15    11    12    1
    16    12    13    1
    17    13    14    1
    18    14    15    1
    19     4     5   ar
    20     5     6   ar
    21    21    22   am
    22    22    23    1
    23    23    24    1
    24    24    25    1
    25    25    26    1
    26     6     1   ar
    27    26    22    1
    28    11     7   ar
    29    15    10    1
@<TRIPOS>MOLECULE
*****
 26 29 0 0 0
SMALL
GASTEIGER

@<TRIPOS>ATOM
      1 C           8.1390   -3.9630   26.1946 C.ar    1  UNL1        0.0537
      2 C           8.8710   -4.5229   25.0111 C.ar    1  UNL1        0.0061
      3 C           8.2610   -4.4385   23.6433 C.ar    1  UNL1        0.0193
      4 C           6.9191   -3.7943   23.4589 C.ar    1  UNL1        0.0824
      5 C           6.1870   -3.2344   24.6425 C.ar    1  UNL1        0.0193
      6 C           6.7970   -3.3188   26.0103 C.ar    1  UNL1        0.0061
      7 N           6.3091   -3.7100   22.0912 N.ar    1  UNL1       -0.2339
      8 N           4.9742   -4.2609   21.6856 N.ar    1  UNL1       -0.1617
      9 C           4.7670   -3.9513   20.2326 C.ar    1  UNL1        0.1720
     10 C           5.9739   -3.2090   19.7402 C.ar    1  UNL1        0.0443
     11 C           6.9269   -3.0598   20.8889 C.ar    1  UNL1        0.0628
     12 C           8.2342   -2.3513   20.6916 C.3     1  UNL1        0.0777
     13 C           8.5885   -1.7919   19.3457 C.3     1  UNL1        0.1489
     14 O           7.6354   -1.9411   18.1970 O.3     1  UNL1       -0.3485
     15 C           6.3281   -2.6496   18.3943 C.3     1  UNL1        0.1713
     16 C           3.5642   -4.3193   19.4155 C.3     1  UNL1        0.4363
     17 F           2.3614   -4.6874   18.5983 F       1  UNL1       -0.1644
     18 F           4.1945   -5.6389   19.0820 F       1  UNL1       -0.1644
     19 F           2.9338   -2.9998   19.7490 F       1  UNL1       -0.1644
     20 O           9.1661   -2.7957   28.2760 O.2     1  UNL1       -0.2699
     21 C           8.7490   -4.0474   27.5623 C.2     1  UNL1        0.2490
     22 N           8.9419   -5.3834   28.2163 N.am    1  UNL1       -0.2761
     23 C           9.5350   -5.6236   29.5731 C.3     1  UNL1        0.0938
     24 C           9.5352   -7.1024   29.8237 C.3     1  UNL1        0.0233
     25 C           8.9422   -7.7764   28.6219 C.3     1  UNL1        0.0233
     26 C           8.5755   -6.7140   27.6285 C.3     1  UNL1        0.0938
@<TRIPOS>BOND
     1    20    21    2
     2    21     1    1
     3     1     2   ar
     4     2     3   ar
     5     3     4   ar
     6     4     7    1
     7     7     8   ar
     8     8     9   ar
     9     9    16    1
    10    16    17    1
    11    16    18    1
    12    16    19    1
    13     9    10   ar
    14    10    11   ar
    15    11    12    1
    16    12    13    1
    17    13    14    1
    18    14    15    1
    19     4     5   ar
    20     5     6   ar
    21    21    22   am
    22    22    23    1
    23    23    24    1
    24    24    25    1
    25    25    26    1
    26     6     1   ar
    27    26    22    1
    28    11     7   ar
    29    15    10    1
