@<TRIPOS>MOLECULE
*****
 34 37 0 0 0
SMALL
GASTEIGER

@<TRIPOS>ATOM
      1 C           8.2814   -4.1107   27.8922 C.3     1  UNL1        0.0061
      2 C           8.2229   -5.4715   27.2638 C.3     1  UNL1        0.0373
      3 C           8.1904   -6.9658   27.1383 C.3     1  UNL1        0.0075
      4 C           8.1033   -7.6030   25.7832 C.3     1  UNL1        0.0219
      5 C           8.0488   -6.7457   24.5535 C.3     1  UNL1        0.0950
      6 N           8.0813   -5.2514   24.6789 N.am    1  UNL1       -0.2639
      7 C           8.0268   -4.3941   23.4492 C.2     1  UNL1        0.3042
      8 O           8.0593   -2.8997   23.5748 O.2     1  UNL1       -0.2526
      9 N           7.9397   -5.0312   22.0941 N.am    1  UNL1       -0.2847
     10 C           8.1684   -4.6142   26.0341 C.3     1  UNL1        0.0989
     11 H           7.9183   -6.0120   22.0117 H       1  UNL1        0.1513
     12 C           8.2978   -5.8561   28.7118 C.ar    1  UNL1       -0.0212
     13 C           7.2193   -5.4224   29.6597 C.ar    1  UNL1       -0.0042
     14 C           7.2942   -5.8071   31.1076 C.ar    1  UNL1       -0.0003
     15 C           8.4476   -6.6254   31.6075 C.ar    1  UNL1       -0.0000
     16 C           9.5261   -7.0592   30.6596 C.ar    1  UNL1       -0.0003
     17 C           9.4512   -6.6745   29.2117 C.ar    1  UNL1       -0.0042
     18 C           7.8852   -4.1739   20.8645 C.3     1  UNL1        0.1177
     19 C           6.6710   -3.3380   20.5862 C.ar    1  UNL1       -0.0025
     20 C           6.7253   -1.8508   20.7740 C.ar    1  UNL1       -0.0026
     21 C           5.5112   -1.0150   20.4958 C.ar    1  UNL1       -0.0003
     22 C           4.2429   -1.6663   20.0298 C.ar    1  UNL1       -0.0001
     23 C           4.1887   -3.1536   19.8421 C.ar    1  UNL1       -0.0003
     24 C           5.4028   -3.9894   20.1203 C.ar    1  UNL1       -0.0026
     25 C           3.0288   -0.8306   19.7516 C.ar    1  UNL1        0.0039
     26 C           1.8882   -0.8172   20.7258 C.ar    1  UNL1       -0.0001
     27 C           0.6741    0.0185   20.4476 C.ar    1  UNL1       -0.0000
     28 C           0.6005    0.8409   19.1953 C.ar    1  UNL1       -0.0001
     29 C           1.7410    0.8275   18.2211 C.ar    1  UNL1        0.0039
     30 C           2.9551   -0.0082   18.4993 C.ar    1  UNL1        0.0714
     31 C           4.0957   -0.0217   17.5252 C.3     1  UNL1        0.4186
     32 F           5.2363   -0.0351   16.5510 F       1  UNL1       -0.1659
     33 F           3.5237   -1.2451   16.8724 F       1  UNL1       -0.1659
     34 F           4.6676    1.2017   18.1780 F       1  UNL1       -0.1659
@<TRIPOS>BOND
     1     1     2    1
     2     2    12    1
     3    12    13   ar
     4    13    14   ar
     5    14    15   ar
     6    15    16   ar
     7    16    17   ar
     8     2     3    1
     9     3     4    1
    10     4     5    1
    11     5     6    1
    12     6     7   am
    13     7     8    2
    14     7     9   am
    15     9    18    1
    16    18    19    1
    17    19    20   ar
    18    20    21   ar
    19    21    22   ar
    20    22    25    1
    21    25    26   ar
    22    26    27   ar
    23    27    28   ar
    24    28    29   ar
    25    29    30   ar
    26    30    31    1
    27    31    32    1
    28    31    33    1
    29    31    34    1
    30    22    23   ar
    31    23    24   ar
    32     6    10    1
    33    10     2    1
    34    17    12   ar
    35    24    19   ar
    36    30    25   ar
    37     9    11    1
@<TRIPOS>MOLECULE
*****
 34 37 0 0 0
SMALL
GASTEIGER

@<TRIPOS>ATOM
      1 C          -3.8080    5.1658   23.3734 C.3     1  UNL1        0.0061
      2 C          -4.4918    4.7261   22.1128 C.3     1  UNL1        0.0373
      3 C          -5.5898    4.4236   21.1367 C.3     1  UNL1        0.0075
      4 C          -5.2576    3.8787   19.7792 C.3     1  UNL1        0.0219
      5 C          -3.8272    3.6364   19.3979 C.3     1  UNL1        0.0950
      6 N          -2.7292    3.9389   20.3739 N.am    1  UNL1       -0.2639
      7 C          -1.2988    3.6965   19.9926 C.2     1  UNL1        0.3042
      8 O          -0.2008    3.9991   20.9687 O.2     1  UNL1       -0.2526
      9 N          -0.9666    3.1517   18.6351 N.am    1  UNL1       -0.2847
     10 C          -3.0614    4.4837   21.7314 C.3     1  UNL1        0.0989
     11 H          -1.6873    2.9531   17.9944 H       1  UNL1        0.1513
     12 C          -5.6847    5.1212   22.9320 C.ar    1  UNL1       -0.0212
     13 C          -5.6788    6.4158   23.6895 C.ar    1  UNL1       -0.0042
     14 C          -6.8716    6.8108   24.5087 C.ar    1  UNL1       -0.0003
     15 C          -8.0703    5.9112   24.5703 C.ar    1  UNL1       -0.0000
     16 C          -8.0762    4.6166   23.8128 C.ar    1  UNL1       -0.0003
     17 C          -6.8834    4.2216   22.9936 C.ar    1  UNL1       -0.0042
     18 C           0.4637    2.9093   18.2538 C.3     1  UNL1        0.1177
     19 C           1.1624    1.6647   18.7154 C.ar    1  UNL1       -0.0025
     20 C           2.5491    1.3597   18.2314 C.ar    1  UNL1       -0.0026
     21 C           3.2476    0.1152   18.6931 C.ar    1  UNL1       -0.0003
     22 C           2.5597   -0.8243   19.6386 C.ar    1  UNL1       -0.0001
     23 C           1.1730   -0.5191   20.1226 C.ar    1  UNL1       -0.0003
     24 C           0.4745    0.7254   19.6610 C.ar    1  UNL1       -0.0026
     25 C           3.2583   -2.0688   20.1003 C.ar    1  UNL1        0.0039
     26 C           3.2205   -3.3074   19.2550 C.ar    1  UNL1       -0.0001
     27 C           3.9191   -4.5519   19.7167 C.ar    1  UNL1       -0.0000
     28 C           4.6554   -4.5579   21.0234 C.ar    1  UNL1       -0.0001
     29 C           4.6932   -3.3193   21.8687 C.ar    1  UNL1        0.0039
     30 C           3.9947   -2.0748   21.4070 C.ar    1  UNL1        0.0714
     31 C           4.0324   -0.8360   22.2523 C.3     1  UNL1        0.4186
     32 F           4.0703    0.4026   23.0974 F       1  UNL1       -0.1659
     33 F           5.2670   -0.3819   21.5313 F       1  UNL1       -0.1659
     34 F           2.7980   -1.2903   22.9731 F       1  UNL1       -0.1659
@<TRIPOS>BOND
     1     1     2    1
     2     2    12    1
     3    12    13   ar
     4    13    14   ar
     5    14    15   ar
     6    15    16   ar
     7    16    17   ar
     8     2     3    1
     9     3     4    1
    10     4     5    1
    11     5     6    1
    12     6     7   am
    13     7     8    2
    14     7     9   am
    15     9    18    1
    16    18    19    1
    17    19    20   ar
    18    20    21   ar
    19    21    22   ar
    20    22    25    1
    21    25    26   ar
    22    26    27   ar
    23    27    28   ar
    24    28    29   ar
    25    29    30   ar
    26    30    31    1
    27    31    32    1
    28    31    33    1
    29    31    34    1
    30    22    23   ar
    31    23    24   ar
    32     6    10    1
    33    10     2    1
    34    17    12   ar
    35    24    19   ar
    36    30    25   ar
    37     9    11    1
@<TRIPOS>MOLECULE
*****
 34 37 0 0 0
SMALL
GASTEIGER

@<TRIPOS>ATOM
      1 C           2.1863    3.8750   29.5452 C.3     1  UNL1        0.0061
      2 C           1.1567    2.7850   29.5015 C.3     1  UNL1        0.0373
      3 C           0.1854    1.7438   29.9731 C.3     1  UNL1        0.0075
      4 C          -0.5963    0.9409   28.9759 C.3     1  UNL1        0.0219
      5 C          -0.4068    1.1794   27.5072 C.3     1  UNL1        0.0950
      6 N           0.5644    2.2206   27.0355 N.am    1  UNL1       -0.2639
      7 C           0.7539    2.4590   25.5668 C.2     1  UNL1        0.3042
      8 O           1.7252    3.5003   25.0952 O.2     1  UNL1       -0.2526
      9 N          -0.0278    1.6562   24.5696 N.am    1  UNL1       -0.2847
     10 C           1.3462    3.0235   28.0327 C.3     1  UNL1        0.0989
     11 H          -0.6653    0.9728   24.8791 H       1  UNL1        0.1513
     12 C           1.3248    2.9251   30.9855 C.ar    1  UNL1       -0.0212
     13 C           2.0275    1.8536   31.7651 C.ar    1  UNL1       -0.0042
     14 C           2.1956    1.9938   33.2491 C.ar    1  UNL1       -0.0003
     15 C           1.6609    3.2055   33.9533 C.ar    1  UNL1       -0.0000
     16 C           0.9582    4.2770   33.1736 C.ar    1  UNL1       -0.0003
     17 C           0.7901    4.1368   31.6897 C.ar    1  UNL1       -0.0042
     18 C           0.1617    1.8947   23.1009 C.3     1  UNL1        0.1177
     19 C           0.9975    0.9496   22.2894 C.ar    1  UNL1       -0.0025
     20 C           2.3594    0.5480   22.7732 C.ar    1  UNL1       -0.0026
     21 C           3.1950   -0.3970   21.9617 C.ar    1  UNL1       -0.0003
     22 C           2.6688   -0.9406   20.6665 C.ar    1  UNL1       -0.0001
     23 C           1.3069   -0.5390   20.1827 C.ar    1  UNL1       -0.0003
     24 C           0.4713    0.4061   20.9942 C.ar    1  UNL1       -0.0026
     25 C           3.5044   -1.8856   19.8550 C.ar    1  UNL1        0.0039
     26 C           3.5360   -3.3449   20.2008 C.ar    1  UNL1       -0.0001
     27 C           4.3716   -4.2900   19.3893 C.ar    1  UNL1       -0.0000
     28 C           5.1756   -3.7759   18.2320 C.ar    1  UNL1       -0.0001
     29 C           5.1440   -2.3166   17.8862 C.ar    1  UNL1        0.0039
     30 C           4.3084   -1.3716   18.6977 C.ar    1  UNL1        0.0714
     31 C           4.2767    0.0878   18.3519 C.3     1  UNL1        0.4186
     32 F           4.2451    1.5470   18.0061 F       1  UNL1       -0.1659
     33 F           3.1433   -0.1621   17.4016 F       1  UNL1       -0.1659
     34 F           5.4101    0.3375   19.3022 F       1  UNL1       -0.1659
@<TRIPOS>BOND
     1     1     2    1
     2     2    12    1
     3    12    13   ar
     4    13    14   ar
     5    14    15   ar
     6    15    16   ar
     7    16    17   ar
     8     2     3    1
     9     3     4    1
    10     4     5    1
    11     5     6    1
    12     6     7   am
    13     7     8    2
    14     7     9   am
    15     9    18    1
    16    18    19    1
    17    19    20   ar
    18    20    21   ar
    19    21    22   ar
    20    22    25    1
    21    25    26   ar
    22    26    27   ar
    23    27    28   ar
    24    28    29   ar
    25    29    30   ar
    26    30    31    1
    27    31    32    1
    28    31    33    1
    29    31    34    1
    30    22    23   ar
    31    23    24   ar
    32     6    10    1
    33    10     2    1
    34    17    12   ar
    35    24    19   ar
    36    30    25   ar
    37     9    11    1
@<TRIPOS>MOLECULE
*****
 34 37 0 0 0
SMALL
GASTEIGER

@<TRIPOS>ATOM
      1 C          -3.8999    5.0014   23.4286 C.3     1  UNL1        0.0061
      2 C          -4.5220    4.6491   22.1099 C.3     1  UNL1        0.0373
      3 C          -5.5697    4.4344   21.0582 C.3     1  UNL1        0.0075
      4 C          -5.1758    3.9459   19.6958 C.3     1  UNL1        0.0219
      5 C          -3.7341    3.6721   19.3851 C.3     1  UNL1        0.0950
      6 N          -2.6864    3.8868   20.4368 N.am    1  UNL1       -0.2639
      7 C          -1.2446    3.6130   20.1260 C.2     1  UNL1        0.3042
      8 O          -0.1969    3.8277   21.1778 O.2     1  UNL1       -0.2526
      9 N          -0.8507    3.1245   18.7636 N.am    1  UNL1       -0.2847
     10 C          -3.0803    4.3753   21.7992 C.3     1  UNL1        0.0989
     11 H          -1.5384    2.9836   18.0733 H       1  UNL1        0.1513
     12 C          -5.7477    5.0453   22.8786 C.ar    1  UNL1       -0.0212
     13 C          -5.8059    6.3793   23.5618 C.ar    1  UNL1       -0.0042
     14 C          -7.0315    6.7754   24.3305 C.ar    1  UNL1       -0.0003
     15 C          -8.1989    5.8374   24.4160 C.ar    1  UNL1       -0.0000
     16 C          -8.1407    4.5034   23.7328 C.ar    1  UNL1       -0.0003
     17 C          -6.9151    4.1073   22.9642 C.ar    1  UNL1       -0.0042
     18 C           0.5910    2.8508   18.4530 C.3     1  UNL1        0.1177
     19 C           1.3347    1.7941   19.2149 C.ar    1  UNL1       -0.0025
     20 C           0.6360    0.5303   19.6209 C.ar    1  UNL1       -0.0026
     21 C           1.3798   -0.5262   20.3828 C.ar    1  UNL1       -0.0003
     22 C           2.8222   -0.3192   20.7385 C.ar    1  UNL1       -0.0001
     23 C           3.5208    0.9446   20.3324 C.ar    1  UNL1       -0.0003
     24 C           2.7771    2.0012   19.5706 C.ar    1  UNL1       -0.0026
     25 C           3.5660   -1.3758   21.5004 C.ar    1  UNL1        0.0039
     26 C           3.6087   -1.3297   22.9991 C.ar    1  UNL1       -0.0001
     27 C           4.3525   -2.3862   23.7609 C.ar    1  UNL1       -0.0000
     28 C           5.0535   -3.4888   23.0242 C.ar    1  UNL1       -0.0001
     29 C           5.0108   -3.5349   21.5255 C.ar    1  UNL1        0.0039
     30 C           4.2670   -2.4783   20.7637 C.ar    1  UNL1        0.0714
     31 C           4.2242   -2.5243   19.2649 C.3     1  UNL1        0.4186
     32 F           4.1814   -2.5704   17.7663 F       1  UNL1       -0.1659
     33 F           2.9983   -3.3866   19.3264 F       1  UNL1       -0.1659
     34 F           5.4501   -1.6621   19.2035 F       1  UNL1       -0.1659
@<TRIPOS>BOND
     1     1     2    1
     2     2    12    1
     3    12    13   ar
     4    13    14   ar
     5    14    15   ar
     6    15    16   ar
     7    16    17   ar
     8     2     3    1
     9     3     4    1
    10     4     5    1
    11     5     6    1
    12     6     7   am
    13     7     8    2
    14     7     9   am
    15     9    18    1
    16    18    19    1
    17    19    20   ar
    18    20    21   ar
    19    21    22   ar
    20    22    25    1
    21    25    26   ar
    22    26    27   ar
    23    27    28   ar
    24    28    29   ar
    25    29    30   ar
    26    30    31    1
    27    31    32    1
    28    31    33    1
    29    31    34    1
    30    22    23   ar
    31    23    24   ar
    32     6    10    1
    33    10     2    1
    34    17    12   ar
    35    24    19   ar
    36    30    25   ar
    37     9    11    1
@<TRIPOS>MOLECULE
*****
 34 37 0 0 0
SMALL
GASTEIGER

@<TRIPOS>ATOM
      1 C           3.1218    0.2345   17.6593 C.3     1  UNL1        0.0061
      2 C           2.7973   -0.1581   19.0703 C.3     1  UNL1        0.0373
      3 C           2.8867   -0.8552   20.3954 C.3     1  UNL1        0.0075
      4 C           1.8971   -0.5390   21.4774 C.3     1  UNL1        0.0219
      5 C           0.8182    0.4744   21.2343 C.3     1  UNL1        0.0950
      6 N           0.7288    1.1715   19.9092 N.am    1  UNL1       -0.2639
      7 C          -0.3501    2.1848   19.6660 C.2     1  UNL1        0.3042
      8 O          -0.4394    2.8819   18.3409 O.2     1  UNL1       -0.2526
      9 N          -1.3396    2.5010   20.7481 N.am    1  UNL1       -0.2847
     10 C           1.7184    0.8553   18.8271 C.3     1  UNL1        0.0989
     11 H          -1.2810    2.0435   21.6178 H       1  UNL1        0.1513
     12 C           3.9889   -1.0351   18.8234 C.ar    1  UNL1       -0.0212
     13 C           3.8562   -2.5260   18.9220 C.ar    1  UNL1       -0.0042
     14 C           5.0478   -3.4029   18.6751 C.ar    1  UNL1       -0.0003
     15 C           6.3721   -2.7890   18.3296 C.ar    1  UNL1       -0.0000
     16 C           6.5048   -1.2982   18.2309 C.ar    1  UNL1       -0.0003
     17 C           5.3132   -0.4212   18.4778 C.ar    1  UNL1       -0.0042
     18 C          -2.4185    3.5144   20.5049 C.3     1  UNL1        0.1177
     19 C          -3.2613    4.0011   21.6464 C.ar    1  UNL1       -0.0025
     20 C          -3.0696    5.3893   22.1816 C.ar    1  UNL1       -0.0026
     21 C          -3.9124    5.8759   23.3230 C.ar    1  UNL1       -0.0003
     22 C          -4.9468    4.9746   23.9292 C.ar    1  UNL1       -0.0001
     23 C          -5.1385    3.5865   23.3939 C.ar    1  UNL1       -0.0003
     24 C          -4.2957    3.0998   22.2525 C.ar    1  UNL1       -0.0026
     25 C          -5.7896    5.4613   25.0706 C.ar    1  UNL1        0.0039
     26 C          -7.1890    5.9394   24.8190 C.ar    1  UNL1       -0.0001
     27 C          -8.0318    6.4261   25.9604 C.ar    1  UNL1       -0.0000
     28 C          -7.4754    6.4346   27.3533 C.ar    1  UNL1       -0.0001
     29 C          -6.0760    5.9565   27.6049 C.ar    1  UNL1        0.0039
     30 C          -5.2332    5.4699   26.4635 C.ar    1  UNL1        0.0714
     31 C          -3.8338    4.9917   26.7150 C.3     1  UNL1        0.4186
     32 F          -2.4345    4.5135   26.9665 F       1  UNL1       -0.1659
     33 F          -4.3390    3.5860   26.8528 F       1  UNL1       -0.1659
     34 F          -3.3288    6.3974   26.5772 F       1  UNL1       -0.1659
@<TRIPOS>BOND
     1     1     2    1
     2     2    12    1
     3    12    13   ar
     4    13    14   ar
     5    14    15   ar
     6    15    16   ar
     7    16    17   ar
     8     2     3    1
     9     3     4    1
    10     4     5    1
    11     5     6    1
    12     6     7   am
    13     7     8    2
    14     7     9   am
    15     9    18    1
    16    18    19    1
    17    19    20   ar
    18    20    21   ar
    19    21    22   ar
    20    22    25    1
    21    25    26   ar
    22    26    27   ar
    23    27    28   ar
    24    28    29   ar
    25    29    30   ar
    26    30    31    1
    27    31    32    1
    28    31    33    1
    29    31    34    1
    30    22    23   ar
    31    23    24   ar
    32     6    10    1
    33    10     2    1
    34    17    12   ar
    35    24    19   ar
    36    30    25   ar
    37     9    11    1
@<TRIPOS>MOLECULE
*****
 34 37 0 0 0
SMALL
GASTEIGER

@<TRIPOS>ATOM
      1 C           7.1971   -2.5493   32.1496 C.3     1  UNL1        0.0061
      2 C           6.1037   -1.7245   31.5377 C.3     1  UNL1        0.0373
      3 C           4.9826   -0.7352   31.4193 C.3     1  UNL1        0.0075
      4 C           4.3213   -0.5063   30.0925 C.3     1  UNL1        0.0219
      5 C           4.7812   -1.2669   28.8842 C.3     1  UNL1        0.0950
      6 N           5.9024   -2.2563   29.0026 N.am    1  UNL1       -0.2639
      7 C           6.3623   -3.0169   27.7943 C.2     1  UNL1        0.3042
      8 O           7.4835   -4.0063   27.9128 O.2     1  UNL1       -0.2526
      9 N           5.7010   -2.7881   26.4675 N.am    1  UNL1       -0.2847
     10 C           6.5637   -2.4851   30.3294 C.3     1  UNL1        0.0989
     11 H           4.9651   -2.1387   26.3897 H       1  UNL1        0.1513
     12 C           6.0236   -1.2504   32.9586 C.ar    1  UNL1       -0.0212
     13 C           7.2259   -0.6381   33.6139 C.ar    1  UNL1       -0.0042
     14 C           7.1457   -0.1640   35.0347 C.ar    1  UNL1       -0.0003
     15 C           5.8631   -0.3021   35.8002 C.ar    1  UNL1       -0.0000
     16 C           4.6608   -0.9144   35.1449 C.ar    1  UNL1       -0.0003
     17 C           4.7410   -1.3885   33.7241 C.ar    1  UNL1       -0.0042
     18 C           6.1610   -3.5487   25.2593 C.3     1  UNL1        0.1177
     19 C           5.9206   -2.9929   23.8868 C.ar    1  UNL1       -0.0025
     20 C           6.9400   -3.1976   22.8056 C.ar    1  UNL1       -0.0026
     21 C           6.6996   -2.6418   21.4333 C.ar    1  UNL1       -0.0003
     22 C           5.4399   -1.8814   21.1421 C.ar    1  UNL1       -0.0001
     23 C           4.4205   -1.6767   22.2234 C.ar    1  UNL1       -0.0003
     24 C           4.6609   -2.2325   23.5957 C.ar    1  UNL1       -0.0026
     25 C           5.1994   -1.3256   19.7698 C.ar    1  UNL1        0.0039
     26 C           5.7650    0.0116   19.3926 C.ar    1  UNL1       -0.0001
     27 C           5.5245    0.5674   18.0203 C.ar    1  UNL1       -0.0000
     28 C           4.7187   -0.2139   17.0252 C.ar    1  UNL1       -0.0001
     29 C           4.1532   -1.5510   17.4025 C.ar    1  UNL1        0.0039
     30 C           4.3936   -2.1068   18.7748 C.ar    1  UNL1        0.0714
     31 C           3.8281   -3.4440   19.1521 C.3     1  UNL1        0.4186
     32 F           3.2627   -4.7811   19.5293 F       1  UNL1       -0.1659
     33 F           5.0376   -4.1182   18.5753 F       1  UNL1       -0.1659
     34 F           2.6187   -2.7698   19.7288 F       1  UNL1       -0.1659
@<TRIPOS>BOND
     1     1     2    1
     2     2    12    1
     3    12    13   ar
     4    13    14   ar
     5    14    15   ar
     6    15    16   ar
     7    16    17   ar
     8     2     3    1
     9     3     4    1
    10     4     5    1
    11     5     6    1
    12     6     7   am
    13     7     8    2
    14     7     9   am
    15     9    18    1
    16    18    19    1
    17    19    20   ar
    18    20    21   ar
    19    21    22   ar
    20    22    25    1
    21    25    26   ar
    22    26    27   ar
    23    27    28   ar
    24    28    29   ar
    25    29    30   ar
    26    30    31    1
    27    31    32    1
    28    31    33    1
    29    31    34    1
    30    22    23   ar
    31    23    24   ar
    32     6    10    1
    33    10     2    1
    34    17    12   ar
    35    24    19   ar
    36    30    25   ar
    37     9    11    1
@<TRIPOS>MOLECULE
*****
 34 37 0 0 0
SMALL
GASTEIGER

@<TRIPOS>ATOM
      1 C           2.5878   -0.6046   20.4825 C.3     1  UNL1        0.0061
      2 C           3.3690   -1.1712   21.6309 C.3     1  UNL1        0.0373
      3 C           4.3855   -1.9790   22.3819 C.3     1  UNL1        0.0075
      4 C           4.4533   -1.8954   23.8780 C.3     1  UNL1        0.0219
      5 C           3.5046   -1.0038   24.6231 C.3     1  UNL1        0.0950
      6 N           2.4881   -0.1960   23.8720 N.am    1  UNL1       -0.2639
      7 C           1.5394    0.6956   24.6171 C.2     1  UNL1        0.3042
      8 O           0.5229    1.5034   23.8660 O.2     1  UNL1       -0.2526
      9 N           1.6072    0.7793   26.1132 N.am    1  UNL1       -0.2847
     10 C           2.4203   -0.2796   22.3759 C.3     1  UNL1        0.0989
     11 H           2.2743    0.2491   26.6062 H       1  UNL1        0.1513
     12 C           4.0464   -1.8660   20.4869 C.ar    1  UNL1       -0.0212
     13 C           4.9323   -1.0909   19.5572 C.ar    1  UNL1       -0.0042
     14 C           5.6096   -1.7857   18.4134 C.ar    1  UNL1       -0.0003
     15 C           5.4011   -3.2556   18.1992 C.ar    1  UNL1       -0.0000
     16 C           4.5152   -4.0307   19.1289 C.ar    1  UNL1       -0.0003
     17 C           3.8379   -3.3359   20.2728 C.ar    1  UNL1       -0.0042
     18 C           0.6585    1.6708   26.8582 C.3     1  UNL1        0.1177
     19 C           0.9045    1.9863   28.3039 C.ar    1  UNL1       -0.0025
     20 C          -0.0613    1.5133   29.3497 C.ar    1  UNL1       -0.0026
     21 C           0.1848    1.8289   30.7953 C.ar    1  UNL1       -0.0003
     22 C           1.3965    2.6174   31.1953 C.ar    1  UNL1       -0.0001
     23 C           2.3623    3.0904   30.1494 C.ar    1  UNL1       -0.0003
     24 C           2.1162    2.7748   28.7038 C.ar    1  UNL1       -0.0026
     25 C           1.6426    2.9329   32.6409 C.ar    1  UNL1        0.0039
     26 C           2.4489    1.9927   33.4870 C.ar    1  UNL1       -0.0001
     27 C           2.6950    2.3082   34.9326 C.ar    1  UNL1       -0.0000
     28 C           2.1349    3.5639   35.5321 C.ar    1  UNL1       -0.0001
     29 C           1.3285    4.5041   34.6860 C.ar    1  UNL1        0.0039
     30 C           1.0825    4.1886   33.2404 C.ar    1  UNL1        0.0714
     31 C           0.2761    5.1288   32.3942 C.3     1  UNL1        0.4186
     32 F          -0.5301    6.0690   31.5481 F       1  UNL1       -0.1659
     33 F           1.5333    5.8357   31.9820 F       1  UNL1       -0.1659
     34 F          -0.9809    4.4218   32.8065 F       1  UNL1       -0.1659
@<TRIPOS>BOND
     1     1     2    1
     2     2    12    1
     3    12    13   ar
     4    13    14   ar
     5    14    15   ar
     6    15    16   ar
     7    16    17   ar
     8     2     3    1
     9     3     4    1
    10     4     5    1
    11     5     6    1
    12     6     7   am
    13     7     8    2
    14     7     9   am
    15     9    18    1
    16    18    19    1
    17    19    20   ar
    18    20    21   ar
    19    21    22   ar
    20    22    25    1
    21    25    26   ar
    22    26    27   ar
    23    27    28   ar
    24    28    29   ar
    25    29    30   ar
    26    30    31    1
    27    31    32    1
    28    31    33    1
    29    31    34    1
    30    22    23   ar
    31    23    24   ar
    32     6    10    1
    33    10     2    1
    34    17    12   ar
    35    24    19   ar
    36    30    25   ar
    37     9    11    1
@<TRIPOS>MOLECULE
*****
 34 37 0 0 0
SMALL
GASTEIGER

@<TRIPOS>ATOM
      1 C          -5.6404    3.9776   23.7025 C.3     1  UNL1        0.0061
      2 C          -4.4269    4.8149   23.9790 C.3     1  UNL1        0.0373
      3 C          -3.5252    5.8150   24.6396 C.3     1  UNL1        0.0075
      4 C          -2.1472    6.0553   24.0979 C.3     1  UNL1        0.0219
      5 C          -1.6710    5.2954   22.8955 C.3     1  UNL1        0.0950
      6 N          -2.5727    4.2952   22.2348 N.am    1  UNL1       -0.2639
      7 C          -2.0965    3.5353   21.0324 C.2     1  UNL1        0.3042
      8 O          -2.9983    2.5352   20.3718 O.2     1  UNL1       -0.2526
      9 N          -0.7185    3.7756   20.4907 N.am    1  UNL1       -0.2847
     10 C          -3.9507    4.0549   22.7765 C.3     1  UNL1        0.0989
     11 H          -0.1267    4.4321   20.9243 H       1  UNL1        0.1513
     12 C          -5.3246    5.2840   25.0854 C.ar    1  UNL1       -0.0212
     13 C          -4.8278    5.2950   26.5006 C.ar    1  UNL1       -0.0042
     14 C          -5.7255    5.7641   27.6070 C.ar    1  UNL1       -0.0003
     15 C          -7.1200    6.2222   27.2981 C.ar    1  UNL1       -0.0000
     16 C          -7.6169    6.2111   25.8828 C.ar    1  UNL1       -0.0003
     17 C          -6.7192    5.7420   24.7765 C.ar    1  UNL1       -0.0042
     18 C          -0.2424    3.0157   19.2883 C.3     1  UNL1        0.1177
     19 C           0.6191    1.8000   19.4622 C.ar    1  UNL1       -0.0025
     20 C           0.1617    0.6767   20.3448 C.ar    1  UNL1       -0.0026
     21 C           1.0231   -0.5389   20.5187 C.ar    1  UNL1       -0.0003
     22 C           2.3419   -0.6312   19.8100 C.ar    1  UNL1       -0.0001
     23 C           2.7993    0.4922   18.9274 C.ar    1  UNL1       -0.0003
     24 C           1.9378    1.7078   18.7536 C.ar    1  UNL1       -0.0026
     25 C           3.2034   -1.8468   19.9838 C.ar    1  UNL1        0.0039
     26 C           3.1377   -2.9619   18.9826 C.ar    1  UNL1       -0.0001
     27 C           3.9992   -4.1774   19.1565 C.ar    1  UNL1       -0.0000
     28 C           4.9262   -4.2780   20.3314 C.ar    1  UNL1       -0.0001
     29 C           4.9919   -3.1629   21.3326 C.ar    1  UNL1        0.0039
     30 C           4.1304   -1.9474   21.1587 C.ar    1  UNL1        0.0714
     31 C           4.1960   -0.8322   22.1599 C.3     1  UNL1        0.4186
     32 F           4.2616    0.2828   23.1610 F       1  UNL1       -0.1659
     33 F           5.2430   -0.1494   21.3307 F       1  UNL1       -0.1659
     34 F           3.1489   -1.5151   22.9890 F       1  UNL1       -0.1659
@<TRIPOS>BOND
     1     1     2    1
     2     2    12    1
     3    12    13   ar
     4    13    14   ar
     5    14    15   ar
     6    15    16   ar
     7    16    17   ar
     8     2     3    1
     9     3     4    1
    10     4     5    1
    11     5     6    1
    12     6     7   am
    13     7     8    2
    14     7     9   am
    15     9    18    1
    16    18    19    1
    17    19    20   ar
    18    20    21   ar
    19    21    22   ar
    20    22    25    1
    21    25    26   ar
    22    26    27   ar
    23    27    28   ar
    24    28    29   ar
    25    29    30   ar
    26    30    31    1
    27    31    32    1
    28    31    33    1
    29    31    34    1
    30    22    23   ar
    31    23    24   ar
    32     6    10    1
    33    10     2    1
    34    17    12   ar
    35    24    19   ar
    36    30    25   ar
    37     9    11    1
@<TRIPOS>MOLECULE
*****
 34 37 0 0 0
SMALL
GASTEIGER

@<TRIPOS>ATOM
      1 C           3.1668    0.3116   19.4548 C.3     1  UNL1        0.0061
      2 C           3.2946   -0.3026   20.8174 C.3     1  UNL1        0.0373
      3 C           3.6308   -1.2959   21.8898 C.3     1  UNL1        0.0075
      4 C           3.3224   -0.9841   23.3243 C.3     1  UNL1        0.0219
      5 C           2.6779    0.3211   23.6863 C.3     1  UNL1        0.0950
      6 N           2.3417    1.3144   22.6138 N.am    1  UNL1       -0.2639
      7 C           1.6972    2.6197   22.9758 C.2     1  UNL1        0.3042
      8 O           1.3610    3.6130   21.9033 O.2     1  UNL1       -0.2526
      9 N           1.3889    2.9315   24.4103 N.am    1  UNL1       -0.2847
     10 C           2.6500    1.0026   21.1794 C.3     1  UNL1        0.0989
     11 H           1.6095    2.2795   25.1142 H       1  UNL1        0.1513
     12 C           3.8947   -1.3945   19.9821 C.ar    1  UNL1       -0.0212
     13 C           3.2194   -2.7312   19.8974 C.ar    1  UNL1       -0.0042
     14 C           3.8196   -3.8231   19.0622 C.ar    1  UNL1       -0.0003
     15 C           5.0951   -3.5782   18.3117 C.ar    1  UNL1       -0.0000
     16 C           5.7704   -2.2415   18.3964 C.ar    1  UNL1       -0.0003
     17 C           5.1702   -1.1497   19.2316 C.ar    1  UNL1       -0.0042
     18 C           0.7444    4.2367   24.7722 C.3     1  UNL1        0.1177
     19 C          -0.7427    4.3964   24.6564 C.ar    1  UNL1       -0.0025
     20 C          -1.3154    5.5062   23.8256 C.ar    1  UNL1       -0.0026
     21 C          -2.8024    5.6658   23.7099 C.ar    1  UNL1       -0.0003
     22 C          -3.7167    4.7157   24.4249 C.ar    1  UNL1       -0.0001
     23 C          -3.1439    3.6058   25.2557 C.ar    1  UNL1       -0.0003
     24 C          -1.6569    3.4462   25.3714 C.ar    1  UNL1       -0.0026
     25 C          -5.2036    4.8753   24.3091 C.ar    1  UNL1        0.0039
     26 C          -5.9577    5.6513   25.3481 C.ar    1  UNL1       -0.0001
     27 C          -7.4446    5.8109   25.2323 C.ar    1  UNL1       -0.0000
     28 C          -8.1776    5.1946   24.0779 C.ar    1  UNL1       -0.0001
     29 C          -7.4236    4.4185   23.0390 C.ar    1  UNL1        0.0039
     30 C          -5.9366    4.2589   23.1547 C.ar    1  UNL1        0.0714
     31 C          -5.1824    3.4829   22.1158 C.3     1  UNL1        0.4186
     32 F          -4.4284    2.7069   21.0771 F       1  UNL1       -0.1659
     33 F          -5.1326    2.2994   23.0361 F       1  UNL1       -0.1659
     34 F          -5.2323    4.6664   21.1956 F       1  UNL1       -0.1659
@<TRIPOS>BOND
     1     1     2    1
     2     2    12    1
     3    12    13   ar
     4    13    14   ar
     5    14    15   ar
     6    15    16   ar
     7    16    17   ar
     8     2     3    1
     9     3     4    1
    10     4     5    1
    11     5     6    1
    12     6     7   am
    13     7     8    2
    14     7     9   am
    15     9    18    1
    16    18    19    1
    17    19    20   ar
    18    20    21   ar
    19    21    22   ar
    20    22    25    1
    21    25    26   ar
    22    26    27   ar
    23    27    28   ar
    24    28    29   ar
    25    29    30   ar
    26    30    31    1
    27    31    32    1
    28    31    33    1
    29    31    34    1
    30    22    23   ar
    31    23    24   ar
    32     6    10    1
    33    10     2    1
    34    17    12   ar
    35    24    19   ar
    36    30    25   ar
    37     9    11    1
