@<TRIPOS>MOLECULE
*****
 27 28 0 0 0
SMALL
GASTEIGER

@<TRIPOS>ATOM
      1 C          -6.8735  -16.6894   23.7762 C.2     1  UNL1        0.0707
      2 C          -5.4371  -16.4812   24.1545 C.2     1  UNL1        0.0283
      3 C          -5.0771  -15.4758   25.2080 C.3     1  UNL1        0.0470
      4 N          -4.3605  -17.2784   23.4796 N.pl3   1  UNL1       -0.3192
      5 C          -4.7205  -18.2838   22.4262 C.2     1  UNL1        0.0283
      6 C          -3.6439  -19.0810   21.7512 C.3     1  UNL1        0.0470
      7 C          -6.1569  -18.4920   22.0478 C.2     1  UNL1        0.0707
      8 C          -7.2334  -17.6948   22.7228 C.3     1  UNL1        0.0814
      9 H          -3.4177  -17.1417   23.7279 H       1  UNL1        0.1516
     10 C          -8.6699  -17.9030   22.3443 C.ar    1  UNL1       -0.0077
     11 C          -9.4199  -19.0902   22.8717 C.ar    1  UNL1       -0.0032
     12 C         -10.8563  -19.2985   22.4933 C.ar    1  UNL1        0.0060
     13 C         -11.5429  -18.3195   21.5875 C.ar    1  UNL1        0.0752
     14 C         -10.7929  -17.1323   21.0602 C.ar    1  UNL1        0.2898
     15 C          -9.3564  -16.9241   21.4386 C.ar    1  UNL1        0.0716
     16 N         -11.4794  -16.1534   20.1544 N.pl3   1  UNL1        0.0809
     17 O         -12.9771  -16.1256   20.0776 O.2     1  UNL1        0.0415
     18 O         -10.6681  -15.2023   19.3256 O.co2   1  UNL1       -0.5760
     19 C          -7.9500  -15.8922   24.4511 C.2     1  UNL1        0.3387
     20 O          -8.1458  -14.4473   24.0992 O.2     1  UNL1       -0.2452
     21 O          -8.8308  -16.5399   25.4781 O.3     1  UNL1       -0.4456
     22 C          -8.0310  -15.2263   27.5721 C.3     1  UNL1        0.0513
     23 C          -8.4372  -16.5174   26.9253 C.3     1  UNL1        0.2089
     24 C          -6.5169  -19.4974   20.9944 C.2     1  UNL1        0.3388
     25 O          -6.3223  -20.9613   21.2571 O.2     1  UNL1       -0.2452
     26 O          -7.0714  -19.0388   19.6783 O.3     1  UNL1       -0.4415
     27 C          -8.3362  -19.6441   19.1455 C.3     1  UNL1        0.2559
@<TRIPOS>UNITY_ATOM_ATTR
16 1
charge 1
18 1
charge -1
@<TRIPOS>BOND
     1    22    23    1
     2    23    21    1
     3    21    19    1
     4    19    20    2
     5    19     1    1
     6     1     2    2
     7     2     3    1
     8     2     4    1
     9     4     5    1
    10     5     6    1
    11     5     7    2
    12     7    24    1
    13    24    25    2
    14    24    26    1
    15    26    27    1
    16     7     8    1
    17     8    10    1
    18    10    11   ar
    19    11    12   ar
    20    12    13   ar
    21    13    14   ar
    22    14    16    1
    23    16    17    2
    24    16    18    1
    25    14    15   ar
    26     8     1    1
    27    15    10   ar
    28     4     9    1
@<TRIPOS>MOLECULE
*****
 27 28 0 0 0
SMALL
GASTEIGER

@<TRIPOS>ATOM
      1 C          -6.2671  -18.3093   22.2804 C.2     1  UNL1        0.0707
      2 C          -4.8183  -18.1390   22.6294 C.2     1  UNL1        0.0283
      3 C          -3.7800  -18.9872   21.9566 C.3     1  UNL1        0.0470
      4 N          -4.4076  -17.1206   23.6513 N.pl3   1  UNL1       -0.3192
      5 C          -5.4458  -16.2725   24.3242 C.2     1  UNL1        0.0283
      6 C          -5.0352  -15.2541   25.3460 C.3     1  UNL1        0.0470
      7 C          -6.8946  -16.4428   23.9752 C.2     1  UNL1        0.0707
      8 C          -7.3053  -17.4612   22.9533 C.3     1  UNL1        0.0814
      9 H          -3.4567  -17.0089   23.8804 H       1  UNL1        0.1516
     10 C          -8.7542  -17.6314   22.6043 C.ar    1  UNL1       -0.0077
     11 C          -9.5702  -18.6902   23.2849 C.ar    1  UNL1       -0.0032
     12 C         -11.0190  -18.8605   22.9360 C.ar    1  UNL1        0.0060
     13 C         -11.6520  -17.9719   21.9064 C.ar    1  UNL1        0.0752
     14 C         -10.8360  -16.9132   21.2258 C.ar    1  UNL1        0.2898
     15 C          -9.3871  -16.7429   21.5748 C.ar    1  UNL1        0.0716
     16 N         -11.4689  -16.0247   20.1962 N.pl3   1  UNL1        0.0809
     17 O         -10.6156  -15.1100   19.3683 O.2     1  UNL1        0.0415
     18 O         -12.9550  -16.0508   19.9946 O.co2   1  UNL1       -0.5760
     19 C          -6.6777  -19.3277   21.2586 C.2     1  UNL1        0.3387
     20 O          -6.5741  -20.7905   21.5738 O.2     1  UNL1       -0.2452
     21 O          -7.1921  -18.8833   19.9214 O.3     1  UNL1       -0.4456
     22 C          -9.5908  -19.7010   19.3492 C.3     1  UNL1        0.0513
     23 C          -8.1078  -19.7747   19.1361 C.3     1  UNL1        0.2089
     24 C          -7.9329  -15.5946   24.6480 C.2     1  UNL1        0.3388
     25 O          -8.1885  -14.1978   24.1649 O.2     1  UNL1       -0.2452
     26 O          -8.7155  -16.1434   25.8040 O.3     1  UNL1       -0.4415
     27 C          -8.0886  -16.2219   27.1644 C.3     1  UNL1        0.2559
@<TRIPOS>UNITY_ATOM_ATTR
16 1
charge 1
18 1
charge -1
@<TRIPOS>BOND
     1    22    23    1
     2    23    21    1
     3    21    19    1
     4    19    20    2
     5    19     1    1
     6     1     2    2
     7     2     3    1
     8     2     4    1
     9     4     5    1
    10     5     6    1
    11     5     7    2
    12     7    24    1
    13    24    25    2
    14    24    26    1
    15    26    27    1
    16     7     8    1
    17     8    10    1
    18    10    11   ar
    19    11    12   ar
    20    12    13   ar
    21    13    14   ar
    22    14    16    1
    23    16    17    2
    24    16    18    1
    25    14    15   ar
    26     8     1    1
    27    15    10   ar
    28     4     9    1
@<TRIPOS>MOLECULE
*****
 27 28 0 0 0
SMALL
GASTEIGER

@<TRIPOS>ATOM
      1 C          -7.2314  -18.3638   21.7766 C.2     1  UNL1        0.0707
      2 C          -5.7601  -18.6246   21.9075 C.2     1  UNL1        0.0283
      3 C          -5.1047  -19.6694   21.0536 C.3     1  UNL1        0.0470
      4 N          -4.9441  -17.8408   22.8922 N.pl3   1  UNL1       -0.3192
      5 C          -5.5994  -16.7960   23.7460 C.2     1  UNL1        0.0283
      6 C          -4.7834  -16.0122   24.7307 C.3     1  UNL1        0.0470
      7 C          -7.0707  -16.5352   23.6152 C.2     1  UNL1        0.0707
      8 C          -7.8867  -17.3191   22.6305 C.3     1  UNL1        0.0814
      9 H          -3.9784  -18.0120   22.9781 H       1  UNL1        0.1516
     10 C          -9.3581  -17.0582   22.4996 C.ar    1  UNL1       -0.0077
     11 C          -9.8582  -16.0781   21.4802 C.ar    1  UNL1       -0.0032
     12 C         -11.3295  -15.8172   21.3493 C.ar    1  UNL1        0.0060
     13 C         -12.3008  -16.5364   22.2379 C.ar    1  UNL1        0.0752
     14 C         -11.8006  -17.5165   23.2574 C.ar    1  UNL1        0.2898
     15 C         -10.3292  -17.7774   23.3882 C.ar    1  UNL1        0.0716
     16 N         -12.7717  -18.2356   24.1460 N.pl3   1  UNL1        0.0809
     17 O         -12.2675  -19.1418   25.2297 O.2     1  UNL1        0.0415
     18 O         -14.2471  -18.0486   23.9508 O.co2   1  UNL1       -0.5760
     19 C          -8.0474  -19.1477   20.7919 C.2     1  UNL1        0.3387
     20 O          -7.7001  -19.1119   19.3331 O.2     1  UNL1       -0.2452
     21 O          -9.2108  -19.9673   21.2659 O.3     1  UNL1       -0.4456
     22 C         -10.7948  -18.8482   19.5371 C.3     1  UNL1        0.0513
     23 C         -10.4940  -19.9677   20.4892 C.3     1  UNL1        0.2089
     24 C          -7.7260  -15.4904   24.4690 C.2     1  UNL1        0.3388
     25 O          -7.6189  -14.0415   24.0960 O.2     1  UNL1       -0.2452
     26 O          -8.4885  -15.8947   25.6959 O.3     1  UNL1       -0.4415
     27 C          -7.8133  -15.8864   27.0353 C.3     1  UNL1        0.2559
@<TRIPOS>UNITY_ATOM_ATTR
16 1
charge 1
18 1
charge -1
@<TRIPOS>BOND
     1    22    23    1
     2    23    21    1
     3    21    19    1
     4    19    20    2
     5    19     1    1
     6     1     2    2
     7     2     3    1
     8     2     4    1
     9     4     5    1
    10     5     6    1
    11     5     7    2
    12     7    24    1
    13    24    25    2
    14    24    26    1
    15    26    27    1
    16     7     8    1
    17     8    10    1
    18    10    11   ar
    19    11    12   ar
    20    12    13   ar
    21    13    14   ar
    22    14    16    1
    23    16    17    2
    24    16    18    1
    25    14    15   ar
    26     8     1    1
    27    15    10   ar
    28     4     9    1
@<TRIPOS>MOLECULE
*****
 27 28 0 0 0
SMALL
GASTEIGER

@<TRIPOS>ATOM
      1 C          -7.1924  -16.3380   23.6077 C.2     1  UNL1        0.0707
      2 C          -5.7197  -16.5620   23.7834 C.2     1  UNL1        0.0283
      3 C          -4.9224  -15.6492   24.6674 C.3     1  UNL1        0.0470
      4 N          -5.0441  -17.6986   23.0751 N.pl3   1  UNL1       -0.3192
      5 C          -5.8413  -18.6113   22.1911 C.2     1  UNL1        0.0283
      6 C          -5.1657  -19.7479   21.4828 C.3     1  UNL1        0.0470
      7 C          -7.3140  -18.3874   22.0154 C.2     1  UNL1        0.0707
      8 C          -7.9895  -17.2507   22.7237 C.3     1  UNL1        0.0814
      9 H          -4.0775  -17.8456   23.1904 H       1  UNL1        0.1516
     10 C          -9.4623  -17.0268   22.5480 C.ar    1  UNL1       -0.0077
     11 C          -9.9566  -16.0804   21.4945 C.ar    1  UNL1       -0.0032
     12 C         -11.4293  -15.8565   21.3187 C.ar    1  UNL1        0.0060
     13 C         -12.4079  -16.5790   22.1966 C.ar    1  UNL1        0.0752
     14 C         -11.9136  -17.5254   23.2501 C.ar    1  UNL1        0.2898
     15 C         -10.4408  -17.7493   23.4258 C.ar    1  UNL1        0.0716
     16 N         -12.8920  -18.2479   24.1279 N.pl3   1  UNL1        0.0809
     17 O         -14.3532  -18.2383   23.7888 O.2     1  UNL1        0.0415
     18 O         -12.4093  -18.9801   25.3449 O.co2   1  UNL1       -0.5760
     19 C          -7.8679  -15.2014   24.3160 C.2     1  UNL1        0.3387
     20 O          -7.6832  -13.7960   23.8253 O.2     1  UNL1       -0.2452
     21 O          -8.7283  -15.4701   25.5150 O.3     1  UNL1       -0.4456
     22 C          -7.1621  -16.0696   27.4994 C.3     1  UNL1        0.0513
     23 C          -8.2726  -16.4424   26.5623 C.3     1  UNL1        0.2089
     24 C          -8.1112  -19.3001   21.1314 C.2     1  UNL1        0.3388
     25 O          -8.9539  -20.3832   21.7370 O.2     1  UNL1       -0.2452
     26 O          -8.0658  -19.1297   19.6418 O.3     1  UNL1       -0.4415
     27 C          -8.9044  -20.0071   18.7606 C.3     1  UNL1        0.2559
@<TRIPOS>UNITY_ATOM_ATTR
16 1
charge 1
18 1
charge -1
@<TRIPOS>BOND
     1    22    23    1
     2    23    21    1
     3    21    19    1
     4    19    20    2
     5    19     1    1
     6     1     2    2
     7     2     3    1
     8     2     4    1
     9     4     5    1
    10     5     6    1
    11     5     7    2
    12     7    24    1
    13    24    25    2
    14    24    26    1
    15    26    27    1
    16     7     8    1
    17     8    10    1
    18    10    11   ar
    19    11    12   ar
    20    12    13   ar
    21    13    14   ar
    22    14    16    1
    23    16    17    2
    24    16    18    1
    25    14    15   ar
    26     8     1    1
    27    15    10   ar
    28     4     9    1
@<TRIPOS>MOLECULE
*****
 27 28 0 0 0
SMALL
GASTEIGER

@<TRIPOS>ATOM
      1 C          -8.1171  -17.7696   22.5245 C.2     1  UNL1        0.0707
      2 C          -8.8475  -16.7740   23.3762 C.2     1  UNL1        0.0283
      3 C         -10.3454  -16.7057   23.3326 C.3     1  UNL1        0.0470
      4 N          -8.0802  -15.8468   24.2713 N.pl3   1  UNL1       -0.3192
      5 C          -6.5824  -15.9150   24.3149 C.2     1  UNL1        0.0283
      6 C          -5.8151  -14.9877   25.2101 C.3     1  UNL1        0.0470
      7 C          -5.8520  -16.9106   23.4633 C.2     1  UNL1        0.0707
      8 C          -6.6193  -17.8378   22.5681 C.3     1  UNL1        0.0814
      9 H          -8.5596  -15.1933   24.8303 H       1  UNL1        0.1516
     10 C          -5.8888  -18.8334   21.7165 C.ar    1  UNL1       -0.0077
     11 C          -6.5204  -20.1569   21.4008 C.ar    1  UNL1       -0.0032
     12 C          -5.7899  -21.1524   20.5492 C.ar    1  UNL1        0.0060
     13 C          -4.4278  -20.8246   20.0132 C.ar    1  UNL1        0.0752
     14 C          -3.7962  -19.5011   20.3288 C.ar    1  UNL1        0.2898
     15 C          -4.5268  -18.5055   21.1805 C.ar    1  UNL1        0.0716
     16 N          -2.4342  -19.1732   19.7929 N.pl3   1  UNL1        0.0809
     17 O          -2.2855  -18.6366   18.4000 O.2     1  UNL1        0.0415
     18 O          -1.2209  -19.3820   20.6497 O.co2   1  UNL1       -0.5760
     19 C          -8.8844  -18.6969   21.6294 C.2     1  UNL1        0.3387
     20 O          -8.9521  -18.4306   20.1548 O.2     1  UNL1       -0.2452
     21 O          -9.5841  -19.8904   22.2088 O.3     1  UNL1       -0.4456
     22 C         -10.2147  -20.0894   24.7213 C.3     1  UNL1        0.0513
     23 C          -9.2557  -20.3511   23.5980 C.3     1  UNL1        0.2089
     24 C          -4.3541  -16.9789   23.5068 C.2     1  UNL1        0.3388
     25 O          -3.6752  -18.0596   24.2948 O.2     1  UNL1       -0.2452
     26 O          -3.5352  -15.9664   22.7623 O.3     1  UNL1       -0.4415
     27 C          -2.2472  -16.3755   22.1115 C.3     1  UNL1        0.2559
@<TRIPOS>UNITY_ATOM_ATTR
16 1
charge 1
18 1
charge -1
@<TRIPOS>BOND
     1    22    23    1
     2    23    21    1
     3    21    19    1
     4    19    20    2
     5    19     1    1
     6     1     2    2
     7     2     3    1
     8     2     4    1
     9     4     5    1
    10     5     6    1
    11     5     7    2
    12     7    24    1
    13    24    25    2
    14    24    26    1
    15    26    27    1
    16     7     8    1
    17     8    10    1
    18    10    11   ar
    19    11    12   ar
    20    12    13   ar
    21    13    14   ar
    22    14    16    1
    23    16    17    2
    24    16    18    1
    25    14    15   ar
    26     8     1    1
    27    15    10   ar
    28     4     9    1
@<TRIPOS>MOLECULE
*****
 27 28 0 0 0
SMALL
GASTEIGER

@<TRIPOS>ATOM
      1 C          -8.5135  -18.6174   21.5747 C.2     1  UNL1        0.0707
      2 C          -8.8255  -18.8816   20.1315 C.2     1  UNL1        0.0283
      3 C          -7.8922  -19.7133   19.3024 C.3     1  UNL1        0.0470
      4 N         -10.0707  -18.3140   19.5172 N.pl3   1  UNL1       -0.3192
      5 C         -11.0039  -17.4823   20.3462 C.2     1  UNL1        0.0283
      6 C         -12.2492  -16.9147   19.7320 C.3     1  UNL1        0.0470
      7 C         -10.6920  -17.2181   21.7894 C.2     1  UNL1        0.0707
      8 C          -9.4468  -17.7857   22.4036 C.3     1  UNL1        0.0814
      9 H         -10.2754  -18.4873   18.5700 H       1  UNL1        0.1516
     10 C          -9.1348  -17.5216   23.8469 C.ar    1  UNL1       -0.0077
     11 C          -9.8633  -18.2731   24.9214 C.ar    1  UNL1       -0.0032
     12 C          -9.5514  -18.0090   26.3646 C.ar    1  UNL1        0.0060
     13 C          -8.5110  -16.9933   26.7334 C.ar    1  UNL1        0.0752
     14 C          -7.7825  -16.2418   25.6590 C.ar    1  UNL1        0.2898
     15 C          -8.0944  -16.5059   24.2157 C.ar    1  UNL1        0.0716
     16 N          -6.7421  -15.2262   26.0277 N.pl3   1  UNL1        0.0809
     17 O          -5.9073  -14.5855   24.9587 O.2     1  UNL1        0.0415
     18 O          -6.5365  -14.8512   27.4654 O.co2   1  UNL1       -0.5760
     19 C          -7.2683  -19.1850   22.1889 C.2     1  UNL1        0.3387
     20 O          -7.2689  -20.5846   22.7283 O.2     1  UNL1       -0.2452
     21 O          -6.0225  -18.3530   22.2637 O.3     1  UNL1       -0.4456
     22 C          -3.4962  -18.2286   22.8574 C.3     1  UNL1        0.0513
     23 C          -4.6835  -19.0172   22.3898 C.3     1  UNL1        0.2089
     24 C         -11.6253  -16.3864   22.6185 C.2     1  UNL1        0.3388
     25 O         -11.1624  -15.0752   23.1811 O.2     1  UNL1       -0.2452
     26 O         -13.0214  -16.8659   22.8849 O.3     1  UNL1       -0.4415
     27 C         -13.2470  -18.0905   23.7211 C.3     1  UNL1        0.2559
@<TRIPOS>UNITY_ATOM_ATTR
16 1
charge 1
18 1
charge -1
@<TRIPOS>BOND
     1    22    23    1
     2    23    21    1
     3    21    19    1
     4    19    20    2
     5    19     1    1
     6     1     2    2
     7     2     3    1
     8     2     4    1
     9     4     5    1
    10     5     6    1
    11     5     7    2
    12     7    24    1
    13    24    25    2
    14    24    26    1
    15    26    27    1
    16     7     8    1
    17     8    10    1
    18    10    11   ar
    19    11    12   ar
    20    12    13   ar
    21    13    14   ar
    22    14    16    1
    23    16    17    2
    24    16    18    1
    25    14    15   ar
    26     8     1    1
    27    15    10   ar
    28     4     9    1
@<TRIPOS>MOLECULE
*****
 27 28 0 0 0
SMALL
GASTEIGER

@<TRIPOS>ATOM
      1 C          -6.3577  -18.9249   21.4938 C.2     1  UNL1        0.0707
      2 C          -6.3230  -19.9782   20.4264 C.2     1  UNL1        0.0283
      3 C          -5.0587  -20.7430   20.1682 C.3     1  UNL1        0.0470
      4 N          -7.5526  -20.2668   19.6172 N.pl3   1  UNL1       -0.3192
      5 C          -8.8169  -19.5020   19.8754 C.2     1  UNL1        0.0283
      6 C         -10.0465  -19.7906   19.0662 C.3     1  UNL1        0.0470
      7 C          -8.8516  -18.4488   20.9428 C.2     1  UNL1        0.0707
      8 C          -7.6220  -18.1602   21.7520 C.3     1  UNL1        0.0814
      9 H          -7.5298  -20.9581   18.9167 H       1  UNL1        0.1516
     10 C          -7.6567  -17.1069   22.8194 C.ar    1  UNL1       -0.0077
     11 C          -7.2263  -15.7050   22.5040 C.ar    1  UNL1       -0.0032
     12 C          -7.2610  -14.6517   23.5713 C.ar    1  UNL1        0.0060
     13 C          -7.7262  -15.0002   24.9542 C.ar    1  UNL1        0.0752
     14 C          -8.1567  -16.4020   25.2696 C.ar    1  UNL1        0.2898
     15 C          -8.1219  -17.4554   24.2022 C.ar    1  UNL1        0.0716
     16 N          -8.6218  -16.7506   26.6523 N.pl3   1  UNL1        0.0809
     17 O          -9.3151  -18.0568   26.9035 O.2     1  UNL1        0.0415
     18 O          -8.3938  -15.7928   27.7840 O.co2   1  UNL1       -0.5760
     19 C          -5.1281  -18.6364   22.3030 C.2     1  UNL1        0.3387
     20 O          -4.5944  -19.6694   23.2506 O.2     1  UNL1       -0.2452
     21 O          -4.4322  -17.3149   22.1646 O.3     1  UNL1       -0.4456
     22 C          -2.1384  -16.1449   21.8181 C.3     1  UNL1        0.0513
     23 C          -2.9714  -17.1993   22.4850 C.3     1  UNL1        0.2089
     24 C         -10.1159  -17.6840   21.2010 C.2     1  UNL1        0.3388
     25 O         -10.3301  -16.3482   20.5531 O.2     1  UNL1       -0.2452
     26 O         -11.1661  -18.2550   22.1071 O.3     1  UNL1       -0.4415
     27 C         -12.5649  -17.7150   22.0678 C.3     1  UNL1        0.2559
@<TRIPOS>UNITY_ATOM_ATTR
16 1
charge 1
18 1
charge -1
@<TRIPOS>BOND
     1    22    23    1
     2    23    21    1
     3    21    19    1
     4    19    20    2
     5    19     1    1
     6     1     2    2
     7     2     3    1
     8     2     4    1
     9     4     5    1
    10     5     6    1
    11     5     7    2
    12     7    24    1
    13    24    25    2
    14    24    26    1
    15    26    27    1
    16     7     8    1
    17     8    10    1
    18    10    11   ar
    19    11    12   ar
    20    12    13   ar
    21    13    14   ar
    22    14    16    1
    23    16    17    2
    24    16    18    1
    25    14    15   ar
    26     8     1    1
    27    15    10   ar
    28     4     9    1
@<TRIPOS>MOLECULE
*****
 27 28 0 0 0
SMALL
GASTEIGER

@<TRIPOS>ATOM
      1 C          -8.4598  -18.1980   21.4268 C.2     1  UNL1        0.0707
      2 C          -8.6871  -19.1842   20.3197 C.2     1  UNL1        0.0283
      3 C         -10.0533  -19.3359   19.7191 C.3     1  UNL1        0.0470
      4 N          -7.5483  -20.0188   19.8132 N.pl3   1  UNL1       -0.3192
      5 C          -6.1822  -19.8672   20.4138 C.2     1  UNL1        0.0283
      6 C          -5.0434  -20.7018   19.9072 C.3     1  UNL1        0.0470
      7 C          -5.9549  -18.8809   21.5208 C.2     1  UNL1        0.0707
      8 C          -7.0937  -18.0463   22.0273 C.3     1  UNL1        0.0814
      9 H          -7.6975  -20.6661   19.0866 H       1  UNL1        0.1516
     10 C          -6.8663  -17.0600   23.1344 C.ar    1  UNL1       -0.0077
     11 C          -5.7787  -16.0341   23.0132 C.ar    1  UNL1       -0.0032
     12 C          -5.5513  -15.0478   24.1203 C.ar    1  UNL1        0.0060
     13 C          -6.4116  -15.0874   25.3485 C.ar    1  UNL1        0.0752
     14 C          -7.4992  -16.1133   25.4697 C.ar    1  UNL1        0.2898
     15 C          -7.7265  -17.0996   24.3626 C.ar    1  UNL1        0.0716
     16 N          -8.3594  -16.1530   26.6978 N.pl3   1  UNL1        0.0809
     17 O          -9.0501  -17.4257   27.0890 O.2     1  UNL1        0.0415
     18 O          -8.5288  -14.9198   27.5348 O.co2   1  UNL1       -0.5760
     19 C          -9.5986  -17.3633   21.9333 C.2     1  UNL1        0.3387
     20 O          -9.7650  -15.9517   21.4543 O.2     1  UNL1       -0.2452
     21 O         -10.5711  -17.9404   22.9188 O.3     1  UNL1       -0.4456
     22 C         -12.7696  -17.6429   21.5666 C.3     1  UNL1        0.0513
     23 C         -12.0181  -17.5493   22.8614 C.3     1  UNL1        0.2089
     24 C          -4.5887  -18.7292   22.1214 C.2     1  UNL1        0.3388
     25 O          -4.2453  -19.4448   23.3942 O.2     1  UNL1       -0.2452
     26 O          -3.5660  -17.8620   21.4491 O.3     1  UNL1       -0.4415
     27 C          -2.4617  -17.2432   22.2538 C.3     1  UNL1        0.2559
@<TRIPOS>UNITY_ATOM_ATTR
16 1
charge 1
18 1
charge -1
@<TRIPOS>BOND
     1    22    23    1
     2    23    21    1
     3    21    19    1
     4    19    20    2
     5    19     1    1
     6     1     2    2
     7     2     3    1
     8     2     4    1
     9     4     5    1
    10     5     6    1
    11     5     7    2
    12     7    24    1
    13    24    25    2
    14    24    26    1
    15    26    27    1
    16     7     8    1
    17     8    10    1
    18    10    11   ar
    19    11    12   ar
    20    12    13   ar
    21    13    14   ar
    22    14    16    1
    23    16    17    2
    24    16    18    1
    25    14    15   ar
    26     8     1    1
    27    15    10   ar
    28     4     9    1
@<TRIPOS>MOLECULE
*****
 27 28 0 0 0
SMALL
GASTEIGER

@<TRIPOS>ATOM
      1 C          -5.9966  -16.9279   23.5336 C.2     1  UNL1        0.0707
      2 C          -6.7183  -15.9075   24.3630 C.2     1  UNL1        0.0283
      3 C          -5.9476  -15.0088   25.2842 C.3     1  UNL1        0.0470
      4 N          -8.2105  -15.7858   24.2713 N.pl3   1  UNL1       -0.3192
      5 C          -8.9811  -16.6844   23.3502 C.2     1  UNL1        0.0283
      6 C         -10.4733  -16.5627   23.2584 C.3     1  UNL1        0.0470
      7 C          -8.2595  -17.7048   22.5208 C.2     1  UNL1        0.0707
      8 C          -6.7672  -17.8266   22.6125 C.3     1  UNL1        0.0814
      9 H          -8.6841  -15.1160   24.8157 H       1  UNL1        0.1516
     10 C          -6.0456  -18.8471   21.7830 C.ar    1  UNL1       -0.0077
     11 C          -6.6965  -20.1643   21.4810 C.ar    1  UNL1       -0.0032
     12 C          -5.9750  -21.1848   20.6516 C.ar    1  UNL1        0.0060
     13 C          -4.6024  -20.8880   20.1241 C.ar    1  UNL1        0.0752
     14 C          -3.9515  -19.5708   20.4262 C.ar    1  UNL1        0.2898
     15 C          -4.6731  -18.5503   21.2556 C.ar    1  UNL1        0.0716
     16 N          -2.5790  -19.2741   19.8988 N.pl3   1  UNL1        0.0809
     17 O          -1.3691  -19.6614   20.6964 O.2     1  UNL1        0.0415
     18 O          -2.4164  -18.5900   18.5738 O.co2   1  UNL1       -0.5760
     19 C          -4.5044  -17.0497   23.6253 C.2     1  UNL1        0.3387
     20 O          -3.8895  -18.0495   24.5591 O.2     1  UNL1       -0.2452
     21 O          -3.6271  -16.1715   22.7832 O.3     1  UNL1       -0.4456
     22 C          -1.6229  -16.1759   21.1299 C.3     1  UNL1        0.0513
     23 C          -2.2423  -16.6205   22.4217 C.3     1  UNL1        0.2089
     24 C          -9.0301  -18.6036   21.5996 C.2     1  UNL1        0.3388
     25 O          -9.0223  -18.3473   20.1217 O.2     1  UNL1       -0.2452
     26 O          -9.8084  -19.7587   22.1564 O.3     1  UNL1       -0.4415
     27 C          -9.5616  -20.2215   23.5616 C.3     1  UNL1        0.2559
@<TRIPOS>UNITY_ATOM_ATTR
16 1
charge 1
18 1
charge -1
@<TRIPOS>BOND
     1    22    23    1
     2    23    21    1
     3    21    19    1
     4    19    20    2
     5    19     1    1
     6     1     2    2
     7     2     3    1
     8     2     4    1
     9     4     5    1
    10     5     6    1
    11     5     7    2
    12     7    24    1
    13    24    25    2
    14    24    26    1
    15    26    27    1
    16     7     8    1
    17     8    10    1
    18    10    11   ar
    19    11    12   ar
    20    12    13   ar
    21    13    14   ar
    22    14    16    1
    23    16    17    2
    24    16    18    1
    25    14    15   ar
    26     8     1    1
    27    15    10   ar
    28     4     9    1
