@<TRIPOS>MOLECULE
*****
 33 38 0 0 0
SMALL
GASTEIGER

@<TRIPOS>ATOM
      1 C          -3.8349  -18.0402   23.1099 C.3     1  UNL1        0.0749
      2 C          -5.0976  -18.6464   22.5734 C.3     1  UNL1        0.0444
      3 C          -5.0349  -19.6391   21.4507 C.ar    1  UNL1       -0.0101
      4 C          -3.7094  -20.0254   20.8643 C.ar    1  UNL1       -0.0091
      5 C          -3.6468  -21.0181   19.7415 C.ar    1  UNL1       -0.0032
      6 C          -4.9095  -21.6244   19.2050 C.ar    1  UNL1        0.0010
      7 C          -6.2350  -21.2380   19.7914 C.ar    1  UNL1        0.0142
      8 C          -6.2977  -20.2454   20.9142 C.ar    1  UNL1        0.0436
      9 C          -2.4467  -19.4192   21.4007 C.3     1  UNL1        0.0954
     10 N          -2.5094  -18.4265   22.5235 N.3     1  UNL1       -0.2934
     11 H          -2.0770  -17.5681   22.1821 H       1  UNL1        0.1236
     12 N          -7.6232  -19.8590   21.5005 N.pl3   1  UNL1       -0.3049
     13 C          -7.8859  -20.0673   22.9627 C.3     1  UNL1        0.1081
     14 C          -9.2113  -19.6809   23.5490 C.3     1  UNL1        0.0938
     15 N         -10.2742  -19.0863   22.6733 N.3     1  UNL1       -0.2711
     16 C         -10.0115  -18.8780   21.2112 C.3     1  UNL1        0.0938
     17 C          -8.6860  -19.2644   20.6249 C.3     1  UNL1        0.1081
     18 C         -11.5997  -18.6999   23.2596 C.3     1  UNL1        0.0577
     19 C         -12.5237  -18.6153   24.4381 C.3     1  UNL1        0.0173
     20 C         -12.9714  -18.1153   23.0967 C.3     1  UNL1        0.0173
     21 C          -3.8975  -17.0475   24.2327 C.3     1  UNL1        0.0886
     22 C          -4.3574  -14.7253   23.1622 C.3     1  UNL1        0.0899
     23 N          -4.7543  -15.8230   24.1043 N.3     1  UNL1       -0.2667
     24 C          -6.0081  -15.6962   24.9180 C.3     1  UNL1        0.0978
     25 C          -5.9235  -15.5543   26.4088 C.3     1  UNL1        0.0224
     26 C          -7.1772  -15.4275   27.2225 C.3     1  UNL1        0.0065
     27 C          -8.5155  -15.4427   26.5454 C.3     1  UNL1        0.0277
     28 C          -8.6002  -15.5846   25.0544 C.ar    1  UNL1       -0.0073
     29 C          -9.9385  -15.5997   24.3773 C.ar    1  UNL1       -0.0015
     30 C         -10.0231  -15.7417   22.8864 C.ar    1  UNL1        0.0203
     31 C          -8.7694  -15.8685   22.0728 C.ar    1  UNL1        0.0985
     32 N          -7.4310  -15.8533   22.7499 N.ar    1  UNL1       -0.2471
     33 C          -7.3465  -15.7114   24.2408 C.ar    1  UNL1        0.0695
@<TRIPOS>BOND
     1    22    23    1
     2    23    21    1
     3     1    21    1
     4     1     2    1
     5     2     3    1
     6     3     4   ar
     7     4     5   ar
     8     5     6   ar
     9     6     7   ar
    10     7     8   ar
    11     8    12    1
    12    12    13    1
    13    13    14    1
    14    14    15    1
    15    15    18    1
    16    18    19    1
    17    19    20    1
    18    15    16    1
    19    16    17    1
    20     4     9    1
    21     9    10    1
    22    24    23    1
    23    24    25    1
    24    25    26    1
    25    26    27    1
    26    27    28    1
    27    28    29   ar
    28    29    30   ar
    29    30    31   ar
    30    31    32   ar
    31    32    33   ar
    32    10     1    1
    33    33    24    1
    34     8     3   ar
    35    17    12    1
    36    33    28   ar
    37    20    18    1
    38    10    11    1
@<TRIPOS>MOLECULE
*****
 33 38 0 0 0
SMALL
GASTEIGER

@<TRIPOS>ATOM
      1 C          -7.1752  -20.2838   20.5727 C.3     1  UNL1        0.0749
      2 C          -7.8968  -19.2034   21.3223 C.3     1  UNL1        0.0444
      3 C          -9.1845  -18.6510   20.7871 C.ar    1  UNL1       -0.0101
      4 C          -9.7507  -19.1790   19.5023 C.ar    1  UNL1       -0.0091
      5 C         -11.0385  -18.6265   18.9672 C.ar    1  UNL1       -0.0032
      6 C         -11.7601  -17.5461   19.7168 C.ar    1  UNL1        0.0010
      7 C         -11.1939  -17.0181   21.0015 C.ar    1  UNL1        0.0142
      8 C          -9.9062  -17.5705   21.5367 C.ar    1  UNL1        0.0436
      9 C          -9.0291  -20.2594   18.7527 C.3     1  UNL1        0.0954
     10 N          -7.7414  -20.8118   19.2879 N.3     1  UNL1       -0.2934
     11 H          -7.0339  -20.6584   18.5693 H       1  UNL1        0.1236
     12 N          -9.3400  -17.0425   22.8215 N.pl3   1  UNL1       -0.3049
     13 C          -8.3500  -15.9158   22.7978 C.3     1  UNL1        0.1081
     14 C          -7.7838  -15.3878   24.0826 C.3     1  UNL1        0.0938
     15 N          -8.2077  -15.9865   25.3911 N.3     1  UNL1       -0.2711
     16 C          -9.1976  -17.1131   25.4147 C.3     1  UNL1        0.0938
     17 C          -9.7638  -17.6411   24.1299 C.3     1  UNL1        0.1081
     18 C          -7.6415  -15.4585   26.6758 C.3     1  UNL1        0.0577
     19 C          -7.8229  -14.7211   27.9694 C.3     1  UNL1        0.0173
     20 C          -6.4794  -15.2814   27.6076 C.3     1  UNL1        0.0173
     21 C          -5.8874  -20.8363   21.1078 C.3     1  UNL1        0.0886
     22 C          -3.7819  -20.7731   19.5869 C.3     1  UNL1        0.0899
     23 N          -4.5825  -20.2055   20.7214 N.3     1  UNL1       -0.2667
     24 C          -4.0783  -19.0070   21.4692 C.3     1  UNL1        0.0978
     25 C          -4.7950  -18.5342   22.6991 C.3     1  UNL1        0.0224
     26 C          -4.2907  -17.3357   23.4470 C.3     1  UNL1        0.0065
     27 C          -3.0698  -16.6099   22.9649 C.3     1  UNL1        0.0277
     28 C          -2.3530  -17.0827   21.7349 C.ar    1  UNL1       -0.0073
     29 C          -1.1320  -16.3569   21.2528 C.ar    1  UNL1       -0.0015
     30 C          -0.4153  -16.8297   20.0229 C.ar    1  UNL1        0.0203
     31 C          -0.9195  -18.0282   19.2751 C.ar    1  UNL1        0.0985
     32 N          -2.1405  -18.7539   19.7571 N.ar    1  UNL1       -0.2471
     33 C          -2.8572  -18.2812   20.9871 C.ar    1  UNL1        0.0695
@<TRIPOS>BOND
     1    22    23    1
     2    23    21    1
     3     1    21    1
     4     1     2    1
     5     2     3    1
     6     3     4   ar
     7     4     5   ar
     8     5     6   ar
     9     6     7   ar
    10     7     8   ar
    11     8    12    1
    12    12    13    1
    13    13    14    1
    14    14    15    1
    15    15    18    1
    16    18    19    1
    17    19    20    1
    18    15    16    1
    19    16    17    1
    20     4     9    1
    21     9    10    1
    22    24    23    1
    23    24    25    1
    24    25    26    1
    25    26    27    1
    26    27    28    1
    27    28    29   ar
    28    29    30   ar
    29    30    31   ar
    30    31    32   ar
    31    32    33   ar
    32    10     1    1
    33    33    24    1
    34     8     3   ar
    35    17    12    1
    36    33    28   ar
    37    20    18    1
    38    10    11    1
@<TRIPOS>MOLECULE
*****
 33 38 0 0 0
SMALL
GASTEIGER

@<TRIPOS>ATOM
      1 C         -14.1988   -7.7347   18.2850 C.3     1  UNL1        0.0749
      2 C         -15.2674   -6.6893   18.4073 C.3     1  UNL1        0.0444
      3 C         -16.5993   -7.0439   18.9991 C.ar    1  UNL1       -0.0101
      4 C         -16.8625   -8.4440   19.4686 C.ar    1  UNL1       -0.0091
      5 C         -18.1945   -8.7987   20.0604 C.ar    1  UNL1       -0.0032
      6 C         -19.2631   -7.7532   20.1827 C.ar    1  UNL1        0.0010
      7 C         -18.9999   -6.3531   19.7132 C.ar    1  UNL1        0.0142
      8 C         -17.6680   -5.9985   19.1214 C.ar    1  UNL1        0.0436
      9 C         -15.7939   -9.4895   19.3462 C.3     1  UNL1        0.0954
     10 N         -14.4620   -9.1348   18.7545 N.3     1  UNL1       -0.2934
     11 H         -14.3254   -9.7459   17.9493 H       1  UNL1        0.1236
     12 N         -17.4048   -4.5984   18.6519 N.pl3   1  UNL1       -0.3049
     13 C         -16.9089   -3.5640   19.6185 C.3     1  UNL1        0.1081
     14 C         -16.6457   -2.1639   19.1490 C.3     1  UNL1        0.0938
     15 N         -16.8783   -1.7982   17.7130 N.3     1  UNL1       -0.2711
     16 C         -17.3742   -2.8325   16.7465 C.3     1  UNL1        0.0938
     17 C         -17.6374   -4.2326   17.2159 C.3     1  UNL1        0.1081
     18 C         -16.6151   -0.3980   17.2435 C.3     1  UNL1        0.0577
     19 C         -16.9485    0.7544   16.3432 C.3     1  UNL1        0.0173
     20 C         -15.8257    0.8744   17.3306 C.3     1  UNL1        0.0173
     21 C         -12.8668   -7.3801   17.6932 C.3     1  UNL1        0.0886
     22 C         -10.6012   -7.2553   18.9586 C.3     1  UNL1        0.0899
     23 N         -11.8709   -6.6012   18.5003 N.3     1  UNL1       -0.2667
     24 C         -12.1447   -5.1683   18.8491 C.3     1  UNL1        0.0978
     25 C         -13.0439   -4.8358   20.0027 C.3     1  UNL1        0.0224
     26 C         -13.3177   -3.4028   20.3515 C.3     1  UNL1        0.0065
     27 C         -12.6922   -2.3024   19.5468 C.3     1  UNL1        0.0277
     28 C         -11.7929   -2.6348   18.3932 C.ar    1  UNL1       -0.0073
     29 C         -11.1675   -1.5343   17.5884 C.ar    1  UNL1       -0.0015
     30 C         -10.2682   -1.8667   16.4349 C.ar    1  UNL1        0.0203
     31 C          -9.9944   -3.2997   16.0860 C.ar    1  UNL1        0.0985
     32 N         -10.6199   -4.4002   16.8908 N.ar    1  UNL1       -0.2471
     33 C         -11.5192   -4.0677   18.0443 C.ar    1  UNL1        0.0695
@<TRIPOS>BOND
     1    22    23    1
     2    23    21    1
     3     1    21    1
     4     1     2    1
     5     2     3    1
     6     3     4   ar
     7     4     5   ar
     8     5     6   ar
     9     6     7   ar
    10     7     8   ar
    11     8    12    1
    12    12    13    1
    13    13    14    1
    14    14    15    1
    15    15    18    1
    16    18    19    1
    17    19    20    1
    18    15    16    1
    19    16    17    1
    20     4     9    1
    21     9    10    1
    22    24    23    1
    23    24    25    1
    24    25    26    1
    25    26    27    1
    26    27    28    1
    27    28    29   ar
    28    29    30   ar
    29    30    31   ar
    30    31    32   ar
    31    32    33   ar
    32    10     1    1
    33    33    24    1
    34     8     3   ar
    35    17    12    1
    36    33    28   ar
    37    20    18    1
    38    10    11    1
@<TRIPOS>MOLECULE
*****
 33 38 0 0 0
SMALL
GASTEIGER

@<TRIPOS>ATOM
      1 C         -14.8511   -7.8142   18.9856 C.3     1  UNL1        0.0749
      2 C         -15.8478   -6.6933   18.9926 C.3     1  UNL1        0.0444
      3 C         -17.2772   -6.9631   19.3587 C.ar    1  UNL1       -0.0101
      4 C         -17.7099   -8.3537   19.7177 C.ar    1  UNL1       -0.0091
      5 C         -19.1393   -8.6234   20.0838 C.ar    1  UNL1       -0.0032
      6 C         -20.1361   -7.5026   20.0908 C.ar    1  UNL1        0.0010
      7 C         -19.7034   -6.1119   19.7317 C.ar    1  UNL1        0.0142
      8 C         -18.2740   -5.8422   19.3657 C.ar    1  UNL1        0.0436
      9 C         -16.7131   -9.4746   19.7107 C.3     1  UNL1        0.0954
     10 N         -15.2838   -9.2049   19.3447 N.3     1  UNL1       -0.2934
     11 H         -15.0686   -9.7966   18.5422 H       1  UNL1        0.1236
     12 N         -17.8413   -4.4515   19.0066 N.pl3   1  UNL1       -0.3049
     13 C         -17.6689   -3.4188   20.0809 C.3     1  UNL1        0.1081
     14 C         -17.2362   -2.0282   19.7218 C.3     1  UNL1        0.0938
     15 N         -16.9760   -1.6702   18.2885 N.3     1  UNL1       -0.2711
     16 C         -17.1484   -2.7029   17.2144 C.3     1  UNL1        0.0938
     17 C         -17.5811   -4.0935   17.5735 C.3     1  UNL1        0.1081
     18 C         -16.5433   -0.2796   17.9295 C.3     1  UNL1        0.0577
     19 C         -15.6461    0.9009   18.1560 C.3     1  UNL1        0.0173
     20 C         -16.6912    0.9485   17.0811 C.3     1  UNL1        0.0173
     21 C         -13.4216   -7.5445   18.6195 C.3     1  UNL1        0.0886
     22 C         -13.9502   -6.7434   16.2052 C.3     1  UNL1        0.0899
     23 N         -13.1007   -6.6757   17.4397 N.3     1  UNL1       -0.2667
     24 C         -11.9302   -5.7393   17.4941 C.3     1  UNL1        0.0978
     25 C         -10.5748   -6.2063   17.0527 C.3     1  UNL1        0.0224
     26 C          -9.4044   -5.2698   17.1071 C.3     1  UNL1        0.0065
     27 C          -9.5892   -3.8663   17.6031 C.3     1  UNL1        0.0277
     28 C         -10.9446   -3.3992   18.0446 C.ar    1  UNL1       -0.0073
     29 C         -11.1294   -1.9957   18.5405 C.ar    1  UNL1       -0.0015
     30 C         -12.4847   -1.5287   18.9820 C.ar    1  UNL1        0.0203
     31 C         -13.6552   -2.4652   18.9275 C.ar    1  UNL1        0.0985
     32 N         -13.4704   -3.8687   18.4316 N.ar    1  UNL1       -0.2471
     33 C         -12.1151   -4.3357   17.9901 C.ar    1  UNL1        0.0695
@<TRIPOS>BOND
     1    22    23    1
     2    23    21    1
     3     1    21    1
     4     1     2    1
     5     2     3    1
     6     3     4   ar
     7     4     5   ar
     8     5     6   ar
     9     6     7   ar
    10     7     8   ar
    11     8    12    1
    12    12    13    1
    13    13    14    1
    14    14    15    1
    15    15    18    1
    16    18    19    1
    17    19    20    1
    18    15    16    1
    19    16    17    1
    20     4     9    1
    21     9    10    1
    22    24    23    1
    23    24    25    1
    24    25    26    1
    25    26    27    1
    26    27    28    1
    27    28    29   ar
    28    29    30   ar
    29    30    31   ar
    30    31    32   ar
    31    32    33   ar
    32    10     1    1
    33    33    24    1
    34     8     3   ar
    35    17    12    1
    36    33    28   ar
    37    20    18    1
    38    10    11    1
@<TRIPOS>MOLECULE
*****
 33 38 0 0 0
SMALL
GASTEIGER

@<TRIPOS>ATOM
      1 C           4.2373   -1.8678   24.2046 C.3     1  UNL1        0.0749
      2 C           3.6614   -1.3689   22.9125 C.3     1  UNL1        0.0444
      3 C           3.9942   -2.0635   21.6254 C.ar    1  UNL1       -0.0101
      4 C           4.9028   -3.2569   21.6303 C.ar    1  UNL1       -0.0091
      5 C           5.2355   -3.9515   20.3430 C.ar    1  UNL1       -0.0032
      6 C           4.6597   -3.4526   19.0510 C.ar    1  UNL1        0.0010
      7 C           3.7510   -2.2592   19.0461 C.ar    1  UNL1        0.0142
      8 C           3.4183   -1.5646   20.3332 C.ar    1  UNL1        0.0436
      9 C           5.4786   -3.7558   22.9223 C.3     1  UNL1        0.0954
     10 N           5.1459   -3.0613   24.2095 N.3     1  UNL1       -0.2934
     11 H           6.0300   -2.7566   24.6167 H       1  UNL1        0.1236
     12 N           2.5097   -0.3711   20.3283 N.pl3   1  UNL1       -0.3049
     13 C           1.0220   -0.5609   20.3581 C.3     1  UNL1        0.1081
     14 C           0.1134    0.6325   20.3532 C.3     1  UNL1        0.0938
     15 N           0.6925    2.0159   20.3185 N.3     1  UNL1       -0.2711
     16 C           2.1801    2.2057   20.2887 C.3     1  UNL1        0.0938
     17 C           3.0887    1.0122   20.2936 C.3     1  UNL1        0.1081
     18 C          -0.2162    3.2094   20.3136 C.3     1  UNL1        0.0577
     19 C          -0.7599    4.4308   20.9935 C.3     1  UNL1        0.0173
     20 C          -1.2461    4.0551   19.6252 C.3     1  UNL1        0.0173
     21 C           3.9045   -1.1732   25.4918 C.3     1  UNL1        0.0886
     22 C           4.8309    1.2513   25.6094 C.3     1  UNL1        0.0899
     23 N           3.6691    0.3081   25.5056 N.3     1  UNL1       -0.2667
     24 C           2.2719    0.8463   25.4156 C.3     1  UNL1        0.0978
     25 C           1.7595    1.3888   24.1144 C.3     1  UNL1        0.0224
     26 C           0.3623    1.9271   24.0244 C.3     1  UNL1        0.0065
     27 C          -0.5226    1.9228   25.2356 C.3     1  UNL1        0.0277
     28 C          -0.0102    1.3803   26.5369 C.ar    1  UNL1       -0.0073
     29 C          -0.8950    1.3760   27.7480 C.ar    1  UNL1       -0.0015
     30 C          -0.3827    0.8335   29.0492 C.ar    1  UNL1        0.0203
     31 C           1.0146    0.2953   29.1392 C.ar    1  UNL1        0.0985
     32 N           1.8994    0.2996   27.9281 N.ar    1  UNL1       -0.2471
     33 C           1.3870    0.8421   26.6269 C.ar    1  UNL1        0.0695
@<TRIPOS>BOND
     1    22    23    1
     2    23    21    1
     3     1    21    1
     4     1     2    1
     5     2     3    1
     6     3     4   ar
     7     4     5   ar
     8     5     6   ar
     9     6     7   ar
    10     7     8   ar
    11     8    12    1
    12    12    13    1
    13    13    14    1
    14    14    15    1
    15    15    18    1
    16    18    19    1
    17    19    20    1
    18    15    16    1
    19    16    17    1
    20     4     9    1
    21     9    10    1
    22    24    23    1
    23    24    25    1
    24    25    26    1
    25    26    27    1
    26    27    28    1
    27    28    29   ar
    28    29    30   ar
    29    30    31   ar
    30    31    32   ar
    31    32    33   ar
    32    10     1    1
    33    33    24    1
    34     8     3   ar
    35    17    12    1
    36    33    28   ar
    37    20    18    1
    38    10    11    1
@<TRIPOS>MOLECULE
*****
 33 38 0 0 0
SMALL
GASTEIGER

@<TRIPOS>ATOM
      1 C           6.8337   -4.4603   24.4079 C.3     1  UNL1        0.0749
      2 C           7.0923   -4.8018   25.8454 C.3     1  UNL1        0.0444
      3 C           7.9068   -6.0122   26.1939 C.ar    1  UNL1       -0.0101
      4 C           8.4628   -6.8811   25.1049 C.ar    1  UNL1       -0.0091
      5 C           9.2773   -8.0915   25.4534 C.ar    1  UNL1       -0.0032
      6 C           9.5359   -8.4330   26.8909 C.ar    1  UNL1        0.0010
      7 C           8.9799   -7.5642   27.9799 C.ar    1  UNL1        0.0142
      8 C           8.1654   -6.3538   27.6315 C.ar    1  UNL1        0.0436
      9 C           8.2042   -6.5395   23.6674 C.3     1  UNL1        0.0954
     10 N           7.3897   -5.3291   23.3189 N.3     1  UNL1       -0.2934
     11 H           6.5954   -5.6570   22.7694 H       1  UNL1        0.1236
     12 N           7.6094   -5.4849   28.7205 N.pl3   1  UNL1       -0.3049
     13 C           7.4067   -6.0453   30.0971 C.3     1  UNL1        0.1081
     14 C           6.8507   -5.1765   31.1861 C.3     1  UNL1        0.0938
     15 N           6.4975   -3.7472   30.8986 N.3     1  UNL1       -0.2711
     16 C           6.7003   -3.1869   29.5220 C.3     1  UNL1        0.0938
     17 C           7.2562   -4.0558   28.4330 C.3     1  UNL1        0.1081
     18 C           5.9416   -2.8784   31.9876 C.3     1  UNL1        0.0577
     19 C           4.8384   -2.5451   32.9477 C.3     1  UNL1        0.0173
     20 C           6.0818   -1.7068   32.9137 C.3     1  UNL1        0.0173
     21 C           6.0192   -3.2499   24.0594 C.3     1  UNL1        0.0886
     22 C           7.4634   -1.5557   22.7199 C.3     1  UNL1        0.0899
     23 N           6.2981   -2.4976   22.7920 N.3     1  UNL1       -0.2667
     24 C           5.4119   -2.6872   21.5968 C.3     1  UNL1        0.0978
     25 C           5.7495   -3.7276   20.5703 C.3     1  UNL1        0.0224
     26 C           4.8632   -3.9172   19.3750 C.3     1  UNL1        0.0065
     27 C           3.6395   -3.0664   19.2062 C.3     1  UNL1        0.0277
     28 C           3.3019   -2.0260   20.2327 C.ar    1  UNL1       -0.0073
     29 C           2.0781   -1.1752   20.0639 C.ar    1  UNL1       -0.0015
     30 C           1.7406   -0.1348   21.0904 C.ar    1  UNL1        0.0203
     31 C           2.6268    0.0548   22.2856 C.ar    1  UNL1        0.0985
     32 N           3.8505   -0.7960   22.4544 N.ar    1  UNL1       -0.2471
     33 C           4.1881   -1.8364   21.4280 C.ar    1  UNL1        0.0695
@<TRIPOS>BOND
     1    22    23    1
     2    23    21    1
     3     1    21    1
     4     1     2    1
     5     2     3    1
     6     3     4   ar
     7     4     5   ar
     8     5     6   ar
     9     6     7   ar
    10     7     8   ar
    11     8    12    1
    12    12    13    1
    13    13    14    1
    14    14    15    1
    15    15    18    1
    16    18    19    1
    17    19    20    1
    18    15    16    1
    19    16    17    1
    20     4     9    1
    21     9    10    1
    22    24    23    1
    23    24    25    1
    24    25    26    1
    25    26    27    1
    26    27    28    1
    27    28    29   ar
    28    29    30   ar
    29    30    31   ar
    30    31    32   ar
    31    32    33   ar
    32    10     1    1
    33    33    24    1
    34     8     3   ar
    35    17    12    1
    36    33    28   ar
    37    20    18    1
    38    10    11    1
@<TRIPOS>MOLECULE
*****
 33 38 0 0 0
SMALL
GASTEIGER

@<TRIPOS>ATOM
      1 C           5.2390   -2.6634   22.9923 C.3     1  UNL1        0.0749
      2 C           6.0417   -3.2811   24.0987 C.3     1  UNL1        0.0444
      3 C           7.1926   -4.1869   23.7747 C.ar    1  UNL1       -0.0101
      4 C           7.5407   -4.4750   22.3444 C.ar    1  UNL1       -0.0091
      5 C           8.6916   -5.3809   22.0205 C.ar    1  UNL1       -0.0032
      6 C           9.4943   -5.9986   23.1269 C.ar    1  UNL1        0.0010
      7 C           9.1462   -5.7104   24.5572 C.ar    1  UNL1        0.0142
      8 C           7.9954   -4.8046   24.8811 C.ar    1  UNL1        0.0436
      9 C           6.7380   -3.8573   21.2381 C.3     1  UNL1        0.0954
     10 N           5.5872   -2.9515   21.5620 N.3     1  UNL1       -0.2934
     11 H           4.7581   -3.3644   21.1346 H       1  UNL1        0.1236
     12 N           7.6472   -4.5165   26.3114 N.pl3   1  UNL1       -0.3049
     13 C           8.2242   -3.3128   26.9959 C.3     1  UNL1        0.1081
     14 C           7.8760   -3.0247   28.4262 C.3     1  UNL1        0.0938
     15 N           6.9510   -3.9402   29.1721 N.3     1  UNL1       -0.2711
     16 C           6.3741   -5.1438   28.4876 C.3     1  UNL1        0.0938
     17 C           6.7222   -5.4319   27.0573 C.3     1  UNL1        0.1081
     18 C           6.6028   -3.6521   30.6024 C.3     1  UNL1        0.0577
     19 C           6.0066   -2.7439   31.6366 C.3     1  UNL1        0.0173
     20 C           6.5961   -4.0612   32.0454 C.3     1  UNL1        0.0173
     21 C           4.0881   -1.7575   23.3163 C.3     1  UNL1        0.0886
     22 C           4.8067    0.7361   23.1920 C.3     1  UNL1        0.0899
     23 N           3.9903   -0.4082   22.6684 N.3     1  UNL1       -0.2667
     24 C           3.0761   -0.2031   21.4970 C.3     1  UNL1        0.0978
     25 C           1.6293    0.1221   21.7227 C.3     1  UNL1        0.0224
     26 C           0.7151    0.3272   20.5513 C.3     1  UNL1        0.0065
     27 C           1.2477    0.2071   19.1542 C.3     1  UNL1        0.0277
     28 C           2.6946   -0.1181   18.9285 C.ar    1  UNL1       -0.0073
     29 C           3.2272   -0.2382   17.5314 C.ar    1  UNL1       -0.0015
     30 C           4.6740   -0.5634   17.3057 C.ar    1  UNL1        0.0203
     31 C           5.5882   -0.7685   18.4771 C.ar    1  UNL1        0.0985
     32 N           5.0556   -0.6484   19.8742 N.ar    1  UNL1       -0.2471
     33 C           3.6088   -0.3232   20.0999 C.ar    1  UNL1        0.0695
@<TRIPOS>BOND
     1    22    23    1
     2    23    21    1
     3     1    21    1
     4     1     2    1
     5     2     3    1
     6     3     4   ar
     7     4     5   ar
     8     5     6   ar
     9     6     7   ar
    10     7     8   ar
    11     8    12    1
    12    12    13    1
    13    13    14    1
    14    14    15    1
    15    15    18    1
    16    18    19    1
    17    19    20    1
    18    15    16    1
    19    16    17    1
    20     4     9    1
    21     9    10    1
    22    24    23    1
    23    24    25    1
    24    25    26    1
    25    26    27    1
    26    27    28    1
    27    28    29   ar
    28    29    30   ar
    29    30    31   ar
    30    31    32   ar
    31    32    33   ar
    32    10     1    1
    33    33    24    1
    34     8     3   ar
    35    17    12    1
    36    33    28   ar
    37    20    18    1
    38    10    11    1
@<TRIPOS>MOLECULE
*****
 33 38 0 0 0
SMALL
GASTEIGER

@<TRIPOS>ATOM
      1 C           6.6359   -3.9081   24.6590 C.3     1  UNL1        0.0749
      2 C           7.1452   -4.2542   26.0268 C.3     1  UNL1        0.0444
      3 C           7.9415   -5.5081   26.2355 C.ar    1  UNL1       -0.0101
      4 C           8.2286   -6.4159   25.0763 C.ar    1  UNL1       -0.0091
      5 C           9.0250   -7.6698   25.2851 C.ar    1  UNL1       -0.0032
      6 C           9.5343   -8.0159   26.6528 C.ar    1  UNL1        0.0010
      7 C           9.2472   -7.1081   27.8119 C.ar    1  UNL1        0.0142
      8 C           8.4509   -5.8542   27.6033 C.ar    1  UNL1        0.0436
      9 C           7.7193   -6.0698   23.7086 C.3     1  UNL1        0.0954
     10 N           6.9230   -4.8159   23.4999 N.3     1  UNL1       -0.2934
     11 H           6.0209   -5.1002   23.1181 H       1  UNL1        0.1236
     12 N           8.1638   -4.9465   28.7624 N.pl3   1  UNL1       -0.3049
     13 C           9.1080   -3.8281   29.0910 C.3     1  UNL1        0.1081
     14 C           8.8209   -2.9203   30.2501 C.3     1  UNL1        0.0938
     15 N           7.5896   -3.1309   31.0806 N.3     1  UNL1       -0.2711
     16 C           6.6455   -4.2492   30.7520 C.3     1  UNL1        0.0938
     17 C           6.9326   -5.1570   29.5929 C.3     1  UNL1        0.1081
     18 C           7.3026   -2.2231   32.2397 C.3     1  UNL1        0.0577
     19 C           7.7849   -1.2789   33.3007 C.3     1  UNL1        0.0173
     20 C           6.3230   -1.5951   33.1863 C.3     1  UNL1        0.0173
     21 C           5.8395   -2.6542   24.4503 C.3     1  UNL1        0.0886
     22 C           7.3446   -1.2438   22.8706 C.3     1  UNL1        0.0899
     23 N           6.0135   -1.8559   23.1924 N.3     1  UNL1       -0.2667
     24 C           4.8564   -1.6696   22.2563 C.3     1  UNL1        0.0978
     25 C           3.8797   -0.5541   22.4837 C.3     1  UNL1        0.0224
     26 C           2.7226   -0.3678   21.5475 C.3     1  UNL1        0.0065
     27 C           2.5421   -1.2970   20.3840 C.3     1  UNL1        0.0277
     28 C           3.5188   -2.4126   20.1565 C.ar    1  UNL1       -0.0073
     29 C           3.3383   -3.3419   18.9930 C.ar    1  UNL1       -0.0015
     30 C           4.3149   -4.4574   18.7656 C.ar    1  UNL1        0.0203
     31 C           5.4720   -4.6437   19.7017 C.ar    1  UNL1        0.0985
     32 N           5.6525   -3.7144   20.8653 N.ar    1  UNL1       -0.2471
     33 C           4.6759   -2.5989   21.0927 C.ar    1  UNL1        0.0695
@<TRIPOS>BOND
     1    22    23    1
     2    23    21    1
     3     1    21    1
     4     1     2    1
     5     2     3    1
     6     3     4   ar
     7     4     5   ar
     8     5     6   ar
     9     6     7   ar
    10     7     8   ar
    11     8    12    1
    12    12    13    1
    13    13    14    1
    14    14    15    1
    15    15    18    1
    16    18    19    1
    17    19    20    1
    18    15    16    1
    19    16    17    1
    20     4     9    1
    21     9    10    1
    22    24    23    1
    23    24    25    1
    24    25    26    1
    25    26    27    1
    26    27    28    1
    27    28    29   ar
    28    29    30   ar
    29    30    31   ar
    30    31    32   ar
    31    32    33   ar
    32    10     1    1
    33    33    24    1
    34     8     3   ar
    35    17    12    1
    36    33    28   ar
    37    20    18    1
    38    10    11    1
@<TRIPOS>MOLECULE
*****
 33 38 0 0 0
SMALL
GASTEIGER

@<TRIPOS>ATOM
      1 C           7.6180   -3.1337   23.2733 C.3     1  UNL1        0.0749
      2 C           7.7714   -3.8918   24.5585 C.3     1  UNL1        0.0444
      3 C           8.3596   -5.2717   24.5496 C.ar    1  UNL1       -0.0101
      4 C           8.7943   -5.8934   23.2556 C.ar    1  UNL1       -0.0091
      5 C           9.3825   -7.2733   23.2468 C.ar    1  UNL1       -0.0032
      6 C           9.5359   -8.0314   24.5320 C.ar    1  UNL1        0.0010
      7 C           9.1012   -7.4097   25.8260 C.ar    1  UNL1        0.0142
      8 C           8.5130   -6.0298   25.8348 C.ar    1  UNL1        0.0436
      9 C           8.6409   -5.1353   21.9705 C.3     1  UNL1        0.0954
     10 N           8.0528   -3.7555   21.9793 N.3     1  UNL1       -0.2934
     11 H           7.2317   -3.7815   21.3746 H       1  UNL1        0.1236
     12 N           8.0783   -5.4081   27.1289 N.pl3   1  UNL1       -0.3049
     13 C           9.0029   -4.4844   27.8651 C.3     1  UNL1        0.1081
     14 C           8.5682   -3.8627   29.1591 C.3     1  UNL1        0.0938
     15 N           7.2089   -4.1647   29.7169 N.3     1  UNL1       -0.2711
     16 C           6.2843   -5.0883   28.9807 C.3     1  UNL1        0.0938
     17 C           6.7190   -5.7100   27.6867 C.3     1  UNL1        0.1081
     18 C           6.7741   -3.5429   31.0109 C.3     1  UNL1        0.0577
     19 C           6.3092   -3.6870   32.4297 C.3     1  UNL1        0.0173
     20 C           6.4861   -2.3221   31.8333 C.3     1  UNL1        0.0173
     21 C           7.0298   -1.7538   23.2821 C.3     1  UNL1        0.0886
     22 C           7.7083   -0.3485   21.2049 C.3     1  UNL1        0.0899
     23 N           6.6642   -1.0862   21.9897 N.3     1  UNL1       -0.2667
     24 C           5.2545   -1.1561   21.4819 C.3     1  UNL1        0.0978
     25 C           4.2603   -0.1066   21.8821 C.3     1  UNL1        0.0224
     26 C           2.8506   -0.1765   21.3743 C.3     1  UNL1        0.0065
     27 C           2.4351   -1.2959   20.4664 C.3     1  UNL1        0.0277
     28 C           3.4293   -2.3454   20.0662 C.ar    1  UNL1       -0.0073
     29 C           3.0138   -3.4648   19.1583 C.ar    1  UNL1       -0.0015
     30 C           4.0080   -4.5142   18.7581 C.ar    1  UNL1        0.0203
     31 C           5.4177   -4.4443   19.2659 C.ar    1  UNL1        0.0985
     32 N           5.8332   -3.3249   20.1738 N.ar    1  UNL1       -0.2471
     33 C           4.8390   -2.2755   20.5739 C.ar    1  UNL1        0.0695
@<TRIPOS>BOND
     1    22    23    1
     2    23    21    1
     3     1    21    1
     4     1     2    1
     5     2     3    1
     6     3     4   ar
     7     4     5   ar
     8     5     6   ar
     9     6     7   ar
    10     7     8   ar
    11     8    12    1
    12    12    13    1
    13    13    14    1
    14    14    15    1
    15    15    18    1
    16    18    19    1
    17    19    20    1
    18    15    16    1
    19    16    17    1
    20     4     9    1
    21     9    10    1
    22    24    23    1
    23    24    25    1
    24    25    26    1
    25    26    27    1
    26    27    28    1
    27    28    29   ar
    28    29    30   ar
    29    30    31   ar
    30    31    32   ar
    31    32    33   ar
    32    10     1    1
    33    33    24    1
    34     8     3   ar
    35    17    12    1
    36    33    28   ar
    37    20    18    1
    38    10    11    1
