@<TRIPOS>MOLECULE
*****
 48 55 0 0 0
SMALL
GASTEIGER

@<TRIPOS>ATOM
      1 C          -0.2364    3.2349   19.9366 C.ar    1  UNL1        0.1384
      2 C          -0.2967    3.2723   21.4349 C.ar    1  UNL1        0.0369
      3 C           0.6339    2.4187   22.2445 C.ar    1  UNL1        0.0042
      4 C           1.6248    1.5279   21.5559 C.ar    1  UNL1        0.0117
      5 C           1.6852    1.4904   20.0576 C.ar    1  UNL1       -0.0176
      6 C           0.7546    2.3439   19.2479 C.ar    1  UNL1        0.0327
      7 C           2.5902    0.6797   19.1780 C.3     1  UNL1        0.0330
      8 C           3.3891   -0.0328   18.1272 C.3     1  UNL1        0.0157
      9 C           3.6584   -0.2939   19.5795 C.3     1  UNL1        0.0938
     10 C           4.0854   -0.6971   20.9597 C.3     1  UNL1        0.1148
     11 N           3.5497   -0.2265   22.2794 N.ar    1  UNL1       -0.3269
     12 C           2.4546    0.7638   22.5447 C.ar    1  UNL1        0.0555
     13 C           2.2950    0.8914   24.0307 C.ar    1  UNL1       -0.0053
     14 C           3.2915   -0.0200   24.6837 C.ar    1  UNL1        0.0132
     15 C           3.5930   -0.3102   26.1243 C.ar    1  UNL1        0.0013
     16 C           4.6698   -1.2911   26.4824 C.ar    1  UNL1        0.0046
     17 C           5.4452   -1.9819   25.4000 C.ar    1  UNL1        0.0563
     18 C           5.1437   -1.6918   23.9595 C.ar    1  UNL1        0.0217
     19 C           4.0668   -0.7109   23.6013 C.ar    1  UNL1        0.0597
     20 C           4.7132   -1.2451   19.0971 C.2     1  UNL1        0.2268
     21 O           6.0566   -0.7257   18.6782 O.2     1  UNL1       -0.2748
     22 N           4.4245   -2.7157   19.0336 N.am    1  UNL1       -0.2800
     23 C           3.1347   -3.3784   19.4173 C.3     1  UNL1        0.0913
     24 C           3.2881   -4.8541   19.1961 C.3     1  UNL1        0.0230
     25 C           4.6727   -5.1033   18.6757 C.3     1  UNL1        0.0230
     26 C           5.3750   -3.7817   18.5753 C.3     1  UNL1        0.0913
     27 C           5.8216   -2.3396   18.5795 C.3     1  UNL1        0.0922
     28 N           4.7668   -1.3884   19.0618 N.3     1  UNL1       -0.2687
     29 C           5.0554    0.0823   19.1254 C.3     1  UNL1        0.0897
     30 C           3.4234   -1.9078   19.4807 C.3     1  UNL1        0.0922
     31 C           1.3118    1.7751   24.7392 C.3     1  UNL1        0.0238
     32 C           1.6610    3.2050   25.0282 C.3     1  UNL1        0.0044
     33 C           0.6778    4.0887   25.7367 C.3     1  UNL1        0.0003
     34 C          -0.6548    3.5427   26.1564 C.3     1  UNL1        0.0000
     35 C          -1.0040    2.1128   25.8675 C.3     1  UNL1        0.0003
     36 C          -0.0208    1.2290   25.1589 C.3     1  UNL1        0.0044
     37 C           6.5220   -2.9628   25.7580 C.2     1  UNL1        0.2651
     38 O           7.8521   -2.4711   26.2470 O.2     1  UNL1       -0.2685
     39 N           6.2688   -4.4355   25.6271 N.am    1  UNL1       -0.1714
     40 H           5.3958   -4.7582   25.3062 H       1  UNL1        0.1779
     41 S           7.3455   -5.4165   25.9851 S.O2    1  UNL1        0.1154
     42 O           7.8312   -5.4015   24.5660 O.2     1  UNL1       -0.1378
     43 O           6.8599   -5.4314   27.4043 O.2     1  UNL1       -0.1378
     44 N           8.4223   -6.3974   26.3433 N.3     1  UNL1       -0.1398
     45 C           9.2777   -6.1637   27.5530 C.3     1  UNL1        0.1163
     46 C           8.6435   -7.6122   25.4916 C.3     1  UNL1        0.1163
     47 C          -2.6424    4.0514   19.3945 C.3     1  UNL1        0.2525
     48 O          -1.1669    4.0883   19.1270 O.3     1  UNL1       -0.4714
@<TRIPOS>BOND
     1    47    48    1
     2    48     1    1
     3     1     2   ar
     4     2     3   ar
     5     3     4   ar
     6     4     5   ar
     7     5     6   ar
     8     5     7    1
     9     7     8    1
    10     8     9    1
    11     9    20    1
    12    20    21    2
    13    20    22   am
    14    22    23    1
    15    23    24    1
    16    24    25    1
    17    25    26    1
    18    26    27    1
    19    27    28    1
    20    28    29    1
    21    28    30    1
    22     9    10    1
    23    10    11    1
    24    11    12   ar
    25    12    13   ar
    26    13    31    1
    27    31    32    1
    28    32    33    1
    29    33    34    1
    30    34    35    1
    31    35    36    1
    32    13    14   ar
    33    14    15   ar
    34    15    16   ar
    35    16    17   ar
    36    17    37    1
    37    37    38    2
    38    37    39   am
    39    39    41    1
    40    41    42    2
    41    41    43    2
    42    41    44    1
    43    44    45    1
    44    44    46    1
    45    17    18   ar
    46    18    19   ar
    47     6     1   ar
    48     9     7    1
    49    26    22    1
    50    19    11   ar
    51    12     4    1
    52    36    31    1
    53    19    14   ar
    54    30    23    1
    55    39    40    1
@<TRIPOS>MOLECULE
*****
 48 55 0 0 0
SMALL
GASTEIGER

@<TRIPOS>ATOM
      1 C           0.6973    1.4234   19.3604 C.ar    1  UNL1        0.1384
      2 C           0.4427    1.8929   20.7620 C.ar    1  UNL1        0.0369
      3 C           1.2125    1.2980   21.9038 C.ar    1  UNL1        0.0042
      4 C           2.2369    0.2337   21.6439 C.ar    1  UNL1        0.0117
      5 C           2.4916   -0.2359   20.2423 C.ar    1  UNL1       -0.0176
      6 C           1.7218    0.3589   19.1004 C.ar    1  UNL1        0.0327
      7 C           3.4603   -1.2777   19.7664 C.3     1  UNL1        0.0330
      8 C           4.3515   -2.2735   19.0852 C.3     1  UNL1        0.0157
      9 C           4.4135   -2.1071   20.5746 C.3     1  UNL1        0.0938
     10 C           4.6335   -2.0997   22.0584 C.3     1  UNL1        0.1148
     11 N           3.9546   -1.2610   23.1004 N.ar    1  UNL1       -0.3269
     12 C           2.8880   -0.2225   22.9159 C.ar    1  UNL1        0.0555
     13 C           2.5415    0.3310   24.2662 C.ar    1  UNL1       -0.0053
     14 C           3.3939   -0.3653   25.2852 C.ar    1  UNL1        0.0132
     15 C           3.4878   -0.2306   26.7763 C.ar    1  UNL1        0.0013
     16 C           4.4549   -1.0797   27.5467 C.ar    1  UNL1        0.0046
     17 C           5.3282   -2.0636   26.8261 C.ar    1  UNL1        0.0563
     18 C           5.2344   -2.1984   25.3352 C.ar    1  UNL1        0.0217
     19 C           4.2673   -1.3492   24.5647 C.ar    1  UNL1        0.0597
     20 C           5.4709   -3.1705   20.5365 C.2     1  UNL1        0.2268
     21 O           5.0849   -4.6161   20.6420 O.2     1  UNL1       -0.2748
     22 N           6.9141   -2.7880   20.3928 N.am    1  UNL1       -0.2800
     23 C           7.4489   -1.3914   20.2769 C.3     1  UNL1        0.0913
     24 C           8.9414   -1.4755   20.1523 C.3     1  UNL1        0.0230
     25 C           9.3290   -2.9241   20.1912 C.3     1  UNL1        0.0230
     26 C           8.0761   -3.7352   20.3399 C.3     1  UNL1        0.0913
     27 C           6.6770   -4.2828   20.4880 C.3     1  UNL1        0.0922
     28 N           5.6196   -3.2195   20.5261 N.3     1  UNL1       -0.2687
     29 C           4.1763   -3.6018   20.6698 C.3     1  UNL1        0.0897
     30 C           6.0056   -1.7738   20.4206 C.3     1  UNL1        0.0922
     31 C           1.5217    1.3942   24.5481 C.3     1  UNL1        0.0238
     32 C           1.8776    2.8407   24.3713 C.3     1  UNL1        0.0044
     33 C           0.8579    3.9038   24.6532 C.3     1  UNL1        0.0003
     34 C          -0.5180    3.5207   25.1119 C.3     1  UNL1        0.0000
     35 C          -0.8739    2.0744   25.2887 C.3     1  UNL1        0.0003
     36 C           0.1459    1.0111   25.0068 C.3     1  UNL1        0.0044
     37 C           6.2954   -2.9128   27.5965 C.2     1  UNL1        0.2651
     38 O           7.6866   -2.4163   27.8576 O.2     1  UNL1       -0.2685
     39 N           5.8714   -4.2585   28.1059 N.am    1  UNL1       -0.1714
     40 H           4.9583   -4.5843   27.9346 H       1  UNL1        0.1779
     41 S           6.8385   -5.1077   28.8763 S.O2    1  UNL1        0.1154
     42 O           7.1719   -5.8638   27.6245 O.2     1  UNL1       -0.1378
     43 O           6.5050   -4.3515   30.1282 O.2     1  UNL1       -0.1378
     44 N           7.8055   -5.9569   29.6468 N.3     1  UNL1       -0.1398
     45 C           8.7713   -6.8433   28.9177 C.3     1  UNL1        0.1163
     46 C           7.8068   -5.9196   31.1463 C.3     1  UNL1        0.1163
     47 C          -0.0364    3.4987   17.9804 C.3     1  UNL1        0.2525
     48 O          -0.0724    2.0182   18.2187 O.3     1  UNL1       -0.4714
@<TRIPOS>BOND
     1    47    48    1
     2    48     1    1
     3     1     2   ar
     4     2     3   ar
     5     3     4   ar
     6     4     5   ar
     7     5     6   ar
     8     5     7    1
     9     7     8    1
    10     8     9    1
    11     9    20    1
    12    20    21    2
    13    20    22   am
    14    22    23    1
    15    23    24    1
    16    24    25    1
    17    25    26    1
    18    26    27    1
    19    27    28    1
    20    28    29    1
    21    28    30    1
    22     9    10    1
    23    10    11    1
    24    11    12   ar
    25    12    13   ar
    26    13    31    1
    27    31    32    1
    28    32    33    1
    29    33    34    1
    30    34    35    1
    31    35    36    1
    32    13    14   ar
    33    14    15   ar
    34    15    16   ar
    35    16    17   ar
    36    17    37    1
    37    37    38    2
    38    37    39   am
    39    39    41    1
    40    41    42    2
    41    41    43    2
    42    41    44    1
    43    44    45    1
    44    44    46    1
    45    17    18   ar
    46    18    19   ar
    47     6     1   ar
    48     9     7    1
    49    26    22    1
    50    19    11   ar
    51    12     4    1
    52    36    31    1
    53    19    14   ar
    54    30    23    1
    55    39    40    1
@<TRIPOS>MOLECULE
*****
 48 55 0 0 0
SMALL
GASTEIGER

@<TRIPOS>ATOM
      1 C           1.1921    0.6581   19.5571 C.ar    1  UNL1        0.1384
      2 C           2.0287   -0.5727   19.3691 C.ar    1  UNL1        0.0369
      3 C           2.8259   -1.1200   20.5158 C.ar    1  UNL1        0.0042
      4 C           2.7865   -0.4367   21.8504 C.ar    1  UNL1        0.0117
      5 C           1.9499    0.7941   22.0385 C.ar    1  UNL1       -0.0176
      6 C           1.1527    1.3415   20.8918 C.ar    1  UNL1        0.0327
      7 C           1.7704    1.6229   23.2758 C.3     1  UNL1        0.0330
      8 C           1.4547    2.5786   24.3880 C.3     1  UNL1        0.0157
      9 C           2.3831    1.4257   24.6306 C.3     1  UNL1        0.0938
     10 C           3.3267    0.3508   25.0828 C.3     1  UNL1        0.1148
     11 N           3.8906   -0.7922   24.2919 N.ar    1  UNL1       -0.3269
     12 C           3.6502   -1.1426   22.8533 C.ar    1  UNL1        0.0555
     13 C           4.4441   -2.3754   22.5376 C.ar    1  UNL1       -0.0053
     14 C           5.1752   -2.7869   23.7811 C.ar    1  UNL1        0.0132
     15 C           6.1084   -3.9263   24.0662 C.ar    1  UNL1        0.0013
     16 C           6.6993   -4.0871   25.4355 C.ar    1  UNL1        0.0046
     17 C           6.3572   -3.1085   26.5197 C.ar    1  UNL1        0.0563
     18 C           5.4241   -1.9692   26.2345 C.ar    1  UNL1        0.0217
     19 C           4.8331   -1.8083   24.8652 C.ar    1  UNL1        0.0597
     20 C           2.4847    1.9484   26.0329 C.2     1  UNL1        0.2268
     21 O           3.6568    2.7937   26.4351 O.2     1  UNL1       -0.2748
     22 N           1.4143    1.6259   27.0330 N.am    1  UNL1       -0.2800
     23 C           0.1902    0.7973   26.7779 C.3     1  UNL1        0.0913
     24 C          -0.6006    0.7347   28.0511 C.3     1  UNL1        0.0230
     25 C           0.1348    1.5246   29.0929 C.3     1  UNL1        0.0230
     26 C           1.3801    2.0753   28.4637 C.3     1  UNL1        0.0913
     27 C           2.5344    2.4879   27.5824 C.3     1  UNL1        0.0922
     28 N           2.4327    1.9652   26.1801 N.3     1  UNL1       -0.2687
     29 C           3.5031    2.2876   25.1799 C.3     1  UNL1        0.0897
     30 C           1.2606    1.1199   25.7779 C.3     1  UNL1        0.0922
     31 C           4.4976   -3.0742   21.2114 C.3     1  UNL1        0.0238
     32 C           3.6762   -4.3078   20.9800 C.3     1  UNL1        0.0044
     33 C           3.7297   -5.0066   19.6539 C.3     1  UNL1        0.0003
     34 C           4.6046   -4.4718   18.5590 C.3     1  UNL1        0.0000
     35 C           5.4260   -3.2382   18.7904 C.3     1  UNL1        0.0003
     36 C           5.3725   -2.5394   20.1167 C.3     1  UNL1        0.0044
     37 C           6.9481   -3.2693   27.8889 C.2     1  UNL1        0.2651
     38 O           6.8488   -2.1518   28.8846 O.2     1  UNL1       -0.2685
     39 N           7.6384   -4.5475   28.2626 N.am    1  UNL1       -0.1714
     40 H           7.7036   -5.2809   27.6091 H       1  UNL1        0.1779
     41 S           8.2293   -4.7083   29.6318 S.O2    1  UNL1        0.1154
     42 O           6.9396   -5.2992   30.1192 O.2     1  UNL1       -0.1378
     43 O           9.5191   -4.1175   29.1445 O.2     1  UNL1       -0.1378
     44 N           8.8204   -4.8691   31.0010 N.3     1  UNL1       -0.1398
     45 C           9.1595   -6.2367   31.5157 C.3     1  UNL1        0.1163
     46 C           9.0723   -3.6624   31.8556 C.3     1  UNL1        0.1163
     47 C           0.2654    2.6885   18.2273 C.3     1  UNL1        0.2525
     48 O           0.3949    1.2054   18.4104 O.3     1  UNL1       -0.4714
@<TRIPOS>BOND
     1    47    48    1
     2    48     1    1
     3     1     2   ar
     4     2     3   ar
     5     3     4   ar
     6     4     5   ar
     7     5     6   ar
     8     5     7    1
     9     7     8    1
    10     8     9    1
    11     9    20    1
    12    20    21    2
    13    20    22   am
    14    22    23    1
    15    23    24    1
    16    24    25    1
    17    25    26    1
    18    26    27    1
    19    27    28    1
    20    28    29    1
    21    28    30    1
    22     9    10    1
    23    10    11    1
    24    11    12   ar
    25    12    13   ar
    26    13    31    1
    27    31    32    1
    28    32    33    1
    29    33    34    1
    30    34    35    1
    31    35    36    1
    32    13    14   ar
    33    14    15   ar
    34    15    16   ar
    35    16    17   ar
    36    17    37    1
    37    37    38    2
    38    37    39   am
    39    39    41    1
    40    41    42    2
    41    41    43    2
    42    41    44    1
    43    44    45    1
    44    44    46    1
    45    17    18   ar
    46    18    19   ar
    47     6     1   ar
    48     9     7    1
    49    26    22    1
    50    19    11   ar
    51    12     4    1
    52    36    31    1
    53    19    14   ar
    54    30    23    1
    55    39    40    1
@<TRIPOS>MOLECULE
*****
 48 55 0 0 0
SMALL
GASTEIGER

@<TRIPOS>ATOM
      1 C           4.2452    0.1196   33.7883 C.ar    1  UNL1        0.1384
      2 C           5.3819   -0.7008   33.2545 C.ar    1  UNL1        0.0369
      3 C           5.4316   -1.0553   31.7978 C.ar    1  UNL1        0.0042
      4 C           4.3448   -0.5895   30.8750 C.ar    1  UNL1        0.0117
      5 C           3.2081    0.2309   31.4088 C.ar    1  UNL1       -0.0176
      6 C           3.1583    0.5855   32.8655 C.ar    1  UNL1        0.0327
      7 C           2.0312    0.7927   30.6675 C.3     1  UNL1        0.0330
      8 C           0.7907    1.4378   30.1244 C.3     1  UNL1        0.0157
      9 C           1.7004    0.6728   29.2094 C.3     1  UNL1        0.0938
     10 C           2.4648   -0.0385   28.1324 C.3     1  UNL1        0.1148
     11 N           3.7487   -0.8055   28.2475 N.ar    1  UNL1       -0.3269
     12 C           4.5854   -1.0507   29.4681 C.ar    1  UNL1        0.0555
     13 C           5.7711   -1.8735   29.0596 C.ar    1  UNL1       -0.0053
     14 C           5.6673   -2.1368   27.5866 C.ar    1  UNL1        0.0132
     15 C           6.5495   -2.8924   26.6373 C.ar    1  UNL1        0.0013
     16 C           6.1817   -2.9879   25.1863 C.ar    1  UNL1        0.0046
     17 C           4.9317   -2.3278   24.6844 C.ar    1  UNL1        0.0563
     18 C           4.0496   -1.5722   25.6335 C.ar    1  UNL1        0.0217
     19 C           4.4173   -1.4767   27.0847 C.ar    1  UNL1        0.0597
     20 C           0.7277    1.0324   28.1255 C.2     1  UNL1        0.2268
     21 O          -0.4602    0.1550   27.8625 O.2     1  UNL1       -0.2748
     22 N           0.9431    2.2692   27.3047 N.am    1  UNL1       -0.2800
     23 C           2.0788    3.2381   27.4513 C.3     1  UNL1        0.0913
     24 C           1.8980    4.3221   26.4303 C.3     1  UNL1        0.0230
     25 C           0.6505    4.0231   25.6527 C.3     1  UNL1        0.0230
     26 C           0.0604    2.7544   26.1932 C.3     1  UNL1        0.0913
     27 C          -0.2971    1.4834   26.9253 C.3     1  UNL1        0.0922
     28 N           0.6755    1.1239   28.0092 N.3     1  UNL1       -0.2687
     29 C           0.4603   -0.1130   28.8301 C.3     1  UNL1        0.0897
     30 C           1.8634    2.0012   28.2721 C.3     1  UNL1        0.0922
     31 C           6.8681   -2.3495   29.9651 C.3     1  UNL1        0.0238
     32 C           6.7190   -3.6443   30.7076 C.3     1  UNL1        0.0044
     33 C           7.8159   -4.1203   31.6131 C.3     1  UNL1        0.0003
     34 C           9.0622   -3.3015   31.7762 C.3     1  UNL1        0.0000
     35 C           9.2113   -2.0068   31.0337 C.3     1  UNL1        0.0003
     36 C           8.1143   -1.5307   30.1282 C.3     1  UNL1        0.0044
     37 C           4.5639   -2.4232   23.2334 C.2     1  UNL1        0.2651
     38 O           3.4023   -1.6377   22.7008 O.2     1  UNL1       -0.2685
     39 N           5.3577   -3.3042   22.3148 N.am    1  UNL1       -0.1714
     40 H           6.1201   -3.8198   22.6643 H       1  UNL1        0.1779
     41 S           4.9899   -3.3997   20.8637 S.O2    1  UNL1        0.1154
     42 O           5.7848   -2.1597   20.5805 O.2     1  UNL1       -0.1378
     43 O           4.1949   -4.6399   21.1469 O.2     1  UNL1       -0.1378
     44 N           4.6221   -3.4953   19.4127 N.3     1  UNL1       -0.1398
     45 C           3.4357   -4.3110   18.9918 C.3     1  UNL1        0.1163
     46 C           5.4408   -2.7753   18.3825 C.3     1  UNL1        0.1163
     47 C           5.1498   -0.1696   36.2065 C.3     1  UNL1        0.2525
     48 O           4.1954    0.4741   35.2449 O.3     1  UNL1       -0.4714
@<TRIPOS>BOND
     1    47    48    1
     2    48     1    1
     3     1     2   ar
     4     2     3   ar
     5     3     4   ar
     6     4     5   ar
     7     5     6   ar
     8     5     7    1
     9     7     8    1
    10     8     9    1
    11     9    20    1
    12    20    21    2
    13    20    22   am
    14    22    23    1
    15    23    24    1
    16    24    25    1
    17    25    26    1
    18    26    27    1
    19    27    28    1
    20    28    29    1
    21    28    30    1
    22     9    10    1
    23    10    11    1
    24    11    12   ar
    25    12    13   ar
    26    13    31    1
    27    31    32    1
    28    32    33    1
    29    33    34    1
    30    34    35    1
    31    35    36    1
    32    13    14   ar
    33    14    15   ar
    34    15    16   ar
    35    16    17   ar
    36    17    37    1
    37    37    38    2
    38    37    39   am
    39    39    41    1
    40    41    42    2
    41    41    43    2
    42    41    44    1
    43    44    45    1
    44    44    46    1
    45    17    18   ar
    46    18    19   ar
    47     6     1   ar
    48     9     7    1
    49    26    22    1
    50    19    11   ar
    51    12     4    1
    52    36    31    1
    53    19    14   ar
    54    30    23    1
    55    39    40    1
@<TRIPOS>MOLECULE
*****
 48 55 0 0 0
SMALL
GASTEIGER

@<TRIPOS>ATOM
      1 C          -1.3655    3.4923   23.0820 C.ar    1  UNL1        0.1384
      2 C          -0.4618    2.8077   22.0998 C.ar    1  UNL1        0.0369
      3 C           0.6122    1.8814   22.5882 C.ar    1  UNL1        0.0042
      4 C           0.7826    1.6399   24.0587 C.ar    1  UNL1        0.0117
      5 C          -0.1209    2.3245   25.0410 C.ar    1  UNL1       -0.0176
      6 C          -1.1951    3.2507   24.5526 C.ar    1  UNL1        0.0327
      7 C          -0.1226    2.2242   26.5376 C.3     1  UNL1        0.0330
      8 C          -0.2963    2.2675   28.0269 C.3     1  UNL1        0.0157
      9 C           0.7789    1.4146   27.4217 C.3     1  UNL1        0.0938
     10 C           1.9048    0.5052   27.0274 C.3     1  UNL1        0.1148
     11 N           2.4073    0.1808   25.6518 N.ar    1  UNL1       -0.3269
     12 C           1.9078    0.6858   24.3306 C.ar    1  UNL1        0.0555
     13 C           2.7433    0.0644   23.2510 C.ar    1  UNL1       -0.0053
     14 C           3.7592   -0.8246   23.9050 C.ar    1  UNL1        0.0132
     15 C           4.8466   -1.6905   23.3410 C.ar    1  UNL1        0.0013
     16 C           5.7262   -2.4843   24.2609 C.ar    1  UNL1        0.0046
     17 C           5.5184   -2.4123   25.7447 C.ar    1  UNL1        0.0563
     18 C           4.4311   -1.5465   26.3086 C.ar    1  UNL1        0.0217
     19 C           3.5514   -0.7526   25.3888 C.ar    1  UNL1        0.0597
     20 C           1.1176    1.0371   28.8334 C.2     1  UNL1        0.2268
     21 O           0.4374   -0.1327   29.4807 O.2     1  UNL1       -0.2748
     22 N           2.1366    1.8293   29.5976 N.am    1  UNL1       -0.2800
     23 C           2.8950    3.0176   29.0851 C.3     1  UNL1        0.0913
     24 C           3.8032    3.4950   30.1795 C.3     1  UNL1        0.0230
     25 C           3.6059    2.6017   31.3682 C.3     1  UNL1        0.0230
     26 C           2.5760    1.5723   31.0086 C.3     1  UNL1        0.0913
     27 C           1.5346    0.6782   30.3799 C.3     1  UNL1        0.0922
     28 N           1.1958    1.0557   28.9682 N.3     1  UNL1       -0.2687
     29 C           0.1769    0.2635   28.2039 C.3     1  UNL1        0.0897
     30 C           1.8761    2.2254   28.3209 C.3     1  UNL1        0.0922
     31 C           2.5901    0.2920   21.7763 C.3     1  UNL1        0.0238
     32 C           1.6236   -0.5392   20.9856 C.3     1  UNL1        0.0044
     33 C           1.4703   -0.3117   19.5110 C.3     1  UNL1        0.0003
     34 C           2.2834    0.7471   18.8269 C.3     1  UNL1        0.0000
     35 C           3.2498    1.5783   19.6176 C.3     1  UNL1        0.0003
     36 C           3.4032    1.3507   21.0923 C.3     1  UNL1        0.0044
     37 C           6.3980   -3.2061   26.6645 C.2     1  UNL1        0.2651
     38 O           7.8840   -3.0031   26.6419 O.2     1  UNL1       -0.2685
     39 N           5.7915   -4.2030   27.6072 N.am    1  UNL1       -0.1714
     40 H           4.8162   -4.3363   27.6220 H       1  UNL1        0.1779
     41 S           6.6710   -4.9969   28.5271 S.O2    1  UNL1        0.1154
     42 O           6.5362   -3.9321   29.5749 O.2     1  UNL1       -0.1378
     43 O           6.8058   -6.0617   27.4791 O.2     1  UNL1       -0.1378
     44 N           7.5505   -5.7908   29.4469 N.3     1  UNL1       -0.1398
     45 C           7.2870   -5.7889   30.9236 C.3     1  UNL1        0.1163
     46 C           8.6935   -6.5867   28.8901 C.3     1  UNL1        0.1163
     47 C          -3.7527    3.8641   22.1265 C.3     1  UNL1        0.2525
     48 O          -2.4395    4.4185   22.5936 O.3     1  UNL1       -0.4714
@<TRIPOS>BOND
     1    47    48    1
     2    48     1    1
     3     1     2   ar
     4     2     3   ar
     5     3     4   ar
     6     4     5   ar
     7     5     6   ar
     8     5     7    1
     9     7     8    1
    10     8     9    1
    11     9    20    1
    12    20    21    2
    13    20    22   am
    14    22    23    1
    15    23    24    1
    16    24    25    1
    17    25    26    1
    18    26    27    1
    19    27    28    1
    20    28    29    1
    21    28    30    1
    22     9    10    1
    23    10    11    1
    24    11    12   ar
    25    12    13   ar
    26    13    31    1
    27    31    32    1
    28    32    33    1
    29    33    34    1
    30    34    35    1
    31    35    36    1
    32    13    14   ar
    33    14    15   ar
    34    15    16   ar
    35    16    17   ar
    36    17    37    1
    37    37    38    2
    38    37    39   am
    39    39    41    1
    40    41    42    2
    41    41    43    2
    42    41    44    1
    43    44    45    1
    44    44    46    1
    45    17    18   ar
    46    18    19   ar
    47     6     1   ar
    48     9     7    1
    49    26    22    1
    50    19    11   ar
    51    12     4    1
    52    36    31    1
    53    19    14   ar
    54    30    23    1
    55    39    40    1
@<TRIPOS>MOLECULE
*****
 48 55 0 0 0
SMALL
GASTEIGER

@<TRIPOS>ATOM
      1 C          -1.0772    3.2338   20.9920 C.ar    1  UNL1        0.1384
      2 C          -0.9364    3.2965   22.4841 C.ar    1  UNL1        0.0369
      3 C           0.0885    2.4482   23.1770 C.ar    1  UNL1        0.0042
      4 C           0.9726    1.5374   22.3780 C.ar    1  UNL1        0.0117
      5 C           0.8319    1.4746   20.8859 C.ar    1  UNL1       -0.0176
      6 C          -0.1930    2.3228   20.1929 C.ar    1  UNL1        0.0327
      7 C           1.6058    0.6415   19.9077 C.3     1  UNL1        0.0330
      8 C           2.2522   -0.0953   18.7722 C.3     1  UNL1        0.0157
      9 C           2.7116   -0.3348   20.1799 C.3     1  UNL1        0.0938
     10 C           3.3166   -0.7189   21.4977 C.3     1  UNL1        0.1148
     11 N           2.9653   -0.2218   22.8686 N.ar    1  UNL1       -0.3269
     12 C           1.9221    0.7824   23.2603 C.ar    1  UNL1        0.0555
     13 C           1.9634    0.9359   24.7518 C.ar    1  UNL1       -0.0053
     14 C           3.0322    0.0266   25.2819 C.ar    1  UNL1        0.0132
     15 C           3.5217   -0.2423   26.6741 C.ar    1  UNL1        0.0013
     16 C           4.6302   -1.2267   26.9023 C.ar    1  UNL1        0.0046
     17 C           5.2494   -1.9421   25.7384 C.ar    1  UNL1        0.0563
     18 C           4.7600   -1.6732   24.3462 C.ar    1  UNL1        0.0217
     19 C           3.6513   -0.6888   24.1179 C.ar    1  UNL1        0.0597
     20 C           3.6862   -1.3031   19.5777 C.2     1  UNL1        0.2268
     21 O           3.2983   -2.7403   19.3928 O.2     1  UNL1       -0.2748
     22 N           5.0485   -0.8343   19.1606 N.am    1  UNL1       -0.2800
     23 C           5.5753    0.5648   19.2830 C.3     1  UNL1        0.0913
     24 C           6.9758    0.5814   18.7457 C.3     1  UNL1        0.0230
     25 C           7.3144   -0.8074   18.2913 C.3     1  UNL1        0.0230
     26 C           6.1234   -1.6823   18.5477 C.3     1  UNL1        0.0913
     27 C           4.7996   -2.3095   18.9130 C.3     1  UNL1        0.0922
     28 N           3.8250   -1.3411   19.5152 N.3     1  UNL1       -0.2687
     29 C           2.4626   -1.8099   19.9325 C.3     1  UNL1        0.0897
     30 C           4.2129    0.0960   19.7002 C.3     1  UNL1        0.0922
     31 C           1.0896    1.8399   25.5698 C.3     1  UNL1        0.0238
     32 C          -0.2300    1.3444   26.0830 C.3     1  UNL1        0.0044
     33 C          -1.1039    2.2483   26.9009 C.3     1  UNL1        0.0003
     34 C          -0.6584    3.6478   27.2057 C.3     1  UNL1        0.0000
     35 C           0.6611    4.1433   26.6925 C.3     1  UNL1        0.0003
     36 C           1.5351    3.2394   25.8745 C.3     1  UNL1        0.0044
     37 C           6.3579   -2.9265   25.9665 C.2     1  UNL1        0.2651
     38 O           7.5753   -2.5186   26.7422 O.2     1  UNL1       -0.2685
     39 N           6.2492   -4.3188   25.4191 N.am    1  UNL1       -0.1714
     40 H           5.4502   -4.5865   24.9100 H       1  UNL1        0.1779
     41 S           7.3577   -5.3032   25.6472 S.O2    1  UNL1        0.1154
     42 O           8.0306   -4.8369   24.3904 O.2     1  UNL1       -0.1378
     43 O           6.6847   -5.7696   26.9041 O.2     1  UNL1       -0.1378
     44 N           8.4661   -6.2877   25.8755 N.3     1  UNL1       -0.1398
     45 C           9.5220   -6.0035   26.9023 C.3     1  UNL1        0.1163
     46 C           8.5187   -7.5563   25.0768 C.3     1  UNL1        0.1163
     47 C          -3.4909    3.5567   20.0869 C.3     1  UNL1        0.2525
     48 O          -2.1020    4.0819   20.2991 O.3     1  UNL1       -0.4714
@<TRIPOS>BOND
     1    47    48    1
     2    48     1    1
     3     1     2   ar
     4     2     3   ar
     5     3     4   ar
     6     4     5   ar
     7     5     6   ar
     8     5     7    1
     9     7     8    1
    10     8     9    1
    11     9    20    1
    12    20    21    2
    13    20    22   am
    14    22    23    1
    15    23    24    1
    16    24    25    1
    17    25    26    1
    18    26    27    1
    19    27    28    1
    20    28    29    1
    21    28    30    1
    22     9    10    1
    23    10    11    1
    24    11    12   ar
    25    12    13   ar
    26    13    31    1
    27    31    32    1
    28    32    33    1
    29    33    34    1
    30    34    35    1
    31    35    36    1
    32    13    14   ar
    33    14    15   ar
    34    15    16   ar
    35    16    17   ar
    36    17    37    1
    37    37    38    2
    38    37    39   am
    39    39    41    1
    40    41    42    2
    41    41    43    2
    42    41    44    1
    43    44    45    1
    44    44    46    1
    45    17    18   ar
    46    18    19   ar
    47     6     1   ar
    48     9     7    1
    49    26    22    1
    50    19    11   ar
    51    12     4    1
    52    36    31    1
    53    19    14   ar
    54    30    23    1
    55    39    40    1
@<TRIPOS>MOLECULE
*****
 48 55 0 0 0
SMALL
GASTEIGER

@<TRIPOS>ATOM
      1 C          -4.0753    5.1741   17.9751 C.ar    1  UNL1        0.1384
      2 C          -4.8716    5.2913   19.2409 C.ar    1  UNL1        0.0369
      3 C          -4.2701    4.8655   20.5474 C.ar    1  UNL1        0.0042
      4 C          -2.8725    4.3227   20.5881 C.ar    1  UNL1        0.0117
      5 C          -2.0761    4.2055   19.3224 C.ar    1  UNL1       -0.0176
      6 C          -2.6775    4.6312   18.0158 C.ar    1  UNL1        0.0327
      7 C          -0.6772    3.6952   19.1413 C.3     1  UNL1        0.0330
      8 C           0.6915    3.2290   18.7425 C.3     1  UNL1        0.0157
      9 C           0.2708    3.1761   20.1813 C.3     1  UNL1        0.0938
     10 C           0.0541    3.0391   21.6593 C.3     1  UNL1        0.1148
     11 N          -1.1640    3.3872   22.4623 N.ar    1  UNL1       -0.3269
     12 C          -2.4665    3.9585   21.9855 C.ar    1  UNL1        0.0555
     13 C          -3.3631    4.1253   23.1764 C.ar    1  UNL1       -0.0053
     14 C          -2.6147    3.6572   24.3892 C.ar    1  UNL1        0.0132
     15 C          -2.9952    3.5873   25.8385 C.ar    1  UNL1        0.0013
     16 C          -2.0166    3.0612   26.8463 C.ar    1  UNL1        0.0046
     17 C          -0.6575    2.6051   26.4049 C.ar    1  UNL1        0.0563
     18 C          -0.2770    2.6749   24.9556 C.ar    1  UNL1        0.0217
     19 C          -1.2556    3.2010   23.9477 C.ar    1  UNL1        0.0597
     20 C           1.6362    2.6127   20.4430 C.2     1  UNL1        0.2268
     21 O           2.7719    3.5292   20.7896 O.2     1  UNL1       -0.2748
     22 N           1.8657    1.1328   20.3581 N.am    1  UNL1       -0.2800
     23 C           0.8325    0.0981   20.0240 C.3     1  UNL1        0.0913
     24 C           1.4972   -1.2464   20.0518 C.3     1  UNL1        0.0230
     25 C           2.9412   -1.0425   20.4030 C.3     1  UNL1        0.0230
     26 C           3.1689    0.4279   20.5922 C.3     1  UNL1        0.0913
     27 C           3.1040    1.9311   20.7172 C.3     1  UNL1        0.0922
     28 N           1.7387    2.4945   20.4556 N.3     1  UNL1       -0.2687
     29 C           1.5090    3.9744   20.5405 C.3     1  UNL1        0.0897
     30 C           0.6029    1.5779   20.1090 C.3     1  UNL1        0.0922
     31 C          -4.7623    4.6655   23.1580 C.3     1  UNL1        0.0238
     32 C          -5.0034    6.1308   23.3697 C.3     1  UNL1        0.0044
     33 C          -6.4025    6.6710   23.3513 C.3     1  UNL1        0.0003
     34 C          -7.5607    5.7459   23.1210 C.3     1  UNL1        0.0000
     35 C          -7.3196    4.2807   22.9093 C.3     1  UNL1        0.0003
     36 C          -5.9204    3.7404   22.9277 C.3     1  UNL1        0.0044
     37 C           0.3210    2.0790   27.4126 C.2     1  UNL1        0.2651
     38 O           1.7590    1.8858   27.0318 O.2     1  UNL1       -0.2685
     39 N          -0.1383    1.7462   28.8013 N.am    1  UNL1       -0.1714
     40 H          -1.0820    1.8731   29.0512 H       1  UNL1        0.1779
     41 S           0.8402    1.2202   29.8091 S.O2    1  UNL1        0.1154
     42 O           0.4404   -0.1839   29.4646 O.2     1  UNL1       -0.1378
     43 O           1.2401    2.6243   30.1536 O.2     1  UNL1       -0.1378
     44 N           1.8187    0.6943   30.8170 N.3     1  UNL1       -0.1398
     45 C           2.5521   -0.5872   30.5525 C.3     1  UNL1        0.1163
     46 C           2.0639    1.4498   32.0894 C.3     1  UNL1        0.1163
     47 C          -6.1674    5.6376   16.5061 C.3     1  UNL1        0.2525
     48 O          -4.6767    5.5998   16.6686 O.3     1  UNL1       -0.4714
@<TRIPOS>BOND
     1    47    48    1
     2    48     1    1
     3     1     2   ar
     4     2     3   ar
     5     3     4   ar
     6     4     5   ar
     7     5     6   ar
     8     5     7    1
     9     7     8    1
    10     8     9    1
    11     9    20    1
    12    20    21    2
    13    20    22   am
    14    22    23    1
    15    23    24    1
    16    24    25    1
    17    25    26    1
    18    26    27    1
    19    27    28    1
    20    28    29    1
    21    28    30    1
    22     9    10    1
    23    10    11    1
    24    11    12   ar
    25    12    13   ar
    26    13    31    1
    27    31    32    1
    28    32    33    1
    29    33    34    1
    30    34    35    1
    31    35    36    1
    32    13    14   ar
    33    14    15   ar
    34    15    16   ar
    35    16    17   ar
    36    17    37    1
    37    37    38    2
    38    37    39   am
    39    39    41    1
    40    41    42    2
    41    41    43    2
    42    41    44    1
    43    44    45    1
    44    44    46    1
    45    17    18   ar
    46    18    19   ar
    47     6     1   ar
    48     9     7    1
    49    26    22    1
    50    19    11   ar
    51    12     4    1
    52    36    31    1
    53    19    14   ar
    54    30    23    1
    55    39    40    1
@<TRIPOS>MOLECULE
*****
 48 55 0 0 0
SMALL
GASTEIGER

@<TRIPOS>ATOM
      1 C           7.1975   -2.8108   30.9916 C.ar    1  UNL1        0.1384
      2 C           7.5996   -3.5483   29.7488 C.ar    1  UNL1        0.0369
      3 C           6.9456   -3.2226   28.4387 C.ar    1  UNL1        0.0042
      4 C           5.8896   -2.1596   28.3715 C.ar    1  UNL1        0.0117
      5 C           5.4874   -1.4221   29.6142 C.ar    1  UNL1       -0.0176
      6 C           6.1414   -1.7477   30.9243 C.ar    1  UNL1        0.0327
      7 C           4.4648   -0.3355   29.7674 C.3     1  UNL1        0.0330
      8 C           3.4985    0.7504   30.1375 C.3     1  UNL1        0.0157
      9 C           3.5917    0.2821   28.7156 C.3     1  UNL1        0.0938
     10 C           3.5256   -0.0345   27.2508 C.3     1  UNL1        0.1148
     11 N           4.3163   -1.0468   26.4761 N.ar    1  UNL1       -0.3269
     12 C           5.3683   -1.9925   26.9749 C.ar    1  UNL1        0.0555
     13 C           5.8573   -2.7989   25.8084 C.ar    1  UNL1       -0.0053
     14 C           5.1075   -2.3514   24.5888 C.ar    1  UNL1        0.0132
     15 C           5.1689   -2.7902   23.1556 C.ar    1  UNL1        0.0013
     16 C           4.2779   -2.1461   22.1352 C.ar    1  UNL1        0.0046
     17 C           3.3255   -1.0632   22.5480 C.ar    1  UNL1        0.0563
     18 C           3.2640   -0.6245   23.9810 C.ar    1  UNL1        0.0217
     19 C           4.1551   -1.2686   25.0015 C.ar    1  UNL1        0.0597
     20 C           2.5257    1.2979   28.4294 C.2     1  UNL1        0.2268
     21 O           2.9063    2.7025   28.0658 O.2     1  UNL1       -0.2748
     22 N           1.0790    0.9089   28.5067 N.am    1  UNL1       -0.2800
     23 C           0.5488   -0.4502   28.8557 C.3     1  UNL1        0.0913
     24 C          -0.9493   -0.3881   28.8133 C.3     1  UNL1        0.0230
     25 C          -1.3450    1.0094   28.4382 C.3     1  UNL1        0.0230
     26 C          -0.0914    1.8109   28.2487 C.3     1  UNL1        0.0913
     27 C           1.3101    2.3592   28.1285 C.3     1  UNL1        0.0922
     28 N           2.3761    1.3434   28.4148 N.3     1  UNL1       -0.2687
     29 C           3.8228    1.7322   28.3374 C.3     1  UNL1        0.0897
     30 C           1.9955   -0.0612   28.7783 C.3     1  UNL1        0.0922
     31 C           6.9111   -3.8653   25.8536 C.3     1  UNL1        0.0238
     32 C           8.3355   -3.5267   25.5270 C.3     1  UNL1        0.0044
     33 C           9.3892   -4.5930   25.5721 C.3     1  UNL1        0.0003
     34 C           9.0188   -5.9983   25.9439 C.3     1  UNL1        0.0000
     35 C           7.5945   -6.3370   26.2705 C.3     1  UNL1        0.0003
     36 C           6.5407   -5.2705   26.2253 C.3     1  UNL1        0.0044
     37 C           2.4345   -0.4191   21.5276 C.2     1  UNL1        0.2651
     38 O           2.0293   -1.1787   20.2993 O.2     1  UNL1       -0.2685
     39 N           1.9485    0.9848   21.7355 N.am    1  UNL1       -0.1714
     40 H           2.2145    1.4833   22.5417 H       1  UNL1        0.1779
     41 S           1.0575    1.6290   20.7152 S.O2    1  UNL1        0.1154
     42 O           2.2641    2.1184   19.9704 O.2     1  UNL1       -0.1378
     43 O          -0.1491    1.1396   21.4600 O.2     1  UNL1       -0.1378
     44 N           0.1665    2.2732   19.6950 N.3     1  UNL1       -0.1398
     45 C           0.5838    2.3161   18.2548 C.3     1  UNL1        0.1163
     46 C          -1.1420    2.8745   20.1148 C.3     1  UNL1        0.1163
     47 C           8.9535   -2.2648   32.8269 C.3     1  UNL1        0.2525
     48 O           7.8515   -3.1365   32.3016 O.3     1  UNL1       -0.4714
@<TRIPOS>BOND
     1    47    48    1
     2    48     1    1
     3     1     2   ar
     4     2     3   ar
     5     3     4   ar
     6     4     5   ar
     7     5     6   ar
     8     5     7    1
     9     7     8    1
    10     8     9    1
    11     9    20    1
    12    20    21    2
    13    20    22   am
    14    22    23    1
    15    23    24    1
    16    24    25    1
    17    25    26    1
    18    26    27    1
    19    27    28    1
    20    28    29    1
    21    28    30    1
    22     9    10    1
    23    10    11    1
    24    11    12   ar
    25    12    13   ar
    26    13    31    1
    27    31    32    1
    28    32    33    1
    29    33    34    1
    30    34    35    1
    31    35    36    1
    32    13    14   ar
    33    14    15   ar
    34    15    16   ar
    35    16    17   ar
    36    17    37    1
    37    37    38    2
    38    37    39   am
    39    39    41    1
    40    41    42    2
    41    41    43    2
    42    41    44    1
    43    44    45    1
    44    44    46    1
    45    17    18   ar
    46    18    19   ar
    47     6     1   ar
    48     9     7    1
    49    26    22    1
    50    19    11   ar
    51    12     4    1
    52    36    31    1
    53    19    14   ar
    54    30    23    1
    55    39    40    1
@<TRIPOS>MOLECULE
*****
 48 55 0 0 0
SMALL
GASTEIGER

@<TRIPOS>ATOM
      1 C           7.5169   -3.6730   27.2932 C.ar    1  UNL1        0.1384
      2 C           6.6155   -2.6652   27.9426 C.ar    1  UNL1        0.0369
      3 C           5.5865   -1.9424   27.1248 C.ar    1  UNL1        0.0042
      4 C           5.4589   -2.2274   25.6578 C.ar    1  UNL1        0.0117
      5 C           6.3603   -3.2352   25.0083 C.ar    1  UNL1       -0.0176
      6 C           7.3894   -3.9581   25.8261 C.ar    1  UNL1        0.0327
      7 C           6.4004   -3.6660   23.5720 C.3     1  UNL1        0.0330
      8 C           6.6070   -4.2329   22.1988 C.3     1  UNL1        0.0157
      9 C           5.5488   -3.1953   22.4304 C.3     1  UNL1        0.0938
     10 C           4.4469   -2.1776   22.4432 C.3     1  UNL1        0.1148
     11 N           3.9244   -1.3793   23.6006 N.ar    1  UNL1       -0.3269
     12 C           4.3748   -1.4015   25.0312 C.ar    1  UNL1        0.0555
     13 C           3.5369   -0.4204   25.7963 C.ar    1  UNL1       -0.0053
     14 C           2.5686    0.2081   24.8385 C.ar    1  UNL1        0.0132
     15 C           1.4997    1.2436   25.0266 C.ar    1  UNL1        0.0013
     16 C           0.6703    1.6863   23.8578 C.ar    1  UNL1        0.0046
     17 C           0.9099    1.0937   22.5008 C.ar    1  UNL1        0.0563
     18 C           1.9787    0.0583   22.3127 C.ar    1  UNL1        0.0217
     19 C           2.8081   -0.3846   23.4815 C.ar    1  UNL1        0.0597
     20 C           5.2565   -3.3283   20.9652 C.2     1  UNL1        0.2268
     21 O           4.2308   -4.3150   20.4915 O.2     1  UNL1       -0.2748
     22 N           5.9900   -2.4744   19.9737 N.am    1  UNL1       -0.2800
     23 C           7.0366   -1.4497   20.2966 C.3     1  UNL1        0.0913
     24 C           7.4990   -0.8374   19.0076 C.3     1  UNL1        0.0230
     25 C           6.7381   -1.4839   17.8881 C.3     1  UNL1        0.0230
     26 C           5.8055   -2.4956   18.4852 C.3     1  UNL1        0.0913
     27 C           4.9852   -3.4231   19.3491 C.3     1  UNL1        0.0922
     28 N           5.2775   -3.2902   20.8143 N.3     1  UNL1       -0.2687
     29 C           4.5441   -4.1440   21.8059 C.3     1  UNL1        0.0897
     30 C           6.3032   -2.3035   21.2880 C.3     1  UNL1        0.0922
     31 C           3.6477   -0.1204   27.2617 C.3     1  UNL1        0.0238
     32 C           4.6210    0.9141   27.7440 C.3     1  UNL1        0.0044
     33 C           4.7319    1.2141   29.2094 C.3     1  UNL1        0.0003
     34 C           3.8695    0.4797   30.1927 C.3     1  UNL1        0.0000
     35 C           2.8962   -0.5548   29.7105 C.3     1  UNL1        0.0003
     36 C           2.7853   -0.8548   28.2450 C.3     1  UNL1        0.0044
     37 C           0.0805    1.5364   21.3320 C.2     1  UNL1        0.2651
     38 O          -0.1206    0.6170   20.1640 O.2     1  UNL1       -0.2685
     39 N          -0.5478    2.8985   21.3312 N.am    1  UNL1       -0.1714
     40 H          -0.4157    3.5019   22.0978 H       1  UNL1        0.1779
     41 S          -1.3771    3.3413   20.1624 S.O2    1  UNL1        0.1154
     42 O          -2.5998    2.7630   20.8108 O.2     1  UNL1       -0.1378
     43 O          -0.1543    3.9197   19.5140 O.2     1  UNL1       -0.1378
     44 N          -2.2064    3.7842   18.9936 N.3     1  UNL1       -0.1398
     45 C          -3.6961    3.8949   19.1300 C.3     1  UNL1        0.1163
     46 C          -1.5460    4.1163   17.6885 C.3     1  UNL1        0.1163
     47 C           8.1745   -5.6496   28.8458 C.3     1  UNL1        0.2525
     48 O           8.5459   -4.3958   28.1110 O.3     1  UNL1       -0.4714
@<TRIPOS>BOND
     1    47    48    1
     2    48     1    1
     3     1     2   ar
     4     2     3   ar
     5     3     4   ar
     6     4     5   ar
     7     5     6   ar
     8     5     7    1
     9     7     8    1
    10     8     9    1
    11     9    20    1
    12    20    21    2
    13    20    22   am
    14    22    23    1
    15    23    24    1
    16    24    25    1
    17    25    26    1
    18    26    27    1
    19    27    28    1
    20    28    29    1
    21    28    30    1
    22     9    10    1
    23    10    11    1
    24    11    12   ar
    25    12    13   ar
    26    13    31    1
    27    31    32    1
    28    32    33    1
    29    33    34    1
    30    34    35    1
    31    35    36    1
    32    13    14   ar
    33    14    15   ar
    34    15    16   ar
    35    16    17   ar
    36    17    37    1
    37    37    38    2
    38    37    39   am
    39    39    41    1
    40    41    42    2
    41    41    43    2
    42    41    44    1
    43    44    45    1
    44    44    46    1
    45    17    18   ar
    46    18    19   ar
    47     6     1   ar
    48     9     7    1
    49    26    22    1
    50    19    11   ar
    51    12     4    1
    52    36    31    1
    53    19    14   ar
    54    30    23    1
    55    39    40    1
