@<TRIPOS>MOLECULE
*****
 31 33 0 0 0
SMALL
GASTEIGER

@<TRIPOS>ATOM
      1 C          -5.3134  -17.4913   22.7479 C.ar    1  UNL1        0.0824
      2 C          -4.7198  -16.5544   23.7578 C.ar    1  UNL1        0.0191
      3 C          -5.5993  -15.8999   24.7815 C.ar    1  UNL1        0.0015
      4 C          -7.0724  -16.1822   24.7953 C.ar    1  UNL1        0.0001
      5 C          -7.6660  -17.1191   23.7854 C.ar    1  UNL1        0.0015
      6 C          -6.7865  -17.7736   22.7617 C.ar    1  UNL1        0.0191
      7 C          -5.8401  -20.3855   21.3352 C.3     1  UNL1        0.0522
      8 C          -4.6760  -19.4761   21.0748 C.ar    1  UNL1        0.0625
      9 C          -3.5496  -19.7375   20.1194 C.ar    1  UNL1        0.0402
     10 C          -2.6113  -18.5686   20.1781 C.ar    1  UNL1        0.1553
     11 N          -3.1578  -17.5849   21.1699 N.ar    1  UNL1       -0.1608
     12 N          -4.4339  -18.1458   21.7241 N.ar    1  UNL1       -0.2336
     13 C          -1.3482  -18.4111   19.3845 C.2     1  UNL1        0.2623
     14 N          -1.3893  -17.7707   18.0287 N.am    1  UNL1       -0.3240
     15 O          -0.0441  -18.8940   19.9466 O.2     1  UNL1       -0.2687
     16 H          -2.2453  -17.4537   17.6597 H       1  UNL1        0.1453
     17 H          -0.5603  -17.6673   17.5078 H       1  UNL1        0.1453
     18 C          -9.1392  -17.4014   23.7992 C.ar    1  UNL1        0.0039
     19 C          -9.7044  -18.3891   24.7764 C.ar    1  UNL1       -0.0001
     20 C         -11.1775  -18.6714   24.7902 C.ar    1  UNL1        0.0038
     21 C         -12.0854  -17.9661   23.8269 C.ar    1  UNL1        0.0714
     22 C         -11.5202  -16.9784   22.8497 C.ar    1  UNL1        0.0077
     23 C         -10.0471  -16.6960   22.8359 C.ar    1  UNL1        0.0714
     24 C         -13.5586  -18.2484   23.8407 C.3     1  UNL1        0.4186
     25 F         -15.0317  -18.5307   23.8545 F       1  UNL1       -0.1659
     26 F         -13.4899  -18.5346   25.3115 F       1  UNL1       -0.1659
     27 F         -13.6272  -17.9621   22.3698 F       1  UNL1       -0.1659
     28 C          -9.4819  -15.7083   21.8586 C.3     1  UNL1        0.4186
     29 F          -8.9167  -14.7206   20.8814 F       1  UNL1       -0.1659
     30 F          -8.9420  -14.8923   22.9955 F       1  UNL1       -0.1659
     31 F         -10.0218  -16.5242   20.7217 F       1  UNL1       -0.1659
@<TRIPOS>BOND
     1     7     8    1
     2     8     9   ar
     3     9    10   ar
     4    10    13    1
     5    13    14   am
     6    13    15    2
     7    10    11   ar
     8    11    12   ar
     9    12     1    1
    10     1     2   ar
    11     2     3   ar
    12     3     4   ar
    13     4     5   ar
    14     5    18    1
    15    18    19   ar
    16    19    20   ar
    17    20    21   ar
    18    21    24    1
    19    24    25    1
    20    24    26    1
    21    24    27    1
    22    21    22   ar
    23    22    23   ar
    24    23    28    1
    25    28    29    1
    26    28    30    1
    27    28    31    1
    28     5     6   ar
    29    12     8   ar
    30     6     1   ar
    31    23    18   ar
    32    14    16    1
    33    14    17    1
@<TRIPOS>MOLECULE
*****
 31 33 0 0 0
SMALL
GASTEIGER

@<TRIPOS>ATOM
      1 C          -8.1467  -18.6721   21.9361 C.ar    1  UNL1        0.0824
      2 C          -8.3452  -20.0129   22.5786 C.ar    1  UNL1        0.0191
      3 C          -7.1682  -20.9114   22.8179 C.ar    1  UNL1        0.0015
      4 C          -5.7928  -20.4693   22.4145 C.ar    1  UNL1        0.0001
      5 C          -5.5943  -19.1285   21.7720 C.ar    1  UNL1        0.0015
      6 C          -6.7713  -18.2299   21.5327 C.ar    1  UNL1        0.0191
      7 C         -10.2678  -17.6469   24.1943 C.3     1  UNL1        0.0522
      8 C         -10.2986  -17.3022   22.7348 C.ar    1  UNL1        0.0625
      9 C         -11.3098  -16.4258   22.0570 C.ar    1  UNL1        0.0402
     10 C         -10.9598  -16.3554   20.6001 C.ar    1  UNL1        0.1553
     11 N          -9.7323  -17.1883   20.3775 N.ar    1  UNL1       -0.1608
     12 N          -9.3237  -17.7735   21.6968 N.ar    1  UNL1       -0.2336
     13 C         -11.7063  -15.5870   19.5502 C.2     1  UNL1        0.2623
     14 N         -13.2056  -15.6216   19.5192 N.am    1  UNL1       -0.3240
     15 O         -10.9534  -14.7840   18.5312 O.2     1  UNL1       -0.2687
     16 H         -13.6997  -16.1487   20.1880 H       1  UNL1        0.1453
     17 H         -13.6955  -15.1173   18.8301 H       1  UNL1        0.1453
     18 C          -4.2189  -18.6863   21.3686 C.ar    1  UNL1        0.0039
     19 C          -3.6310  -19.1547   20.0706 C.ar    1  UNL1       -0.0001
     20 C          -2.2556  -18.7126   19.6673 C.ar    1  UNL1        0.0038
     21 C          -1.4680  -17.8020   20.5620 C.ar    1  UNL1        0.0714
     22 C          -2.0559  -17.3336   21.8600 C.ar    1  UNL1        0.0077
     23 C          -3.4313  -17.7758   22.2634 C.ar    1  UNL1        0.0714
     24 C          -0.0926  -17.3598   20.1587 C.3     1  UNL1        0.4186
     25 F           1.2828  -16.9177   19.7553 F       1  UNL1       -0.1659
     26 F          -0.4146  -15.9610   20.5941 F       1  UNL1       -0.1659
     27 F           0.2294  -18.7587   19.7232 F       1  UNL1       -0.1659
     28 C          -4.0192  -17.3073   23.5615 C.3     1  UNL1        0.4186
     29 F          -4.6070  -16.8389   24.8596 F       1  UNL1       -0.1659
     30 F          -4.4742  -16.0411   22.8985 F       1  UNL1       -0.1659
     31 F          -3.5642  -18.5736   24.2244 F       1  UNL1       -0.1659
@<TRIPOS>BOND
     1     7     8    1
     2     8     9   ar
     3     9    10   ar
     4    10    13    1
     5    13    14   am
     6    13    15    2
     7    10    11   ar
     8    11    12   ar
     9    12     1    1
    10     1     2   ar
    11     2     3   ar
    12     3     4   ar
    13     4     5   ar
    14     5    18    1
    15    18    19   ar
    16    19    20   ar
    17    20    21   ar
    18    21    24    1
    19    24    25    1
    20    24    26    1
    21    24    27    1
    22    21    22   ar
    23    22    23   ar
    24    23    28    1
    25    28    29    1
    26    28    30    1
    27    28    31    1
    28     5     6   ar
    29    12     8   ar
    30     6     1   ar
    31    23    18   ar
    32    14    16    1
    33    14    17    1
@<TRIPOS>MOLECULE
*****
 31 33 0 0 0
SMALL
GASTEIGER

@<TRIPOS>ATOM
      1 C          -5.5285  -17.5499   22.6150 C.ar    1  UNL1        0.0824
      2 C          -4.9965  -16.6454   23.6868 C.ar    1  UNL1        0.0191
      3 C          -5.9394  -15.9927   24.6536 C.ar    1  UNL1        0.0015
      4 C          -7.4144  -16.2445   24.5485 C.ar    1  UNL1        0.0001
      5 C          -7.9464  -17.1490   23.4767 C.ar    1  UNL1        0.0015
      6 C          -7.0034  -17.8017   22.5099 C.ar    1  UNL1        0.0191
      7 C          -5.8801  -20.5149   21.2976 C.3     1  UNL1        0.0522
      8 C          -4.7471  -19.5655   21.0426 C.ar    1  UNL1        0.0625
      9 C          -3.5768  -19.8123   20.1373 C.ar    1  UNL1        0.0402
     10 C          -2.6919  -18.6019   20.1833 C.ar    1  UNL1        0.1553
     11 N          -3.3153  -17.6072   21.1170 N.ar    1  UNL1       -0.1608
     12 N          -4.5855  -18.2027   21.6481 N.ar    1  UNL1       -0.2336
     13 C          -1.4088  -18.4186   19.4282 C.2     1  UNL1        0.2623
     14 N          -1.4148  -17.7306   18.0953 N.am    1  UNL1       -0.3240
     15 O          -0.1199  -18.9234   20.0060 O.2     1  UNL1       -0.2687
     16 H          -2.2608  -17.3993   17.7161 H       1  UNL1        0.1453
     17 H          -0.5727  -17.6102   17.5997 H       1  UNL1        0.1453
     18 C          -9.4214  -17.4008   23.3717 C.ar    1  UNL1        0.0039
     19 C         -10.3719  -16.2475   23.2437 C.ar    1  UNL1       -0.0001
     20 C         -11.8469  -16.4992   23.1386 C.ar    1  UNL1        0.0038
     21 C         -12.3714  -17.9043   23.1616 C.ar    1  UNL1        0.0714
     22 C         -11.4209  -19.0576   23.2896 C.ar    1  UNL1        0.0077
     23 C          -9.9459  -18.8059   23.3946 C.ar    1  UNL1        0.0714
     24 C         -13.8464  -18.1561   23.0565 C.3     1  UNL1        0.4186
     25 F         -15.3213  -18.4079   22.9515 F       1  UNL1       -0.1659
     26 F         -13.9399  -18.2321   24.5517 F       1  UNL1       -0.1659
     27 F         -13.7529  -18.0801   21.5614 F       1  UNL1       -0.1659
     28 C          -8.9954  -19.9593   23.5227 C.3     1  UNL1        0.4186
     29 F          -8.0450  -21.1126   23.6506 F       1  UNL1       -0.1659
     30 F          -9.1375  -19.9108   25.0151 F       1  UNL1       -0.1659
     31 F          -8.8534  -20.0078   22.0302 F       1  UNL1       -0.1659
@<TRIPOS>BOND
     1     7     8    1
     2     8     9   ar
     3     9    10   ar
     4    10    13    1
     5    13    14   am
     6    13    15    2
     7    10    11   ar
     8    11    12   ar
     9    12     1    1
    10     1     2   ar
    11     2     3   ar
    12     3     4   ar
    13     4     5   ar
    14     5    18    1
    15    18    19   ar
    16    19    20   ar
    17    20    21   ar
    18    21    24    1
    19    24    25    1
    20    24    26    1
    21    24    27    1
    22    21    22   ar
    23    22    23   ar
    24    23    28    1
    25    28    29    1
    26    28    30    1
    27    28    31    1
    28     5     6   ar
    29    12     8   ar
    30     6     1   ar
    31    23    18   ar
    32    14    16    1
    33    14    17    1
@<TRIPOS>MOLECULE
*****
 31 33 0 0 0
SMALL
GASTEIGER

@<TRIPOS>ATOM
      1 C          -6.7766  -19.2125   19.8797 C.ar    1  UNL1        0.0824
      2 C          -7.1840  -19.7325   18.5331 C.ar    1  UNL1        0.0191
      3 C          -8.6294  -20.0073   18.2411 C.ar    1  UNL1        0.0015
      4 C          -9.6674  -19.7622   19.2959 C.ar    1  UNL1        0.0001
      5 C          -9.2600  -19.2422   20.6425 C.ar    1  UNL1        0.0015
      6 C          -7.8146  -18.9673   20.9345 C.ar    1  UNL1        0.0191
      7 C          -5.1747  -20.0530   22.5958 C.3     1  UNL1        0.0522
      8 C          -4.5949  -19.3239   21.4202 C.ar    1  UNL1        0.0625
      9 C          -3.1770  -18.8532   21.2866 C.ar    1  UNL1        0.0402
     10 C          -3.0369  -18.1759   19.9555 C.ar    1  UNL1        0.1553
     11 N          -4.3683  -18.2280   19.2665 N.ar    1  UNL1       -0.1608
     12 N          -5.3312  -18.9376   20.1717 N.ar    1  UNL1       -0.2336
     13 C          -1.7852  -17.5554   19.4093 C.2     1  UNL1        0.2623
     14 N          -1.4284  -17.7347   17.9635 N.am    1  UNL1       -0.3240
     15 O          -0.8904  -16.7556   20.3091 O.2     1  UNL1       -0.2687
     16 H          -2.0158  -18.2596   17.3729 H       1  UNL1        0.1453
     17 H          -0.6069  -17.3274   17.6050 H       1  UNL1        0.1453
     18 C         -10.2980  -18.9971   21.6973 C.ar    1  UNL1        0.0039
     19 C         -10.4583  -19.9657   22.8312 C.ar    1  UNL1       -0.0001
     20 C         -11.4963  -19.7206   23.8860 C.ar    1  UNL1        0.0038
     21 C         -12.3740  -18.5068   23.8067 C.ar    1  UNL1        0.0714
     22 C         -12.2137  -17.5382   22.6728 C.ar    1  UNL1        0.0077
     23 C         -11.1757  -17.7833   21.6180 C.ar    1  UNL1        0.0714
     24 C         -13.4120  -18.2617   24.8615 C.3     1  UNL1        0.4186
     25 F         -14.4500  -18.0166   25.9162 F       1  UNL1       -0.1659
     26 F         -12.6667  -19.1599   25.8037 F       1  UNL1       -0.1659
     27 F         -14.1573  -17.3634   23.9193 F       1  UNL1       -0.1659
     28 C         -11.0154  -16.8145   20.4840 C.3     1  UNL1        0.4186
     29 F         -10.8552  -15.8459   19.3500 F       1  UNL1       -0.1659
     30 F         -10.0327  -16.0252   21.2971 F       1  UNL1       -0.1659
     31 F         -11.9981  -17.6038   19.6709 F       1  UNL1       -0.1659
@<TRIPOS>BOND
     1     7     8    1
     2     8     9   ar
     3     9    10   ar
     4    10    13    1
     5    13    14   am
     6    13    15    2
     7    10    11   ar
     8    11    12   ar
     9    12     1    1
    10     1     2   ar
    11     2     3   ar
    12     3     4   ar
    13     4     5   ar
    14     5    18    1
    15    18    19   ar
    16    19    20   ar
    17    20    21   ar
    18    21    24    1
    19    24    25    1
    20    24    26    1
    21    24    27    1
    22    21    22   ar
    23    22    23   ar
    24    23    28    1
    25    28    29    1
    26    28    30    1
    27    28    31    1
    28     5     6   ar
    29    12     8   ar
    30     6     1   ar
    31    23    18   ar
    32    14    16    1
    33    14    17    1
@<TRIPOS>MOLECULE
*****
 31 33 0 0 0
SMALL
GASTEIGER

@<TRIPOS>ATOM
      1 C          -7.8945  -16.6288   23.9211 C.ar    1  UNL1        0.0824
      2 C          -7.7041  -15.9080   25.2228 C.ar    1  UNL1        0.0191
      3 C          -6.3268  -15.5140   25.6673 C.ar    1  UNL1        0.0015
      4 C          -5.1398  -15.8407   24.8103 C.ar    1  UNL1        0.0001
      5 C          -5.3303  -16.5614   23.5087 C.ar    1  UNL1        0.0015
      6 C          -6.7076  -16.9555   23.0641 C.ar    1  UNL1        0.0191
      7 C          -9.8920  -18.6944   25.4680 C.3     1  UNL1        0.0522
      8 C         -10.1900  -17.9723   24.1875 C.ar    1  UNL1        0.0625
      9 C         -11.4584  -18.0729   23.3932 C.ar    1  UNL1        0.0402
     10 C         -11.3242  -17.1855   22.1912 C.ar    1  UNL1        0.1553
     11 N          -9.9729  -16.5366   22.2427 N.ar    1  UNL1       -0.1608
     12 N          -9.2719  -17.0228   23.4765 N.ar    1  UNL1       -0.2336
     13 C         -12.3596  -16.9827   21.1250 C.2     1  UNL1        0.2623
     14 N         -12.0663  -16.0918   19.9545 N.am    1  UNL1       -0.3240
     15 O         -13.6884  -17.6709   21.2294 O.2     1  UNL1       -0.2687
     16 H         -11.1942  -15.6401   19.8860 H       1  UNL1        0.1453
     17 H         -12.7459  -15.9587   19.2547 H       1  UNL1        0.1453
     18 C          -4.1433  -16.8881   22.6516 C.ar    1  UNL1        0.0039
     19 C          -3.0507  -15.8772   22.4668 C.ar    1  UNL1       -0.0001
     20 C          -1.8638  -16.2039   21.6097 C.ar    1  UNL1        0.0038
     21 C          -1.7695  -17.5415   20.9376 C.ar    1  UNL1        0.0714
     22 C          -2.8621  -18.5524   21.1224 C.ar    1  UNL1        0.0077
     23 C          -4.0490  -18.2257   21.9795 C.ar    1  UNL1        0.0714
     24 C          -0.5826  -17.8682   20.0805 C.3     1  UNL1        0.4186
     25 F           0.6043  -18.1949   19.2235 F       1  UNL1       -0.1659
     26 F          -1.0533  -19.2881   19.9700 F       1  UNL1       -0.1659
     27 F          -0.1119  -16.4483   20.1911 F       1  UNL1       -0.1659
     28 C          -5.1417  -19.2367   22.1643 C.3     1  UNL1        0.4186
     29 F          -6.2343  -20.2476   22.3491 F       1  UNL1       -0.1659
     30 F          -4.4187  -19.8011   23.3512 F       1  UNL1       -0.1659
     31 F          -5.8646  -18.6723   20.9774 F       1  UNL1       -0.1659
@<TRIPOS>BOND
     1     7     8    1
     2     8     9   ar
     3     9    10   ar
     4    10    13    1
     5    13    14   am
     6    13    15    2
     7    10    11   ar
     8    11    12   ar
     9    12     1    1
    10     1     2   ar
    11     2     3   ar
    12     3     4   ar
    13     4     5   ar
    14     5    18    1
    15    18    19   ar
    16    19    20   ar
    17    20    21   ar
    18    21    24    1
    19    24    25    1
    20    24    26    1
    21    24    27    1
    22    21    22   ar
    23    22    23   ar
    24    23    28    1
    25    28    29    1
    26    28    30    1
    27    28    31    1
    28     5     6   ar
    29    12     8   ar
    30     6     1   ar
    31    23    18   ar
    32    14    16    1
    33    14    17    1
@<TRIPOS>MOLECULE
*****
 31 33 0 0 0
SMALL
GASTEIGER

@<TRIPOS>ATOM
      1 C          -4.8948  -17.1691   22.8540 C.ar    1  UNL1        0.0824
      2 C          -4.5024  -16.1610   23.8930 C.ar    1  UNL1        0.0191
      3 C          -5.5591  -15.4560   24.6907 C.ar    1  UNL1        0.0015
      4 C          -7.0082  -15.7592   24.4494 C.ar    1  UNL1        0.0001
      5 C          -7.4006  -16.7673   23.4103 C.ar    1  UNL1        0.0015
      6 C          -6.3439  -17.4722   22.6126 C.ar    1  UNL1        0.0191
      7 C          -4.7285  -20.3820   22.3067 C.3     1  UNL1        0.0522
      8 C          -3.7617  -19.3508   21.8046 C.ar    1  UNL1        0.0625
      9 C          -2.5486  -19.6155   20.9629 C.ar    1  UNL1        0.0402
     10 C          -1.8754  -18.3022   20.6942 C.ar    1  UNL1        0.1553
     11 N          -2.6723  -17.2260   21.3699 N.ar    1  UNL1       -0.1608
     12 N          -3.8381  -17.8741   22.0562 N.ar    1  UNL1       -0.2336
     13 C          -0.6248  -18.1007   19.8908 C.2     1  UNL1        0.2623
     14 N          -0.7165  -17.7664   18.4314 N.am    1  UNL1       -0.3240
     15 O           0.7176  -18.2334   20.5469 O.2     1  UNL1       -0.2687
     16 H          -1.5976  -17.6793   18.0008 H       1  UNL1        0.1453
     17 H           0.1043  -17.6341   17.9042 H       1  UNL1        0.1453
     18 C          -8.8497  -17.0705   23.1690 C.ar    1  UNL1        0.0039
     19 C          -9.3945  -17.0648   21.7715 C.ar    1  UNL1       -0.0001
     20 C         -10.8436  -17.3680   21.5302 C.ar    1  UNL1        0.0038
     21 C         -11.7478  -17.6768   22.6863 C.ar    1  UNL1        0.0714
     22 C         -11.2030  -17.6825   24.0839 C.ar    1  UNL1        0.0077
     23 C          -9.7540  -17.3794   24.3252 C.ar    1  UNL1        0.0714
     24 C         -13.1969  -17.9800   22.4450 C.3     1  UNL1        0.4186
     25 F         -14.6460  -18.2832   22.2037 F       1  UNL1       -0.1659
     26 F         -12.9619  -17.9248   20.9646 F       1  UNL1       -0.1659
     27 F         -13.4319  -18.0352   23.9254 F       1  UNL1       -0.1659
     28 C          -9.2092  -17.3851   25.7228 C.3     1  UNL1        0.4186
     29 F          -8.6644  -17.3908   27.1203 F       1  UNL1       -0.1659
     30 F          -9.2442  -15.8856   25.7427 F       1  UNL1       -0.1659
     31 F          -9.1741  -18.8845   25.7030 F       1  UNL1       -0.1659
@<TRIPOS>BOND
     1     7     8    1
     2     8     9   ar
     3     9    10   ar
     4    10    13    1
     5    13    14   am
     6    13    15    2
     7    10    11   ar
     8    11    12   ar
     9    12     1    1
    10     1     2   ar
    11     2     3   ar
    12     3     4   ar
    13     4     5   ar
    14     5    18    1
    15    18    19   ar
    16    19    20   ar
    17    20    21   ar
    18    21    24    1
    19    24    25    1
    20    24    26    1
    21    24    27    1
    22    21    22   ar
    23    22    23   ar
    24    23    28    1
    25    28    29    1
    26    28    30    1
    27    28    31    1
    28     5     6   ar
    29    12     8   ar
    30     6     1   ar
    31    23    18   ar
    32    14    16    1
    33    14    17    1
@<TRIPOS>MOLECULE
*****
 31 33 0 0 0
SMALL
GASTEIGER

@<TRIPOS>ATOM
      1 C           0.4338    3.2734   18.5278 C.ar    1  UNL1        0.0824
      2 C           1.4048    4.4123   18.4273 C.ar    1  UNL1        0.0191
      3 C           2.8790    4.1392   18.3828 C.ar    1  UNL1        0.0015
      4 C           3.3823    2.7273   18.4388 C.ar    1  UNL1        0.0001
      5 C           2.4113    1.5884   18.5392 C.ar    1  UNL1        0.0015
      6 C           0.9371    1.8615   18.5837 C.ar    1  UNL1        0.0191
      7 C          -1.3886    4.3748   16.0548 C.3     1  UNL1        0.0522
      8 C          -1.8781    4.0527   17.4356 C.ar    1  UNL1        0.0625
      9 C          -3.2913    4.1803   17.9221 C.ar    1  UNL1        0.0402
     10 C          -3.3271    3.7529   19.3595 C.ar    1  UNL1        0.1553
     11 N          -1.9360    3.3612   19.7613 N.ar    1  UNL1       -0.1608
     12 N          -1.0405    3.5465   18.5723 N.ar    1  UNL1       -0.2336
     13 C          -4.5408    3.7225   20.2404 C.2     1  UNL1        0.2623
     14 N          -4.6964    2.6389   21.2659 N.am    1  UNL1       -0.3240
     15 O          -5.5989    4.7758   20.0958 O.2     1  UNL1       -0.2687
     16 H          -4.0019    1.9476   21.3607 H       1  UNL1        0.1453
     17 H          -5.4930    2.6190   21.8440 H       1  UNL1        0.1453
     18 C           2.9146    0.1764   18.5952 C.ar    1  UNL1        0.0039
     19 C           3.7189   -0.3787   17.4574 C.ar    1  UNL1       -0.0001
     20 C           4.2222   -1.7907   17.5133 C.ar    1  UNL1        0.0038
     21 C           3.9211   -2.6475   18.7071 C.ar    1  UNL1        0.0714
     22 C           3.1167   -2.0923   19.8450 C.ar    1  UNL1        0.0077
     23 C           2.6135   -0.6803   19.7890 C.ar    1  UNL1        0.0714
     24 C           4.4243   -4.0594   18.7631 C.3     1  UNL1        0.4186
     25 F           4.9276   -5.4714   18.8190 F       1  UNL1       -0.1659
     26 F           3.0438   -4.5380   19.1022 F       1  UNL1       -0.1659
     27 F           5.8049   -3.5808   18.4239 F       1  UNL1       -0.1659
     28 C           1.8091   -0.1252   20.9270 C.3     1  UNL1        0.4186
     29 F           1.0047    0.4299   22.0648 F       1  UNL1       -0.1659
     30 F           3.0298    0.5725   21.4495 F       1  UNL1       -0.1659
     31 F           0.5884   -0.8228   20.4044 F       1  UNL1       -0.1659
@<TRIPOS>BOND
     1     7     8    1
     2     8     9   ar
     3     9    10   ar
     4    10    13    1
     5    13    14   am
     6    13    15    2
     7    10    11   ar
     8    11    12   ar
     9    12     1    1
    10     1     2   ar
    11     2     3   ar
    12     3     4   ar
    13     4     5   ar
    14     5    18    1
    15    18    19   ar
    16    19    20   ar
    17    20    21   ar
    18    21    24    1
    19    24    25    1
    20    24    26    1
    21    24    27    1
    22    21    22   ar
    23    22    23   ar
    24    23    28    1
    25    28    29    1
    26    28    30    1
    27    28    31    1
    28     5     6   ar
    29    12     8   ar
    30     6     1   ar
    31    23    18   ar
    32    14    16    1
    33    14    17    1
@<TRIPOS>MOLECULE
*****
 31 33 0 0 0
SMALL
GASTEIGER

@<TRIPOS>ATOM
      1 C           7.7943   -4.5776   22.6090 C.ar    1  UNL1        0.0824
      2 C           9.0256   -4.4980   21.7562 C.ar    1  UNL1        0.0191
      3 C           9.0204   -3.6676   20.5071 C.ar    1  UNL1        0.0015
      4 C           7.7838   -2.9168   20.1107 C.ar    1  UNL1        0.0001
      5 C           6.5524   -2.9964   20.9635 C.ar    1  UNL1        0.0015
      6 C           6.5576   -3.8268   22.2127 C.ar    1  UNL1        0.0191
      7 C           9.0550   -7.5719   22.9168 C.3     1  UNL1        0.0522
      8 C           8.3789   -6.7843   23.9997 C.ar    1  UNL1        0.0625
      9 C           8.1637   -7.2347   25.4141 C.ar    1  UNL1        0.0402
     10 C           7.4511   -6.1368   26.1469 C.ar    1  UNL1        0.1553
     11 N           7.2260   -5.0078   25.1853 N.ar    1  UNL1       -0.1608
     12 N           7.7994   -5.4080   23.8582 N.ar    1  UNL1       -0.2336
     13 C           7.0365   -6.1632   27.5882 C.2     1  UNL1        0.2623
     14 N           5.7119   -5.5912   27.9982 N.am    1  UNL1       -0.3240
     15 O           7.9466   -6.7617   28.6195 O.2     1  UNL1       -0.2687
     16 H           5.1146   -5.1984   27.3213 H       1  UNL1        0.1453
     17 H           5.4397   -5.6085   28.9442 H       1  UNL1        0.1453
     18 C           5.3158   -2.2456   20.5672 C.ar    1  UNL1        0.0039
     19 C           5.0930   -0.8495   21.0684 C.ar    1  UNL1       -0.0001
     20 C           3.8564   -0.0987   20.6721 C.ar    1  UNL1        0.0038
     21 C           2.8426   -0.7440   19.7745 C.ar    1  UNL1        0.0714
     22 C           3.0653   -2.1401   19.2733 C.ar    1  UNL1        0.0077
     23 C           4.3019   -2.8909   19.6696 C.ar    1  UNL1        0.0714
     24 C           1.6059    0.0068   19.3782 C.3     1  UNL1        0.4186
     25 F           0.3693    0.7576   18.9818 F       1  UNL1       -0.1659
     26 F           0.7767   -0.9111   20.2267 F       1  UNL1       -0.1659
     27 F           2.4351    0.9246   18.5297 F       1  UNL1       -0.1659
     28 C           4.5247   -4.2871   19.1683 C.3     1  UNL1        0.4186
     29 F           4.7474   -5.6831   18.6670 F       1  UNL1       -0.1659
     30 F           3.7744   -4.8304   20.3481 F       1  UNL1       -0.1659
     31 F           5.2750   -3.7437   17.9886 F       1  UNL1       -0.1659
@<TRIPOS>BOND
     1     7     8    1
     2     8     9   ar
     3     9    10   ar
     4    10    13    1
     5    13    14   am
     6    13    15    2
     7    10    11   ar
     8    11    12   ar
     9    12     1    1
    10     1     2   ar
    11     2     3   ar
    12     3     4   ar
    13     4     5   ar
    14     5    18    1
    15    18    19   ar
    16    19    20   ar
    17    20    21   ar
    18    21    24    1
    19    24    25    1
    20    24    26    1
    21    24    27    1
    22    21    22   ar
    23    22    23   ar
    24    23    28    1
    25    28    29    1
    26    28    30    1
    27    28    31    1
    28     5     6   ar
    29    12     8   ar
    30     6     1   ar
    31    23    18   ar
    32    14    16    1
    33    14    17    1
@<TRIPOS>MOLECULE
*****
 31 33 0 0 0
SMALL
GASTEIGER

@<TRIPOS>ATOM
      1 C           1.9060    1.5098   24.3118 C.ar    1  UNL1        0.0824
      2 C           2.2929    2.8529   23.7675 C.ar    1  UNL1        0.0191
      3 C           3.0274    2.9503   22.4633 C.ar    1  UNL1        0.0015
      4 C           3.3751    1.7047   21.7034 C.ar    1  UNL1        0.0001
      5 C           2.9882    0.3615   22.2477 C.ar    1  UNL1        0.0015
      6 C           2.2536    0.2641   23.5519 C.ar    1  UNL1        0.0191
      7 C          -1.1198    2.5845   24.8943 C.3     1  UNL1        0.0522
      8 C          -0.2193    1.9063   25.8838 C.ar    1  UNL1        0.0625
      9 C          -0.5515    1.6030   27.3147 C.ar    1  UNL1        0.0402
     10 C           0.6340    0.9216   27.9314 C.ar    1  UNL1        0.1553
     11 N           1.6988    0.8037   26.8816 N.ar    1  UNL1       -0.1608
     12 N           1.1715    1.4123   25.6161 N.ar    1  UNL1       -0.2336
     13 C           0.7365    0.4422   29.3490 C.2     1  UNL1        0.2623
     14 N           1.7251   -0.6269   29.7096 N.am    1  UNL1       -0.3240
     15 O          -0.1494    1.0318   30.4061 O.2     1  UNL1       -0.2687
     16 H           2.3065   -1.0139   29.0158 H       1  UNL1        0.1453
     17 H           1.7924   -0.9415   30.6400 H       1  UNL1        0.1453
     18 C           3.3358   -0.8841   21.4879 C.ar    1  UNL1        0.0039
     19 C           4.3729   -1.8254   22.0248 C.ar    1  UNL1       -0.0001
     20 C           4.7205   -3.0711   21.2649 C.ar    1  UNL1        0.0038
     21 C           4.0310   -3.3755   19.9681 C.ar    1  UNL1        0.0714
     22 C           2.9938   -2.4343   19.4311 C.ar    1  UNL1        0.0077
     23 C           2.6462   -1.1886   20.1910 C.ar    1  UNL1        0.0714
     24 C           4.3786   -4.6212   19.2082 C.3     1  UNL1        0.4186
     25 F           4.7262   -5.8669   18.4483 F       1  UNL1       -0.1659
     26 F           3.4525   -5.4132   20.0828 F       1  UNL1       -0.1659
     27 F           5.3047   -3.8292   18.3335 F       1  UNL1       -0.1659
     28 C           1.6090   -0.2473   19.6540 C.3     1  UNL1        0.4186
     29 F           0.5718    0.6939   19.1171 F       1  UNL1       -0.1659
     30 F           2.6480    0.4054   18.7913 F       1  UNL1       -0.1659
     31 F           0.5700   -0.9001   20.5168 F       1  UNL1       -0.1659
@<TRIPOS>BOND
     1     7     8    1
     2     8     9   ar
     3     9    10   ar
     4    10    13    1
     5    13    14   am
     6    13    15    2
     7    10    11   ar
     8    11    12   ar
     9    12     1    1
    10     1     2   ar
    11     2     3   ar
    12     3     4   ar
    13     4     5   ar
    14     5    18    1
    15    18    19   ar
    16    19    20   ar
    17    20    21   ar
    18    21    24    1
    19    24    25    1
    20    24    26    1
    21    24    27    1
    22    21    22   ar
    23    22    23   ar
    24    23    28    1
    25    28    29    1
    26    28    30    1
    27    28    31    1
    28     5     6   ar
    29    12     8   ar
    30     6     1   ar
    31    23    18   ar
    32    14    16    1
    33    14    17    1
