@<TRIPOS>MOLECULE
*****
 29 32 0 0 0
SMALL
GASTEIGER

@<TRIPOS>ATOM
      1 C          -5.0848  -18.5633   21.4858 C.3     1  UNL1        0.1406
      2 C          -6.2209  -19.0523   20.6374 C.3     1  UNL1        0.0375
      3 C          -7.6358  -18.7436   21.0282 C.3     1  UNL1        0.0430
      4 C          -8.7720  -19.2326   20.1797 C.3     1  UNL1        0.0921
      5 S         -10.1869  -18.9240   20.5705 S.3     1  UNL1       -0.0787
      6 C         -10.4656  -18.1262   21.8098 C.2     1  UNL1        0.1483
      7 N         -11.8806  -17.8175   22.2006 N.pl3   1  UNL1       -0.3380
      8 N          -9.3295  -17.6372   22.6583 N.2     1  UNL1       -0.2484
      9 C          -7.9145  -17.9459   22.2675 C.3     1  UNL1        0.1352
     10 C          -6.7784  -17.4568   23.1160 C.3     1  UNL1        0.1690
     11 O          -5.3635  -17.7655   22.7252 O.3     1  UNL1       -0.3494
     12 H         -12.6263  -18.1385   21.6437 H       1  UNL1        0.1442
     13 H         -12.0635  -17.2940   23.0141 H       1  UNL1        0.1442
     14 C          -8.1932  -17.1481   23.5068 C.ar    1  UNL1        0.0278
     15 C          -8.6210  -17.8429   24.7656 C.ar    1  UNL1        0.0021
     16 C          -8.8998  -17.0452   26.0049 C.ar    1  UNL1        0.0295
     17 C          -8.7507  -15.5527   25.9855 C.ar    1  UNL1        0.1424
     18 F          -9.0294  -14.7549   27.2248 F       1  UNL1       -0.2041
     19 C          -8.3229  -14.8580   24.7268 C.ar    1  UNL1        0.0590
     20 C          -8.0442  -15.6557   23.4875 C.ar    1  UNL1        0.1402
     21 F          -7.6164  -14.9610   22.2288 F       1  UNL1       -0.2044
     22 C          -0.1331  -18.0429   19.7277 C.3     1  UNL1        0.1537
     23 N          -1.3937  -18.6327   20.2869 N.ar    1  UNL1       -0.2476
     24 C          -2.6784  -17.8978   20.5308 C.ar    1  UNL1        0.0947
     25 C          -3.6698  -18.8719   21.0950 C.ar    1  UNL1        0.0442
     26 C          -2.9978  -20.2089   21.1998 C.ar    1  UNL1        0.1197
     27 N          -1.5911  -20.0611   20.7004 N.ar    1  UNL1       -0.1679
     28 C          -8.4933  -20.0304   18.9404 C.3     1  UNL1        0.2044
     29 F          -9.6291  -20.5131   18.0879 F       1  UNL1       -0.2334
@<TRIPOS>BOND
     1    22    23    1
     2    23    24   ar
     3    24    25   ar
     4     1    25    1
     5     1     2    1
     6     3     2    1
     7     3     4    1
     8     4    28    1
     9    28    29    1
    10     4     5    1
    11     5     6    1
    12     6     7    1
    13     6     8    2
    14     8     9    1
    15     9    14    1
    16    14    15   ar
    17    15    16   ar
    18    16    17   ar
    19    17    18    1
    20    17    19   ar
    21    19    20   ar
    22    20    21    1
    23     9    10    1
    24    10    11    1
    25    25    26   ar
    26    26    27   ar
    27    27    23   ar
    28    11     1    1
    29     9     3    1
    30    20    14   ar
    31     7    12    1
    32     7    13    1
@<TRIPOS>MOLECULE
*****
 29 32 0 0 0
SMALL
GASTEIGER

@<TRIPOS>ATOM
      1 C         -17.9468   -3.4218   20.0379 C.3     1  UNL1        0.1406
      2 C         -16.4475   -3.4267   20.0849 C.3     1  UNL1        0.0375
      3 C         -15.6903   -4.6736   19.7360 C.3     1  UNL1        0.0430
      4 C         -14.1910   -4.6785   19.7830 C.3     1  UNL1        0.0921
      5 S         -13.4338   -5.9254   19.4340 S.3     1  UNL1       -0.0787
      6 C         -14.1758   -7.1674   19.0381 C.2     1  UNL1        0.1483
      7 N         -13.4185   -8.4144   18.6891 N.pl3   1  UNL1       -0.3380
      8 N         -15.6751   -7.1626   18.9911 N.2     1  UNL1       -0.2484
      9 C         -16.4324   -5.9156   19.3400 C.3     1  UNL1        0.1352
     10 C         -17.9316   -5.9107   19.2930 C.3     1  UNL1        0.1690
     11 O         -18.6888   -4.6638   19.6420 O.3     1  UNL1       -0.3494
     12 H         -12.4345   -8.4176   18.7199 H       1  UNL1        0.1442
     13 H         -13.9055   -9.2296   18.4292 H       1  UNL1        0.1442
     14 C         -17.1744   -7.1576   18.9441 C.ar    1  UNL1        0.0278
     15 C         -17.6219   -8.1308   19.9942 C.ar    1  UNL1        0.0021
     16 C         -18.3639   -9.3728   19.5983 C.ar    1  UNL1        0.0295
     17 C         -18.6584   -9.6417   18.1522 C.ar    1  UNL1        0.1424
     18 F         -19.4004  -10.8837   17.7562 F       1  UNL1       -0.2041
     19 C         -18.2109   -8.6685   17.1021 C.ar    1  UNL1        0.0590
     20 C         -17.4689   -7.4265   17.4981 C.ar    1  UNL1        0.1402
     21 F         -17.0214   -6.4533   16.4480 F       1  UNL1       -0.2044
     22 C         -19.2429    1.6597   20.6542 C.3     1  UNL1        0.1537
     23 N         -19.2998    0.1609   20.6701 N.ar    1  UNL1       -0.2476
     24 C         -18.2276   -0.7674   20.1815 C.ar    1  UNL1        0.0947
     25 C         -18.7041   -2.1748   20.3869 C.ar    1  UNL1        0.0442
     26 C         -20.0706   -2.1164   21.0025 C.ar    1  UNL1        0.1197
     27 N         -20.4388   -0.6729   21.1776 N.ar    1  UNL1       -0.1679
     28 C         -13.4490   -3.4365   20.1789 C.3     1  UNL1        0.2044
     29 F         -13.5251   -2.9353   21.5906 F       1  UNL1       -0.2334
@<TRIPOS>BOND
     1    22    23    1
     2    23    24   ar
     3    24    25   ar
     4     1    25    1
     5     1     2    1
     6     3     2    1
     7     3     4    1
     8     4    28    1
     9    28    29    1
    10     4     5    1
    11     5     6    1
    12     6     7    1
    13     6     8    2
    14     8     9    1
    15     9    14    1
    16    14    15   ar
    17    15    16   ar
    18    16    17   ar
    19    17    18    1
    20    17    19   ar
    21    19    20   ar
    22    20    21    1
    23     9    10    1
    24    10    11    1
    25    25    26   ar
    26    26    27   ar
    27    27    23   ar
    28    11     1    1
    29     9     3    1
    30    20    14   ar
    31     7    12    1
    32     7    13    1
@<TRIPOS>MOLECULE
*****
 29 32 0 0 0
SMALL
GASTEIGER

@<TRIPOS>ATOM
      1 C         -13.4921   -1.5701   17.7576 C.3     1  UNL1        0.1406
      2 C         -12.3935   -2.5253   18.1186 C.3     1  UNL1        0.0375
      3 C         -12.7031   -3.9767   18.3364 C.3     1  UNL1        0.0430
      4 C         -11.6044   -4.9321   18.6974 C.3     1  UNL1        0.0921
      5 S         -11.9141   -6.3835   18.9152 S.3     1  UNL1       -0.0787
      6 C         -13.3224   -6.8797   18.7719 C.2     1  UNL1        0.1483
      7 N         -13.6320   -8.3312   18.9897 N.pl3   1  UNL1       -0.3380
      8 N         -14.4210   -5.9244   18.4109 N.2     1  UNL1       -0.2484
      9 C         -14.1114   -4.4729   18.1931 C.3     1  UNL1        0.1352
     10 C         -15.2101   -3.5176   17.8321 C.3     1  UNL1        0.1690
     11 O         -14.9004   -2.0662   17.6143 O.3     1  UNL1       -0.3494
     12 H         -12.9109   -8.9581   19.2266 H       1  UNL1        0.1442
     13 H         -14.5563   -8.6568   18.8956 H       1  UNL1        0.1442
     14 C         -15.5197   -4.9690   18.0498 C.ar    1  UNL1        0.0278
     15 C         -16.0080   -5.4670   16.7218 C.ar    1  UNL1        0.0021
     16 C         -17.4163   -5.9631   16.5785 C.ar    1  UNL1        0.0295
     17 C         -18.3363   -5.9613   17.7633 C.ar    1  UNL1        0.1424
     18 F         -19.7446   -6.4575   17.6200 F       1  UNL1       -0.2041
     19 C         -17.8480   -5.4634   19.0913 C.ar    1  UNL1        0.0590
     20 C         -16.4397   -4.9672   19.2345 C.ar    1  UNL1        0.1402
     21 F         -15.9514   -4.4693   20.5625 F       1  UNL1       -0.2044
     22 C         -14.0475    3.6399   17.1024 C.3     1  UNL1        0.1537
     23 N         -13.4378    2.2762   17.2387 N.ar    1  UNL1       -0.2476
     24 C         -14.1844    0.9954   17.4667 C.ar    1  UNL1        0.0947
     25 C         -13.1825   -0.1185   17.5398 C.ar    1  UNL1        0.0442
     26 C         -11.8166    0.4738   17.3569 C.ar    1  UNL1        0.1197
     27 N         -11.9744    1.9539   17.1708 N.ar    1  UNL1       -0.1679
     28 C         -10.1961   -4.4359   18.8407 C.3     1  UNL1        0.2044
     29 F          -9.1615   -5.2965   19.5032 F       1  UNL1       -0.2334
@<TRIPOS>BOND
     1    22    23    1
     2    23    24   ar
     3    24    25   ar
     4     1    25    1
     5     1     2    1
     6     3     2    1
     7     3     4    1
     8     4    28    1
     9    28    29    1
    10     4     5    1
    11     5     6    1
    12     6     7    1
    13     6     8    2
    14     8     9    1
    15     9    14    1
    16    14    15   ar
    17    15    16   ar
    18    16    17   ar
    19    17    18    1
    20    17    19   ar
    21    19    20   ar
    22    20    21    1
    23     9    10    1
    24    10    11    1
    25    25    26   ar
    26    26    27   ar
    27    27    23   ar
    28    11     1    1
    29     9     3    1
    30    20    14   ar
    31     7    12    1
    32     7    13    1
@<TRIPOS>MOLECULE
*****
 29 32 0 0 0
SMALL
GASTEIGER

@<TRIPOS>ATOM
      1 C           3.1698   -0.2560   23.3927 C.3     1  UNL1        0.1406
      2 C           3.7396   -1.3858   22.5873 C.3     1  UNL1        0.0375
      3 C           3.7294   -1.3185   21.0889 C.3     1  UNL1        0.0430
      4 C           4.2992   -2.4485   20.2835 C.3     1  UNL1        0.0921
      5 S           4.2889   -2.3812   18.7850 S.3     1  UNL1       -0.0787
      6 C           3.7089   -1.1840   18.0920 C.2     1  UNL1        0.1483
      7 N           3.6986   -1.1168   16.5935 N.pl3   1  UNL1       -0.3380
      8 N           3.1391   -0.0541   18.8974 N.2     1  UNL1       -0.2484
      9 C           3.1493   -0.1214   20.3959 C.3     1  UNL1        0.1352
     10 C           2.5795    1.0085   21.2012 C.3     1  UNL1        0.1690
     11 O           2.5898    0.9412   22.6997 O.3     1  UNL1       -0.3494
     12 H           4.0726   -1.8583   16.0649 H       1  UNL1        0.1442
     13 H           3.3179   -0.3310   16.1386 H       1  UNL1        0.1442
     14 C           2.5692    1.0758   19.7028 C.ar    1  UNL1        0.0278
     15 C           3.4528    2.2311   19.3357 C.ar    1  UNL1        0.0021
     16 C           2.8727    3.4282   18.6426 C.ar    1  UNL1        0.0295
     17 C           1.4091    3.4701   18.3167 C.ar    1  UNL1        0.1424
     18 F           0.8291    4.6673   17.6236 F       1  UNL1       -0.2041
     19 C           0.5256    2.3149   18.6839 C.ar    1  UNL1        0.0590
     20 C           1.1057    1.1177   19.3769 C.ar    1  UNL1        0.1402
     21 F           0.2222   -0.0375   19.7441 F       1  UNL1       -0.2044
     22 C           2.2568    0.8459   28.4754 C.3     1  UNL1        0.1537
     23 N           2.7604    0.1833   27.2275 N.ar    1  UNL1       -0.2476
     24 C           2.4816    0.6242   25.8211 C.ar    1  UNL1        0.0947
     25 C           3.1801   -0.3232   24.8912 C.ar    1  UNL1        0.0442
     26 C           3.8905   -1.3496   25.7229 C.ar    1  UNL1        0.1197
     27 N           3.6312   -1.0366   27.1668 N.ar    1  UNL1       -0.1679
     28 C           4.8792   -3.6456   20.9765 C.3     1  UNL1        0.2044
     29 F           3.9792   -4.6017   21.7016 F       1  UNL1       -0.2334
@<TRIPOS>BOND
     1    22    23    1
     2    23    24   ar
     3    24    25   ar
     4     1    25    1
     5     1     2    1
     6     3     2    1
     7     3     4    1
     8     4    28    1
     9    28    29    1
    10     4     5    1
    11     5     6    1
    12     6     7    1
    13     6     8    2
    14     8     9    1
    15     9    14    1
    16    14    15   ar
    17    15    16   ar
    18    16    17   ar
    19    17    18    1
    20    17    19   ar
    21    19    20   ar
    22    20    21    1
    23     9    10    1
    24    10    11    1
    25    25    26   ar
    26    26    27   ar
    27    27    23   ar
    28    11     1    1
    29     9     3    1
    30    20    14   ar
    31     7    12    1
    32     7    13    1
@<TRIPOS>MOLECULE
*****
 29 32 0 0 0
SMALL
GASTEIGER

@<TRIPOS>ATOM
      1 C         -14.0023   -1.8635   18.1453 C.3     1  UNL1        0.1406
      2 C         -12.6831   -2.2438   17.5412 C.3     1  UNL1        0.0375
      3 C         -12.4056   -3.6743   17.1855 C.3     1  UNL1        0.0430
      4 C         -11.0863   -4.0546   16.5814 C.3     1  UNL1        0.0921
      5 S         -10.8087   -5.4851   16.2257 S.3     1  UNL1       -0.0787
      6 C         -11.8505   -6.5354   16.4741 C.2     1  UNL1        0.1483
      7 N         -11.5729   -7.9660   16.1184 N.pl3   1  UNL1       -0.3380
      8 N         -13.1697   -6.1552   17.0782 N.2     1  UNL1       -0.2484
      9 C         -13.4473   -4.7246   17.4339 C.3     1  UNL1        0.1352
     10 C         -14.7665   -4.3443   18.0380 C.3     1  UNL1        0.1690
     11 O         -15.0440   -2.9138   18.3937 O.3     1  UNL1       -0.3494
     12 H         -10.7070   -8.2155   15.7219 H       1  UNL1        0.1442
     13 H         -12.2566   -8.6553   16.2814 H       1  UNL1        0.1442
     14 C         -14.4890   -5.7749   17.6823 C.ar    1  UNL1        0.0278
     15 C         -15.4617   -6.1374   16.5994 C.ar    1  UNL1        0.0021
     16 C         -16.5034   -7.1877   16.8478 C.ar    1  UNL1        0.0295
     17 C         -16.5725   -7.8754   18.1791 C.ar    1  UNL1        0.1424
     18 F         -17.6142   -8.9257   18.4276 F       1  UNL1       -0.2041
     19 C         -15.5998   -7.5129   19.2619 C.ar    1  UNL1        0.0590
     20 C         -14.5581   -6.4626   19.0135 C.ar    1  UNL1        0.1402
     21 F         -13.5855   -6.1001   20.0963 F       1  UNL1       -0.2044
     22 C         -16.3675    2.4880   19.9760 C.3     1  UNL1        0.1537
     23 N         -15.3671    1.5672   19.3425 N.ar    1  UNL1       -0.2476
     24 C         -15.5109    0.0824   19.1859 C.ar    1  UNL1        0.0947
     25 C         -14.2799   -0.4330   18.5010 C.ar    1  UNL1        0.0442
     26 C         -13.3753    0.7334   18.2342 C.ar    1  UNL1        0.1197
     27 N         -14.0471    1.9696   18.7543 N.ar    1  UNL1       -0.1679
     28 C         -10.0445   -3.0043   16.3330 C.3     1  UNL1        0.2044
     29 F          -8.5982   -3.3902   16.2380 F       1  UNL1       -0.2334
@<TRIPOS>BOND
     1    22    23    1
     2    23    24   ar
     3    24    25   ar
     4     1    25    1
     5     1     2    1
     6     3     2    1
     7     3     4    1
     8     4    28    1
     9    28    29    1
    10     4     5    1
    11     5     6    1
    12     6     7    1
    13     6     8    2
    14     8     9    1
    15     9    14    1
    16    14    15   ar
    17    15    16   ar
    18    16    17   ar
    19    17    18    1
    20    17    19   ar
    21    19    20   ar
    22    20    21    1
    23     9    10    1
    24    10    11    1
    25    25    26   ar
    26    26    27   ar
    27    27    23   ar
    28    11     1    1
    29     9     3    1
    30    20    14   ar
    31     7    12    1
    32     7    13    1
@<TRIPOS>MOLECULE
*****
 29 32 0 0 0
SMALL
GASTEIGER

@<TRIPOS>ATOM
      1 C           3.5999    0.0392   32.2725 C.3     1  UNL1        0.1406
      2 C           4.5358   -0.6628   31.3338 C.3     1  UNL1        0.0375
      3 C           4.2121   -0.7410   29.8713 C.3     1  UNL1        0.0430
      4 C           5.1481   -1.4429   28.9324 C.3     1  UNL1        0.0921
      5 S           4.8244   -1.5212   27.4699 S.3     1  UNL1       -0.0787
      6 C           3.5648   -0.8974   26.9461 C.2     1  UNL1        0.1483
      7 N           3.2412   -0.9757   25.4834 N.pl3   1  UNL1       -0.3380
      8 N           2.6289   -0.1955   27.8848 N.2     1  UNL1       -0.2484
      9 C           2.9525   -0.1173   29.3474 C.3     1  UNL1        0.1352
     10 C           2.0166    0.5847   30.2862 C.3     1  UNL1        0.1690
     11 O           2.3403    0.6629   31.7487 O.3     1  UNL1       -0.3494
     12 H           3.8555   -1.4364   24.8673 H       1  UNL1        0.1442
     13 H           2.4145   -0.5663   25.1396 H       1  UNL1        0.1442
     14 C           1.6929    0.5064   28.8236 C.ar    1  UNL1        0.0278
     15 C           0.4117   -0.2737   28.8280 C.ar    1  UNL1        0.0021
     16 C          -0.8479    0.3500   28.3042 C.ar    1  UNL1        0.0295
     17 C          -0.8263    1.7539   27.7760 C.ar    1  UNL1        0.1424
     18 F          -2.0859    2.3776   27.2522 F       1  UNL1       -0.2041
     19 C           0.4549    2.5339   27.7717 C.ar    1  UNL1        0.0590
     20 C           1.7145    1.9102   28.2955 C.ar    1  UNL1        0.1402
     21 F           2.9957    2.6902   28.2912 F       1  UNL1       -0.2044
     22 C           4.0959    1.8227   37.2176 C.3     1  UNL1        0.1537
     23 N           4.1515    0.9373   36.0082 N.ar    1  UNL1       -0.2476
     24 C           3.6769    1.2950   34.6310 C.ar    1  UNL1        0.0947
     25 C           3.9235    0.1174   33.7352 C.ar    1  UNL1        0.0442
     26 C           4.5505   -0.9682   34.5587 C.ar    1  UNL1        0.1197
     27 N           4.6915   -0.4615   35.9635 N.ar    1  UNL1       -0.1679
     28 C           6.4077   -2.0667   29.4562 C.3     1  UNL1        0.2044
     29 F           6.3464   -3.3638   30.2069 F       1  UNL1       -0.2334
@<TRIPOS>BOND
     1    22    23    1
     2    23    24   ar
     3    24    25   ar
     4     1    25    1
     5     1     2    1
     6     3     2    1
     7     3     4    1
     8     4    28    1
     9    28    29    1
    10     4     5    1
    11     5     6    1
    12     6     7    1
    13     6     8    2
    14     8     9    1
    15     9    14    1
    16    14    15   ar
    17    15    16   ar
    18    16    17   ar
    19    17    18    1
    20    17    19   ar
    21    19    20   ar
    22    20    21    1
    23     9    10    1
    24    10    11    1
    25    25    26   ar
    26    26    27   ar
    27    27    23   ar
    28    11     1    1
    29     9     3    1
    30    20    14   ar
    31     7    12    1
    32     7    13    1
@<TRIPOS>MOLECULE
*****
 29 32 0 0 0
SMALL
GASTEIGER

@<TRIPOS>ATOM
      1 C           4.6258    0.7421   35.8270 C.3     1  UNL1        0.1406
      2 C           3.6277    1.2353   34.8218 C.3     1  UNL1        0.0375
      3 C           3.6553    0.7094   33.4173 C.3     1  UNL1        0.0430
      4 C           2.6571    1.2026   32.4120 C.3     1  UNL1        0.0921
      5 S           2.6847    0.6767   31.0075 S.3     1  UNL1       -0.0787
      6 C           3.7103   -0.3425   30.6083 C.2     1  UNL1        0.1483
      7 N           3.7378   -0.8684   29.2037 N.pl3   1  UNL1       -0.3380
      8 N           4.7084   -0.8357   31.6135 N.2     1  UNL1       -0.2484
      9 C           4.6809   -0.3097   33.0180 C.3     1  UNL1        0.1352
     10 C           5.6790   -0.8029   34.0232 C.3     1  UNL1        0.1690
     11 O           5.6515   -0.2770   35.4277 O.3     1  UNL1       -0.3494
     12 H           3.0827   -0.5447   28.5439 H       1  UNL1        0.1442
     13 H           4.4110   -1.5373   28.9416 H       1  UNL1        0.1442
     14 C           5.7066   -1.3289   32.6187 C.ar    1  UNL1        0.0278
     15 C           7.0240   -0.8858   32.0547 C.ar    1  UNL1        0.0021
     16 C           8.0497   -1.9050   31.6554 C.ar    1  UNL1        0.0295
     17 C           7.7579   -3.3671   31.8202 C.ar    1  UNL1        0.1424
     18 F           8.7835   -4.3862   31.4209 F       1  UNL1       -0.2041
     19 C           6.4405   -3.8101   32.3842 C.ar    1  UNL1        0.0590
     20 C           5.4148   -2.7909   32.7835 C.ar    1  UNL1        0.1402
     21 F           4.0974   -3.2339   33.3476 F       1  UNL1       -0.2044
     22 C           6.0102    3.1625   40.3110 C.3     1  UNL1        0.1537
     23 N           5.2347    2.3806   39.2926 N.ar    1  UNL1       -0.2476
     24 C           5.6802    2.0678   37.8949 C.ar    1  UNL1        0.0947
     25 C           4.5983    1.2680   37.2315 C.ar    1  UNL1        0.0442
     26 C           3.4842    1.0865   38.2193 C.ar    1  UNL1        0.1197
     27 N           3.8775    1.7741   39.4931 N.ar    1  UNL1       -0.1679
     28 C           1.6315    2.2217   32.8113 C.3     1  UNL1        0.2044
     29 F           0.3821    2.3869   31.9978 F       1  UNL1       -0.2334
@<TRIPOS>BOND
     1    22    23    1
     2    23    24   ar
     3    24    25   ar
     4     1    25    1
     5     1     2    1
     6     3     2    1
     7     3     4    1
     8     4    28    1
     9    28    29    1
    10     4     5    1
    11     5     6    1
    12     6     7    1
    13     6     8    2
    14     8     9    1
    15     9    14    1
    16    14    15   ar
    17    15    16   ar
    18    16    17   ar
    19    17    18    1
    20    17    19   ar
    21    19    20   ar
    22    20    21    1
    23     9    10    1
    24    10    11    1
    25    25    26   ar
    26    26    27   ar
    27    27    23   ar
    28    11     1    1
    29     9     3    1
    30    20    14   ar
    31     7    12    1
    32     7    13    1
@<TRIPOS>MOLECULE
*****
 29 32 0 0 0
SMALL
GASTEIGER

@<TRIPOS>ATOM
      1 C         -15.6930   -2.1302   19.1845 C.3     1  UNL1        0.1406
      2 C         -14.3941   -1.5925   18.6616 C.3     1  UNL1        0.0375
      3 C         -13.4054   -2.5171   18.0154 C.3     1  UNL1        0.0430
      4 C         -12.1064   -1.9794   17.4925 C.3     1  UNL1        0.0921
      5 S         -11.1177   -2.9041   16.8463 S.3     1  UNL1       -0.0787
      6 C         -11.4280   -4.3664   16.7231 C.2     1  UNL1        0.1483
      7 N         -10.4393   -5.2911   16.0769 N.pl3   1  UNL1       -0.3380
      8 N         -12.7270   -4.9042   17.2460 N.2     1  UNL1       -0.2484
      9 C         -13.7157   -3.9795   17.8922 C.3     1  UNL1        0.1352
     10 C         -15.0147   -4.5172   18.4151 C.3     1  UNL1        0.1690
     11 O         -16.0033   -3.5926   19.0613 O.3     1  UNL1       -0.3494
     12 H          -9.5867   -4.9381   15.7336 H       1  UNL1        0.1442
     13 H         -10.6429   -6.2509   15.9960 H       1  UNL1        0.1442
     14 C         -14.0260   -5.4419   17.7690 C.ar    1  UNL1        0.0278
     15 C         -14.7594   -5.9541   16.5648 C.ar    1  UNL1        0.0021
     16 C         -15.0697   -7.4165   16.4415 C.ar    1  UNL1        0.0295
     17 C         -14.6467   -8.3666   17.5225 C.ar    1  UNL1        0.1424
     18 F         -14.9570   -9.8290   17.3992 F       1  UNL1       -0.2041
     19 C         -13.9134   -7.8544   18.7266 C.ar    1  UNL1        0.0590
     20 C         -13.6031   -6.3920   18.8498 C.ar    1  UNL1        0.1402
     21 F         -12.8698   -5.8798   20.0539 F       1  UNL1       -0.2044
     22 C         -17.8452    2.1067   21.4861 C.3     1  UNL1        0.1537
     23 N         -17.6710    0.7420   20.8887 N.ar    1  UNL1       -0.2476
     24 C         -16.4018    0.1868   20.3134 C.ar    1  UNL1        0.0947
     25 C         -16.6818   -1.2056   19.8307 C.ar    1  UNL1        0.0442
     26 C         -18.1240   -1.5110   20.1077 C.ar    1  UNL1        0.1197
     27 N         -18.7354   -0.3074   20.7615 N.ar    1  UNL1       -0.1679
     28 C         -11.7961   -0.5170   17.6157 C.3     1  UNL1        0.2044
     29 F         -10.4063   -0.0201   17.3483 F       1  UNL1       -0.2334
@<TRIPOS>BOND
     1    22    23    1
     2    23    24   ar
     3    24    25   ar
     4     1    25    1
     5     1     2    1
     6     3     2    1
     7     3     4    1
     8     4    28    1
     9    28    29    1
    10     4     5    1
    11     5     6    1
    12     6     7    1
    13     6     8    2
    14     8     9    1
    15     9    14    1
    16    14    15   ar
    17    15    16   ar
    18    16    17   ar
    19    17    18    1
    20    17    19   ar
    21    19    20   ar
    22    20    21    1
    23     9    10    1
    24    10    11    1
    25    25    26   ar
    26    26    27   ar
    27    27    23   ar
    28    11     1    1
    29     9     3    1
    30    20    14   ar
    31     7    12    1
    32     7    13    1
@<TRIPOS>MOLECULE
*****
 29 32 0 0 0
SMALL
GASTEIGER

@<TRIPOS>ATOM
      1 C           2.3441    0.4351   30.6192 C.3     1  UNL1        0.1406
      2 C           2.3454    1.1380   31.9443 C.3     1  UNL1        0.0375
      3 C           3.3902    0.8065   32.9681 C.3     1  UNL1        0.0430
      4 C           3.3915    1.5095   34.2933 C.3     1  UNL1        0.0921
      5 S           4.4364    1.1780   35.3171 S.3     1  UNL1       -0.0787
      6 C           5.4800    0.1436   35.0159 C.2     1  UNL1        0.1483
      7 N           6.5249   -0.1879   36.0398 N.pl3   1  UNL1       -0.3380
      8 N           5.4788   -0.5594   33.6909 N.2     1  UNL1       -0.2484
      9 C           4.4339   -0.2279   32.6669 C.3     1  UNL1        0.1352
     10 C           4.4326   -0.9309   31.3419 C.3     1  UNL1        0.1690
     11 O           3.3877   -0.5994   30.3181 O.3     1  UNL1       -0.3494
     12 H           6.5258    0.2735   36.9095 H       1  UNL1        0.1442
     13 H           7.2099   -0.8669   35.8422 H       1  UNL1        0.1442
     14 C           5.4775   -1.2624   32.3657 C.ar    1  UNL1        0.0278
     15 C           6.7418   -0.8691   31.6608 C.ar    1  UNL1        0.0021
     16 C           7.7854   -1.9036   31.3596 C.ar    1  UNL1        0.0295
     17 C           7.5647   -3.3313   31.7633 C.ar    1  UNL1        0.1424
     18 F           8.6084   -4.3658   31.4621 F       1  UNL1       -0.2041
     19 C           6.3005   -3.7245   32.4683 C.ar    1  UNL1        0.0590
     20 C           5.2568   -2.6901   32.7695 C.ar    1  UNL1        0.1402
     21 F           3.9926   -3.0833   33.4744 F       1  UNL1       -0.2044
     22 C          -0.7232    3.1171   27.2608 C.3     1  UNL1        0.1537
     23 N          -0.1107    1.9994   28.0516 N.ar    1  UNL1       -0.2476
     24 C           1.0054    2.1307   29.0451 C.ar    1  UNL1        0.0947
     25 C           1.2992    0.7665   29.5953 C.ar    1  UNL1        0.0442
     26 C           0.3647   -0.2079   28.9418 C.ar    1  UNL1        0.1197
     27 N          -0.5067    0.5540   27.9878 N.ar    1  UNL1       -0.1679
     28 C           2.3479    2.5440   34.5945 C.3     1  UNL1        0.2044
     29 F           2.1309    3.0015   36.0064 F       1  UNL1       -0.2334
@<TRIPOS>BOND
     1    22    23    1
     2    23    24   ar
     3    24    25   ar
     4     1    25    1
     5     1     2    1
     6     3     2    1
     7     3     4    1
     8     4    28    1
     9    28    29    1
    10     4     5    1
    11     5     6    1
    12     6     7    1
    13     6     8    2
    14     8     9    1
    15     9    14    1
    16    14    15   ar
    17    15    16   ar
    18    16    17   ar
    19    17    18    1
    20    17    19   ar
    21    19    20   ar
    22    20    21    1
    23     9    10    1
    24    10    11    1
    25    25    26   ar
    26    26    27   ar
    27    27    23   ar
    28    11     1    1
    29     9     3    1
    30    20    14   ar
    31     7    12    1
    32     7    13    1
