@<TRIPOS>MOLECULE
*****
 34 37 0 0 0
SMALL
GASTEIGER

@<TRIPOS>ATOM
      1 C          -0.9569    3.2109   22.4944 C.ar    1  UNL1        0.1600
      2 N          -2.0993    3.7528   23.3013 N.ar    1  UNL1       -0.2291
      3 C          -3.4703    3.8365   22.6984 C.ar    1  UNL1        0.0999
      4 C          -3.6987    3.3782   21.2885 C.ar    1  UNL1        0.0994
      5 N          -2.5562    2.8362   20.4816 N.ar    1  UNL1       -0.2265
      6 C          -1.1853    2.7526   21.0846 C.ar    1  UNL1        0.1633
      7 C          -5.0696    3.4617   20.6855 C.2     1  UNL1        0.0378
      8 C          -6.2121    4.0036   21.4924 C.2     1  UNL1        0.0853
      9 N          -5.9836    4.4620   22.9023 N.pl3   1  UNL1       -0.1869
     10 C          -4.6127    4.3784   23.5053 C.3     1  UNL1        0.1625
     11 N          -0.0428    2.2107   20.2776 N.pl3   1  UNL1       -0.2908
     12 C           0.1609    0.7288   20.1671 C.3     1  UNL1        0.0960
     13 C           1.3034    0.1869   19.3602 C.3     1  UNL1        0.0650
     14 C           2.2421    1.1270   18.6639 C.3     1  UNL1        0.1694
     15 C           2.0385    2.6090   18.7744 C.3     1  UNL1        0.0650
     16 C           0.8960    3.1508   19.5813 C.3     1  UNL1        0.0960
     17 O           3.3847    0.5851   17.8570 O.3     1  UNL1       -0.4768
     18 C           4.2449   -0.5093   18.4157 C.ar    1  UNL1        0.1657
     19 C           4.3701   -1.8126   17.6838 C.ar    1  UNL1        0.0415
     20 C           5.2303   -2.9070   18.2425 C.ar    1  UNL1        0.0329
     21 C           5.9654   -2.6981   19.5333 C.ar    1  UNL1        0.1426
     22 F           6.8257   -3.7925   20.0921 F       1  UNL1       -0.2041
     23 C           5.8403   -1.3948   20.2653 C.ar    1  UNL1        0.0624
     24 C           4.9800   -0.3004   19.7064 C.ar    1  UNL1        0.1760
     25 F           4.8548    1.0029   20.4384 F       1  UNL1       -0.2009
     26 S          -7.1261    5.0039   23.7092 S.O2    1  UNL1        0.0592
     27 C          -8.2686    5.5458   24.5162 C.3     1  UNL1        0.1999
     28 O          -6.3755    4.7046   24.9729 O.2     1  UNL1       -0.1542
     29 O          -7.8767    5.3031   22.4456 O.2     1  UNL1       -0.1542
     30 N           0.4141    3.1273   23.0974 N.pl3   1  UNL1       -0.3175
     31 H           1.0179    3.9039   23.0569 H       1  UNL1        0.1482
     32 C           0.1368    1.3459   24.9680 C.3     1  UNL1        0.0212
     33 C           0.8651    1.8605   23.7620 C.3     1  UNL1        0.0706
     34 C           2.0446    1.1083   23.2205 C.3     1  UNL1        0.0212
@<TRIPOS>BOND
     1    32    33    1
     2    33    34    1
     3    33    30    1
     4    30     1    1
     5     1     2   ar
     6     2     3   ar
     7     3     4   ar
     8     4     5   ar
     9     5     6   ar
    10     6    11    1
    11    11    12    1
    12    12    13    1
    13    13    14    1
    14    14    17    1
    15    17    18    1
    16    18    19   ar
    17    19    20   ar
    18    20    21   ar
    19    21    22    1
    20    21    23   ar
    21    23    24   ar
    22    24    25    1
    23    14    15    1
    24    15    16    1
    25     4     7    1
    26     7     8    2
    27     8     9    1
    28     9    26    1
    29    26    27    1
    30    26    28    2
    31    26    29    2
    32     9    10    1
    33     6     1   ar
    34    16    11    1
    35    10     3    1
    36    24    18   ar
    37    30    31    1
@<TRIPOS>MOLECULE
*****
 34 37 0 0 0
SMALL
GASTEIGER

@<TRIPOS>ATOM
      1 C           2.0306   -0.2569   28.8692 C.ar    1  UNL1        0.1600
      2 N           2.1399   -0.3961   30.3587 N.ar    1  UNL1       -0.2291
      3 C           3.4553   -0.1589   31.0397 C.ar    1  UNL1        0.0999
      4 C           4.6613    0.2175   30.2311 C.ar    1  UNL1        0.0994
      5 N           4.5519    0.3567   28.7415 N.ar    1  UNL1       -0.2265
      6 C           3.2366    0.1195   28.0606 C.ar    1  UNL1        0.1633
      7 C           5.9766    0.4547   30.9119 C.2     1  UNL1        0.0378
      8 C           6.0859    0.3155   32.4014 C.2     1  UNL1        0.0853
      9 N           4.8799   -0.0609   33.2100 N.pl3   1  UNL1       -0.1869
     10 C           3.5646   -0.2981   32.5292 C.3     1  UNL1        0.1625
     11 N           3.1273    0.2586   26.5710 N.pl3   1  UNL1       -0.2908
     12 C           3.4849   -0.8951   25.6817 C.3     1  UNL1        0.0960
     13 C           3.3756   -0.7559   24.1922 C.3     1  UNL1        0.0650
     14 C           2.9086    0.5371   23.5921 C.3     1  UNL1        0.1694
     15 C           2.5510    1.6908   24.4814 C.3     1  UNL1        0.0650
     16 C           2.6603    1.5516   25.9709 C.3     1  UNL1        0.0960
     17 O           2.7992    0.6763   22.1025 O.3     1  UNL1       -0.4768
     18 C           3.4747   -0.3175   21.2048 C.ar    1  UNL1        0.1657
     19 C           4.9723   -0.3773   21.1446 C.ar    1  UNL1        0.0415
     20 C           5.6478   -1.3712   20.2469 C.ar    1  UNL1        0.0329
     21 C           4.8257   -2.3053   19.4093 C.ar    1  UNL1        0.1426
     22 F           5.5012   -3.2991   18.5115 F       1  UNL1       -0.2041
     23 C           3.3281   -2.2455   19.4694 C.ar    1  UNL1        0.0624
     24 C           2.6526   -1.2516   20.3672 C.ar    1  UNL1        0.1760
     25 F           1.1550   -1.1919   20.4273 F       1  UNL1       -0.2009
     26 S           4.9892   -0.2001   34.6996 S.O2    1  UNL1        0.0592
     27 C           5.0986   -0.3392   36.1891 C.3     1  UNL1        0.1999
     28 O           5.6370    1.1505   34.7782 O.2     1  UNL1       -0.1542
     29 O           4.3414   -1.5507   34.6210 O.2     1  UNL1       -0.1542
     30 N           0.7153   -0.4942   28.1883 N.pl3   1  UNL1       -0.3175
     31 H           0.6105   -1.2538   27.5708 H       1  UNL1        0.1482
     32 C          -1.6802   -0.0959   29.1120 C.3     1  UNL1        0.0212
     33 C          -0.4405    0.4260   28.4481 C.3     1  UNL1        0.0706
     34 C          -0.3565    1.8682   28.0440 C.3     1  UNL1        0.0212
@<TRIPOS>BOND
     1    32    33    1
     2    33    34    1
     3    33    30    1
     4    30     1    1
     5     1     2   ar
     6     2     3   ar
     7     3     4   ar
     8     4     5   ar
     9     5     6   ar
    10     6    11    1
    11    11    12    1
    12    12    13    1
    13    13    14    1
    14    14    17    1
    15    17    18    1
    16    18    19   ar
    17    19    20   ar
    18    20    21   ar
    19    21    22    1
    20    21    23   ar
    21    23    24   ar
    22    24    25    1
    23    14    15    1
    24    15    16    1
    25     4     7    1
    26     7     8    2
    27     8     9    1
    28     9    26    1
    29    26    27    1
    30    26    28    2
    31    26    29    2
    32     9    10    1
    33     6     1   ar
    34    16    11    1
    35    10     3    1
    36    24    18   ar
    37    30    31    1
@<TRIPOS>MOLECULE
*****
 34 37 0 0 0
SMALL
GASTEIGER

@<TRIPOS>ATOM
      1 C           2.7929   -1.0961   20.0204 C.ar    1  UNL1        0.1600
      2 N           1.6097   -0.3214   19.5206 N.ar    1  UNL1       -0.2291
      3 C           0.9875    0.7367   20.3829 C.ar    1  UNL1        0.0999
      4 C           1.5487    1.0201   21.7448 C.ar    1  UNL1        0.0994
      5 N           2.7319    0.2453   22.2445 N.ar    1  UNL1       -0.2265
      6 C           3.3540   -0.8128   21.3823 C.ar    1  UNL1        0.1633
      7 C           0.9266    2.0781   22.6070 C.2     1  UNL1        0.0378
      8 C          -0.2567    2.8528   22.1073 C.2     1  UNL1        0.0853
      9 N          -0.8178    2.5695   20.7453 N.pl3   1  UNL1       -0.1869
     10 C          -0.1957    1.5114   19.8831 C.3     1  UNL1        0.1625
     11 N           4.5373   -1.5876   21.8820 N.pl3   1  UNL1       -0.2908
     12 C           4.3480   -2.9636   22.4483 C.3     1  UNL1        0.0960
     13 C           5.5312   -3.7383   22.9479 C.3     1  UNL1        0.0650
     14 C           6.9038   -3.1370   22.8814 C.3     1  UNL1        0.1694
     15 C           7.0931   -1.7610   22.3151 C.3     1  UNL1        0.0650
     16 C           5.9099   -0.9863   21.8154 C.3     1  UNL1        0.0960
     17 O           8.0871   -3.9118   23.3811 O.3     1  UNL1       -0.4768
     18 C           7.8822   -5.1102   24.2595 C.ar    1  UNL1        0.1657
     19 C           8.3222   -6.4662   23.7930 C.ar    1  UNL1        0.0415
     20 C           8.1173   -7.6646   24.6714 C.ar    1  UNL1        0.0329
     21 C           7.4723   -7.5071   26.0165 C.ar    1  UNL1        0.1426
     22 F           7.2674   -8.7055   26.8950 F       1  UNL1       -0.2041
     23 C           7.0322   -6.1511   26.4831 C.ar    1  UNL1        0.0624
     24 C           7.2372   -4.9526   25.6045 C.ar    1  UNL1        0.1760
     25 F           6.7971   -3.5967   26.0711 F       1  UNL1       -0.2009
     26 S          -2.0010    3.3443   20.2456 S.O2    1  UNL1        0.0592
     27 C          -3.1843    4.1190   19.7460 C.3     1  UNL1        0.1999
     28 O          -2.7584    2.9908   21.4912 O.2     1  UNL1       -0.1542
     29 O          -1.2437    3.6977   19.0001 O.2     1  UNL1       -0.1542
     30 N           3.4151   -2.1543   19.1581 N.pl3   1  UNL1       -0.3175
     31 H           3.1232   -3.0909   19.2406 H       1  UNL1        0.1482
     32 C           4.1902   -0.7874   17.0891 C.3     1  UNL1        0.0212
     33 C           4.4819   -1.7853   18.1704 C.3     1  UNL1        0.0706
     34 C           5.8405   -2.4143   18.2638 C.3     1  UNL1        0.0212
@<TRIPOS>BOND
     1    32    33    1
     2    33    34    1
     3    33    30    1
     4    30     1    1
     5     1     2   ar
     6     2     3   ar
     7     3     4   ar
     8     4     5   ar
     9     5     6   ar
    10     6    11    1
    11    11    12    1
    12    12    13    1
    13    13    14    1
    14    14    17    1
    15    17    18    1
    16    18    19   ar
    17    19    20   ar
    18    20    21   ar
    19    21    22    1
    20    21    23   ar
    21    23    24   ar
    22    24    25    1
    23    14    15    1
    24    15    16    1
    25     4     7    1
    26     7     8    2
    27     8     9    1
    28     9    26    1
    29    26    27    1
    30    26    28    2
    31    26    29    2
    32     9    10    1
    33     6     1   ar
    34    16    11    1
    35    10     3    1
    36    24    18   ar
    37    30    31    1
@<TRIPOS>MOLECULE
*****
 34 37 0 0 0
SMALL
GASTEIGER

@<TRIPOS>ATOM
      1 C          -0.7391    1.9013   26.2431 C.ar    1  UNL1        0.1600
      2 N          -1.9579    2.5119   26.8691 N.ar    1  UNL1       -0.2291
      3 C          -2.7353    3.5604   26.1300 C.ar    1  UNL1        0.0999
      4 C          -2.2940    3.9983   24.7649 C.ar    1  UNL1        0.0994
      5 N          -1.0752    3.3877   24.1389 N.ar    1  UNL1       -0.2265
      6 C          -0.2978    2.3392   24.8780 C.ar    1  UNL1        0.1633
      7 C          -3.0714    5.0467   24.0258 C.2     1  UNL1        0.0378
      8 C          -4.2901    5.6573   24.6517 C.2     1  UNL1        0.0853
      9 N          -4.7315    5.2194   26.0168 N.pl3   1  UNL1       -0.1869
     10 C          -3.9541    4.1710   26.7559 C.3     1  UNL1        0.1625
     11 N           0.9210    1.7286   24.2521 N.pl3   1  UNL1       -0.2908
     12 C           0.7999    0.9575   22.9712 C.3     1  UNL1        0.0960
     13 C           2.0186    0.3469   22.3453 C.3     1  UNL1        0.0650
     14 C           3.3585    0.5075   23.0003 C.3     1  UNL1        0.1694
     15 C           3.4796    1.2786   24.2812 C.3     1  UNL1        0.0650
     16 C           2.2609    1.8892   24.9071 C.3     1  UNL1        0.0960
     17 O           4.5773   -0.1031   22.3743 O.3     1  UNL1       -0.4768
     18 C           4.4546   -1.3587   21.5629 C.ar    1  UNL1        0.1657
     19 C           4.3965   -1.2815   20.0660 C.ar    1  UNL1        0.0415
     20 C           4.2737   -2.5370   19.2545 C.ar    1  UNL1        0.0329
     21 C           4.2091   -3.8698   19.9399 C.ar    1  UNL1        0.1426
     22 F           4.0864   -5.1253   19.1284 F       1  UNL1       -0.2041
     23 C           4.2673   -3.9469   21.4368 C.ar    1  UNL1        0.0624
     24 C           4.3900   -2.6913   22.2483 C.ar    1  UNL1        0.1760
     25 F           4.4481   -2.7684   23.7451 F       1  UNL1       -0.2009
     26 S          -5.9503    5.8300   26.6428 S.O2    1  UNL1        0.0592
     27 C          -7.1690    6.4406   27.2687 C.3     1  UNL1        0.1999
     28 O          -5.2981    5.7493   27.9912 O.2     1  UNL1       -0.1542
     29 O          -6.6024    5.9107   25.2944 O.2     1  UNL1       -0.1542
     30 N           0.0383    0.8528   26.9823 N.pl3   1  UNL1       -0.3175
     31 H           0.7625    0.3650   26.5275 H       1  UNL1        0.1482
     32 C           0.3972    1.3007   29.5162 C.3     1  UNL1        0.0212
     33 C          -0.2876    0.5477   28.4143 C.3     1  UNL1        0.0706
     34 C          -1.2982   -0.5105   28.7444 C.3     1  UNL1        0.0212
@<TRIPOS>BOND
     1    32    33    1
     2    33    34    1
     3    33    30    1
     4    30     1    1
     5     1     2   ar
     6     2     3   ar
     7     3     4   ar
     8     4     5   ar
     9     5     6   ar
    10     6    11    1
    11    11    12    1
    12    12    13    1
    13    13    14    1
    14    14    17    1
    15    17    18    1
    16    18    19   ar
    17    19    20   ar
    18    20    21   ar
    19    21    22    1
    20    21    23   ar
    21    23    24   ar
    22    24    25    1
    23    14    15    1
    24    15    16    1
    25     4     7    1
    26     7     8    2
    27     8     9    1
    28     9    26    1
    29    26    27    1
    30    26    28    2
    31    26    29    2
    32     9    10    1
    33     6     1   ar
    34    16    11    1
    35    10     3    1
    36    24    18   ar
    37    30    31    1
@<TRIPOS>MOLECULE
*****
 34 37 0 0 0
SMALL
GASTEIGER

@<TRIPOS>ATOM
      1 C           2.0862    0.8978   30.9284 C.ar    1  UNL1        0.1600
      2 N           2.3896    0.9495   32.3965 N.ar    1  UNL1       -0.2291
      3 C           2.0818    2.1893   33.1828 C.ar    1  UNL1        0.0999
      4 C           1.4705    3.3773   32.5011 C.ar    1  UNL1        0.0994
      5 N           1.1671    3.3256   31.0329 N.ar    1  UNL1       -0.2265
      6 C           1.4750    2.0859   30.2466 C.ar    1  UNL1        0.1633
      7 C           1.1626    4.6171   33.2873 C.2     1  UNL1        0.0378
      8 C           1.4660    4.6687   34.7554 C.2     1  UNL1        0.0853
      9 N           2.0773    3.4806   35.4372 N.pl3   1  UNL1       -0.1869
     10 C           2.3852    2.2409   34.6509 C.3     1  UNL1        0.1625
     11 N           1.1716    2.0342   28.7785 N.pl3   1  UNL1       -0.2908
     12 C           2.0340    2.7849   27.8076 C.3     1  UNL1        0.0960
     13 C           1.7306    2.7332   26.3395 C.3     1  UNL1        0.0650
     14 C           0.5648    1.9308   25.8424 C.3     1  UNL1        0.1694
     15 C          -0.2976    1.1802   26.8133 C.3     1  UNL1        0.0650
     16 C           0.0058    1.2319   28.2814 C.3     1  UNL1        0.0960
     17 O           0.2614    1.8791   24.3743 O.3     1  UNL1       -0.4768
     18 C           1.0753    1.0011   23.4707 C.ar    1  UNL1        0.1657
     19 C           2.2045    0.1888   24.0321 C.ar    1  UNL1        0.0415
     20 C           3.0184   -0.6893   23.1285 C.ar    1  UNL1        0.0329
     21 C           2.7032   -0.7551   21.6634 C.ar    1  UNL1        0.1426
     22 F           3.5171   -1.6331   20.7599 F       1  UNL1       -0.2041
     23 C           1.5740    0.0572   21.1020 C.ar    1  UNL1        0.0624
     24 C           0.7601    0.9353   22.0057 C.ar    1  UNL1        0.1760
     25 F          -0.3691    1.7476   21.4443 F       1  UNL1       -0.2009
     26 S           2.3807    3.5323   36.9053 S.O2    1  UNL1        0.0592
     27 C           2.6840    3.5839   38.3734 C.3     1  UNL1        0.1999
     28 O           2.0996    2.0630   37.0151 O.2     1  UNL1       -0.1542
     29 O           2.6617    5.0016   36.7956 O.2     1  UNL1       -0.1542
     30 N           2.3941   -0.3419   30.1421 N.pl3   1  UNL1       -0.3175
     31 H           1.8677   -1.1609   30.2882 H       1  UNL1        0.1482
     32 C           3.2682   -0.8753   27.7543 C.3     1  UNL1        0.0212
     33 C           3.5040   -0.3338   29.1331 C.3     1  UNL1        0.0706
     34 C           4.8498    0.2160   29.5029 C.3     1  UNL1        0.0212
@<TRIPOS>BOND
     1    32    33    1
     2    33    34    1
     3    33    30    1
     4    30     1    1
     5     1     2   ar
     6     2     3   ar
     7     3     4   ar
     8     4     5   ar
     9     5     6   ar
    10     6    11    1
    11    11    12    1
    12    12    13    1
    13    13    14    1
    14    14    17    1
    15    17    18    1
    16    18    19   ar
    17    19    20   ar
    18    20    21   ar
    19    21    22    1
    20    21    23   ar
    21    23    24   ar
    22    24    25    1
    23    14    15    1
    24    15    16    1
    25     4     7    1
    26     7     8    2
    27     8     9    1
    28     9    26    1
    29    26    27    1
    30    26    28    2
    31    26    29    2
    32     9    10    1
    33     6     1   ar
    34    16    11    1
    35    10     3    1
    36    24    18   ar
    37    30    31    1
@<TRIPOS>MOLECULE
*****
 34 37 0 0 0
SMALL
GASTEIGER

@<TRIPOS>ATOM
      1 C           0.8281    1.0607   27.7099 C.ar    1  UNL1        0.1600
      2 N           1.6753    0.2121   28.6109 N.ar    1  UNL1       -0.2291
      3 C           1.9686    0.6652   30.0105 C.ar    1  UNL1        0.0999
      4 C           1.4146    1.9670   30.5089 C.ar    1  UNL1        0.0994
      5 N           0.5673    2.8156   29.6078 N.ar    1  UNL1       -0.2265
      6 C           0.2740    2.3625   28.2083 C.ar    1  UNL1        0.1633
      7 C           1.7078    2.4202   31.9084 C.2     1  UNL1        0.0378
      8 C           2.5551    1.5716   32.8094 C.2     1  UNL1        0.0853
      9 N           3.1091    0.2698   32.3110 N.pl3   1  UNL1       -0.1869
     10 C           2.8159   -0.1834   30.9115 C.3     1  UNL1        0.1625
     11 N          -0.5733    3.2111   27.3071 N.pl3   1  UNL1       -0.2908
     12 C           0.0219    4.4074   26.6256 C.3     1  UNL1        0.0960
     13 C          -0.8254    5.2560   25.7246 C.3     1  UNL1        0.0650
     14 C          -2.2679    4.9082   25.5050 C.3     1  UNL1        0.1694
     15 C          -2.8631    3.7119   26.1865 C.3     1  UNL1        0.0650
     16 C          -2.0158    2.8633   27.0876 C.3     1  UNL1        0.0960
     17 O          -3.1152    5.7568   24.6038 O.3     1  UNL1       -0.4768
     18 C          -4.5490    5.3907   24.3588 C.ar    1  UNL1        0.1657
     19 C          -5.6335    6.0084   25.1908 C.ar    1  UNL1        0.0415
     20 C          -7.0673    5.6423   24.9458 C.ar    1  UNL1        0.0329
     21 C          -7.4167    4.6585   23.8687 C.ar    1  UNL1        0.1426
     22 F          -8.8505    4.2924   23.6236 F       1  UNL1       -0.2041
     23 C          -6.3322    4.0408   23.0366 C.ar    1  UNL1        0.0624
     24 C          -4.8983    4.4070   23.2817 C.ar    1  UNL1        0.1760
     25 F          -3.8138    3.7893   22.4497 F       1  UNL1       -0.2009
     26 S           3.9564   -0.5788   33.2122 S.O2    1  UNL1        0.0592
     27 C           4.8037   -1.4274   34.1132 C.3     1  UNL1        0.1999
     28 O           3.6651   -1.7768   32.3578 O.2     1  UNL1       -0.1542
     29 O           4.2478    0.6191   34.0665 O.2     1  UNL1       -0.1542
     30 N           0.5348    0.6075   26.3103 N.pl3   1  UNL1       -0.3175
     31 H          -0.1543   -0.0767   26.1487 H       1  UNL1        0.1482
     32 C           0.5488    1.7506   23.9773 C.3     1  UNL1        0.0212
     33 C           1.2914    1.1970   25.1570 C.3     1  UNL1        0.0706
     34 C           2.7908    1.2329   25.1836 C.3     1  UNL1        0.0212
@<TRIPOS>BOND
     1    32    33    1
     2    33    34    1
     3    33    30    1
     4    30     1    1
     5     1     2   ar
     6     2     3   ar
     7     3     4   ar
     8     4     5   ar
     9     5     6   ar
    10     6    11    1
    11    11    12    1
    12    12    13    1
    13    13    14    1
    14    14    17    1
    15    17    18    1
    16    18    19   ar
    17    19    20   ar
    18    20    21   ar
    19    21    22    1
    20    21    23   ar
    21    23    24   ar
    22    24    25    1
    23    14    15    1
    24    15    16    1
    25     4     7    1
    26     7     8    2
    27     8     9    1
    28     9    26    1
    29    26    27    1
    30    26    28    2
    31    26    29    2
    32     9    10    1
    33     6     1   ar
    34    16    11    1
    35    10     3    1
    36    24    18   ar
    37    30    31    1
@<TRIPOS>MOLECULE
*****
 34 37 0 0 0
SMALL
GASTEIGER

@<TRIPOS>ATOM
      1 C           2.2851    0.1935   23.5657 C.ar    1  UNL1        0.1600
      2 N           1.1007    1.0506   23.2304 N.ar    1  UNL1       -0.2291
      3 C           0.8437    1.4516   21.8080 C.ar    1  UNL1        0.0999
      4 C           1.7712    0.9954   20.7209 C.ar    1  UNL1        0.0994
      5 N           2.9556    0.1382   21.0563 N.ar    1  UNL1       -0.2265
      6 C           3.2126   -0.2627   22.4787 C.ar    1  UNL1        0.1633
      7 C           1.5142    1.3963   19.2986 C.2     1  UNL1        0.0378
      8 C           0.3298    2.2535   18.9633 C.2     1  UNL1        0.0853
      9 N          -0.5976    2.7097   20.0503 N.pl3   1  UNL1       -0.1869
     10 C          -0.3407    2.3087   21.4727 C.3     1  UNL1        0.1625
     11 N           4.3970   -1.1199   22.8140 N.pl3   1  UNL1       -0.2908
     12 C           5.6923   -0.4829   23.2220 C.3     1  UNL1        0.0960
     13 C           6.8767   -1.3401   23.5573 C.3     1  UNL1        0.0650
     14 C           6.7658   -2.8342   23.4847 C.3     1  UNL1        0.1694
     15 C           5.4705   -3.4712   23.0768 C.3     1  UNL1        0.0650
     16 C           4.2861   -2.6140   22.7414 C.3     1  UNL1        0.0960
     17 O           7.9502   -3.6914   23.8201 O.3     1  UNL1       -0.4768
     18 C           7.7595   -4.9692   24.5821 C.ar    1  UNL1        0.1657
     19 C           8.2266   -6.2687   23.9962 C.ar    1  UNL1        0.0415
     20 C           8.0359   -7.5465   24.7582 C.ar    1  UNL1        0.0329
     21 C           7.3782   -7.5249   26.1062 C.ar    1  UNL1        0.1426
     22 F           7.1875   -8.8028   26.8682 F       1  UNL1       -0.2041
     23 C           6.9111   -6.2255   26.6921 C.ar    1  UNL1        0.0624
     24 C           7.1019   -4.9476   25.9300 C.ar    1  UNL1        0.1760
     25 F           6.6348   -3.6481   26.5159 F       1  UNL1       -0.2009
     26 S          -1.7821    3.5668   19.7150 S.O2    1  UNL1        0.0592
     27 C          -2.9665    4.4240   19.3796 C.3     1  UNL1        0.1999
     28 O          -0.9636    4.2978   18.6924 O.2     1  UNL1       -0.1542
     29 O          -2.6007    2.8359   20.7375 O.2     1  UNL1       -0.1542
     30 N           2.5421   -0.2075   24.9882 N.pl3   1  UNL1       -0.3175
     31 H           2.4445   -1.1488   25.2596 H       1  UNL1        0.1482
     32 C           4.0389    1.8028   25.6727 C.3     1  UNL1        0.0212
     33 C           2.9479    0.8258   25.9970 C.3     1  UNL1        0.0706
     34 C           2.2627    0.8819   27.3302 C.3     1  UNL1        0.0212
@<TRIPOS>BOND
     1    32    33    1
     2    33    34    1
     3    33    30    1
     4    30     1    1
     5     1     2   ar
     6     2     3   ar
     7     3     4   ar
     8     4     5   ar
     9     5     6   ar
    10     6    11    1
    11    11    12    1
    12    12    13    1
    13    13    14    1
    14    14    17    1
    15    17    18    1
    16    18    19   ar
    17    19    20   ar
    18    20    21   ar
    19    21    22    1
    20    21    23   ar
    21    23    24   ar
    22    24    25    1
    23    14    15    1
    24    15    16    1
    25     4     7    1
    26     7     8    2
    27     8     9    1
    28     9    26    1
    29    26    27    1
    30    26    28    2
    31    26    29    2
    32     9    10    1
    33     6     1   ar
    34    16    11    1
    35    10     3    1
    36    24    18   ar
    37    30    31    1
@<TRIPOS>MOLECULE
*****
 34 37 0 0 0
SMALL
GASTEIGER

@<TRIPOS>ATOM
      1 C           0.1287    1.5956   24.3783 C.ar    1  UNL1        0.1600
      2 N          -0.8303    2.1970   25.3625 N.ar    1  UNL1       -0.2291
      3 C          -1.8267    3.2222   24.9083 C.ar    1  UNL1        0.0999
      4 C          -1.8641    3.6459   23.4699 C.ar    1  UNL1        0.0994
      5 N          -0.9051    3.0445   22.4857 N.ar    1  UNL1       -0.2265
      6 C           0.0913    2.0193   22.9399 C.ar    1  UNL1        0.1633
      7 C          -2.8604    4.6711   23.0158 C.2     1  UNL1        0.0378
      8 C          -3.8193    5.2725   24.0000 C.2     1  UNL1        0.0853
      9 N          -3.7819    4.8487   25.4384 N.pl3   1  UNL1       -0.1869
     10 C          -2.7856    3.8236   25.8926 C.3     1  UNL1        0.1625
     11 N           1.0503    1.4179   21.9556 N.pl3   1  UNL1       -0.2908
     12 C           2.4639    1.9146   21.8864 C.3     1  UNL1        0.0960
     13 C           3.4228    1.3132   20.9022 C.3     1  UNL1        0.0650
     14 C           2.9681    0.2150   19.9872 C.3     1  UNL1        0.1694
     15 C           1.5544   -0.2817   20.0564 C.3     1  UNL1        0.0650
     16 C           0.5955    0.3197   21.0406 C.3     1  UNL1        0.0960
     17 O           3.9271   -0.3865   19.0030 O.3     1  UNL1       -0.4768
     18 C           4.8841   -1.4537   19.4446 C.ar    1  UNL1        0.1657
     19 C           6.3129   -1.1048   19.7388 C.ar    1  UNL1        0.0415
     20 C           7.2700   -2.1720   20.1804 C.ar    1  UNL1        0.0329
     21 C           6.7981   -3.5883   20.3278 C.ar    1  UNL1        0.1426
     22 F           7.7552   -4.6555   20.7694 F       1  UNL1       -0.2041
     23 C           5.3693   -3.9372   20.0335 C.ar    1  UNL1        0.0624
     24 C           4.4122   -2.8699   19.5919 C.ar    1  UNL1        0.1760
     25 F           2.9834   -3.2188   19.2976 F       1  UNL1       -0.2009
     26 S          -4.7409    5.4502   26.4226 S.O2    1  UNL1        0.0592
     27 C          -5.6998    6.0515   27.4069 C.3     1  UNL1        0.1999
     28 O          -4.6442    4.2167   27.2706 O.2     1  UNL1       -0.1542
     29 O          -4.8377    6.6837   25.5747 O.2     1  UNL1       -0.1542
     30 N           1.1251    0.5704   24.8324 N.pl3   1  UNL1       -0.3175
     31 H           0.9547   -0.3861   24.6731 H       1  UNL1        0.1482
     32 C           3.2670   -0.0183   26.1799 C.3     1  UNL1        0.0212
     33 C           2.3811    1.0025   25.5294 C.3     1  UNL1        0.0706
     34 C           2.7512    2.4554   25.5758 C.3     1  UNL1        0.0212
@<TRIPOS>BOND
     1    32    33    1
     2    33    34    1
     3    33    30    1
     4    30     1    1
     5     1     2   ar
     6     2     3   ar
     7     3     4   ar
     8     4     5   ar
     9     5     6   ar
    10     6    11    1
    11    11    12    1
    12    12    13    1
    13    13    14    1
    14    14    17    1
    15    17    18    1
    16    18    19   ar
    17    19    20   ar
    18    20    21   ar
    19    21    22    1
    20    21    23   ar
    21    23    24   ar
    22    24    25    1
    23    14    15    1
    24    15    16    1
    25     4     7    1
    26     7     8    2
    27     8     9    1
    28     9    26    1
    29    26    27    1
    30    26    28    2
    31    26    29    2
    32     9    10    1
    33     6     1   ar
    34    16    11    1
    35    10     3    1
    36    24    18   ar
    37    30    31    1
@<TRIPOS>MOLECULE
*****
 34 37 0 0 0
SMALL
GASTEIGER

@<TRIPOS>ATOM
      1 C          -1.8710    3.3733   20.9092 C.ar    1  UNL1        0.1600
      2 N          -2.9685    3.9931   21.7225 N.ar    1  UNL1       -0.2291
      3 C          -2.8753    4.0088   23.2195 C.ar    1  UNL1        0.0999
      4 C          -1.6846    3.4048   23.9032 C.ar    1  UNL1        0.0994
      5 N          -0.5871    2.7850   23.0899 N.ar    1  UNL1       -0.2265
      6 C          -0.6804    2.7693   21.5929 C.ar    1  UNL1        0.1633
      7 C          -1.5914    3.4205   25.4002 C.2     1  UNL1        0.0378
      8 C          -2.6888    4.0402   26.2135 C.2     1  UNL1        0.0853
      9 N          -3.8795    4.6443   25.5298 N.pl3   1  UNL1       -0.1869
     10 C          -3.9727    4.6286   24.0328 C.3     1  UNL1        0.1625
     11 N           0.4171    2.1495   20.7795 N.pl3   1  UNL1       -0.2908
     12 C           0.2615    0.7553   20.2487 C.3     1  UNL1        0.0960
     13 C           1.3589    0.1356   19.4353 C.3     1  UNL1        0.0650
     14 C           2.6120    0.9101   19.1528 C.3     1  UNL1        0.1694
     15 C           2.7677    2.3044   19.6837 C.3     1  UNL1        0.0650
     16 C           1.6702    2.9241   20.4970 C.3     1  UNL1        0.0960
     17 O           3.7095    0.2904   18.3395 O.3     1  UNL1       -0.4768
     18 C           4.4714   -0.8837   18.8789 C.ar    1  UNL1        0.1657
     19 C           4.1150   -2.2738   18.4423 C.ar    1  UNL1        0.0415
     20 C           4.8768   -3.4479   18.9817 C.ar    1  UNL1        0.0329
     21 C           5.9952   -3.2319   19.9578 C.ar    1  UNL1        0.1426
     22 F           6.7570   -4.4060   20.4973 F       1  UNL1       -0.2041
     23 C           6.3516   -1.8418   20.3945 C.ar    1  UNL1        0.0624
     24 C           5.5896   -0.6677   19.8550 C.ar    1  UNL1        0.1760
     25 F           5.9460    0.7224   20.2916 F       1  UNL1       -0.2009
     26 S          -4.9770    5.2640   26.3432 S.O2    1  UNL1        0.0592
     27 C          -6.0744    5.8838   27.1565 C.3     1  UNL1        0.1999
     28 O          -5.4046    6.0695   25.1523 O.2     1  UNL1       -0.1542
     29 O          -4.5493    4.4586   27.5341 O.2     1  UNL1       -0.1542
     30 N          -1.9642    3.3576   19.4121 N.pl3   1  UNL1       -0.3175
     31 H          -2.5145    2.6777   18.9603 H       1  UNL1        0.1482
     32 C          -1.3261    5.8333   18.9499 C.3     1  UNL1        0.0212
     33 C          -1.2190    4.3778   18.6035 C.3     1  UNL1        0.0706
     34 C          -0.3666    3.9425   17.4485 C.3     1  UNL1        0.0212
@<TRIPOS>BOND
     1    32    33    1
     2    33    34    1
     3    33    30    1
     4    30     1    1
     5     1     2   ar
     6     2     3   ar
     7     3     4   ar
     8     4     5   ar
     9     5     6   ar
    10     6    11    1
    11    11    12    1
    12    12    13    1
    13    13    14    1
    14    14    17    1
    15    17    18    1
    16    18    19   ar
    17    19    20   ar
    18    20    21   ar
    19    21    22    1
    20    21    23   ar
    21    23    24   ar
    22    24    25    1
    23    14    15    1
    24    15    16    1
    25     4     7    1
    26     7     8    2
    27     8     9    1
    28     9    26    1
    29    26    27    1
    30    26    28    2
    31    26    29    2
    32     9    10    1
    33     6     1   ar
    34    16    11    1
    35    10     3    1
    36    24    18   ar
    37    30    31    1
