@<TRIPOS>MOLECULE
*****
 25 28 0 0 0
SMALL
GASTEIGER

@<TRIPOS>ATOM
      1 N          -7.9421  -18.0698   22.3840 N.ar    1  UNL1       -0.3100
      2 C          -8.1986  -16.7584   23.0655 C.ar    1  UNL1        0.1317
      3 N          -9.4271  -16.1514   22.4553 N.ar    1  UNL1       -0.2300
      4 C          -9.9299  -17.0877   21.3967 C.ar    1  UNL1        0.0984
      5 C         -11.1048  -17.0138   20.4672 C.ar    1  UNL1        0.0206
      6 C         -11.3620  -18.1255   19.4937 C.ar    1  UNL1        0.0016
      7 C         -10.4442  -19.3111   19.4496 C.ar    1  UNL1        0.0016
      8 C          -9.2692  -19.3850   20.3790 C.ar    1  UNL1        0.0188
      9 C          -9.0121  -18.2733   21.3526 C.ar    1  UNL1        0.0789
     10 C          -7.3717  -16.1592   24.1643 C.3     1  UNL1        0.1199
     11 C          -6.0191  -15.5875   23.8585 C.3     1  UNL1        0.0871
     12 N          -5.1923  -14.9883   24.9572 N.3     1  UNL1       -0.2957
     13 C          -5.7180  -14.9608   26.3618 C.3     1  UNL1        0.0804
     14 C          -7.0707  -15.5324   26.6675 C.3     1  UNL1        0.0750
     15 S          -7.8975  -16.1317   25.5688 S.3     1  UNL1       -0.1306
     16 H          -5.0080  -14.0205   24.6928 H       1  UNL1        0.1233
     17 C          -6.8137  -19.0122   22.6816 C.3     1  UNL1        0.1339
     18 C          -2.9690  -18.7231   20.3611 C.ar    1  UNL1        0.1387
     19 C          -2.9790  -18.4402   21.8342 C.ar    1  UNL1        0.0366
     20 C          -4.2606  -18.5365   22.6076 C.ar    1  UNL1        0.0007
     21 C          -5.5322  -18.9159   21.9081 C.ar    1  UNL1        0.0006
     22 C          -5.5221  -19.1988   20.4350 C.ar    1  UNL1        0.0007
     23 C          -4.2405  -19.1025   19.6616 C.ar    1  UNL1        0.0366
     24 C          -0.5935  -17.7151   20.0592 C.3     1  UNL1        0.2525
     25 O          -1.6874  -18.6268   19.5876 O.3     1  UNL1       -0.4714
@<TRIPOS>BOND
     1    24    25    1
     2    25    18    1
     3    18    19   ar
     4    19    20   ar
     5    20    21   ar
     6    21    17    1
     7    17     1    1
     8     1     2   ar
     9     2    10    1
    10    10    11    1
    11    11    12    1
    12    12    13    1
    13    13    14    1
    14    14    15    1
    15     2     3   ar
    16     3     4   ar
    17     4     5   ar
    18     5     6   ar
    19     6     7   ar
    20     7     8   ar
    21     8     9   ar
    22    21    22   ar
    23    22    23   ar
    24    23    18   ar
    25     9     1   ar
    26    15    10    1
    27     9     4   ar
    28    12    16    1
@<TRIPOS>MOLECULE
*****
 25 28 0 0 0
SMALL
GASTEIGER

@<TRIPOS>ATOM
      1 N          -4.1700  -18.0712   22.4086 N.ar    1  UNL1       -0.3100
      2 C          -4.2482  -16.7208   23.0568 C.ar    1  UNL1        0.1317
      3 N          -3.0951  -15.9004   22.5594 N.ar    1  UNL1       -0.2300
      4 C          -2.3043  -16.7438   21.6037 C.ar    1  UNL1        0.0984
      5 C          -1.0651  -16.4635   20.8063 C.ar    1  UNL1        0.0206
      6 C          -0.4903  -17.5248   19.9157 C.ar    1  UNL1        0.0016
      7 C          -1.1547  -18.8665   19.8226 C.ar    1  UNL1        0.0016
      8 C          -2.3938  -19.1468   20.6199 C.ar    1  UNL1        0.0188
      9 C          -2.9686  -18.0855   21.5105 C.ar    1  UNL1        0.0789
     10 C          -5.2955  -16.2698   24.0314 C.3     1  UNL1        0.1199
     11 C          -4.9762  -16.1969   25.4952 C.3     1  UNL1        0.0871
     12 N          -6.0235  -15.7460   26.4697 N.3     1  UNL1       -0.2957
     13 C          -7.3901  -15.3680   25.9805 C.3     1  UNL1        0.0804
     14 C          -7.7095  -15.4410   24.5168 C.3     1  UNL1        0.0750
     15 S          -6.6621  -15.8919   23.5422 S.3     1  UNL1       -0.1306
     16 H          -5.6464  -14.9291   26.9502 H       1  UNL1        0.1233
     17 C          -5.1254  -19.2078   22.6211 C.3     1  UNL1        0.1339
     18 C          -9.0195  -19.3252   20.3689 C.ar    1  UNL1        0.1387
     19 C          -9.0211  -19.2969   21.8687 C.ar    1  UNL1        0.0366
     20 C          -7.7230  -19.2577   22.6194 C.ar    1  UNL1        0.0007
     21 C          -6.4234  -19.2470   21.8704 C.ar    1  UNL1        0.0006
     22 C          -6.4219  -19.2753   20.3707 C.ar    1  UNL1        0.0007
     23 C          -7.7200  -19.3144   19.6200 C.ar    1  UNL1        0.0366
     24 C         -11.2465  -18.1874   19.6645 C.3     1  UNL1        0.2525
     25 O         -10.3176  -19.3643   19.6183 O.3     1  UNL1       -0.4714
@<TRIPOS>BOND
     1    24    25    1
     2    25    18    1
     3    18    19   ar
     4    19    20   ar
     5    20    21   ar
     6    21    17    1
     7    17     1    1
     8     1     2   ar
     9     2    10    1
    10    10    11    1
    11    11    12    1
    12    12    13    1
    13    13    14    1
    14    14    15    1
    15     2     3   ar
    16     3     4   ar
    17     4     5   ar
    18     5     6   ar
    19     6     7   ar
    20     7     8   ar
    21     8     9   ar
    22    21    22   ar
    23    22    23   ar
    24    23    18   ar
    25     9     1   ar
    26    15    10    1
    27     9     4   ar
    28    12    16    1
@<TRIPOS>MOLECULE
*****
 25 28 0 0 0
SMALL
GASTEIGER

@<TRIPOS>ATOM
      1 N          -6.3883  -16.6750   23.6997 N.ar    1  UNL1       -0.3100
      2 C          -4.9096  -16.7391   23.9431 C.ar    1  UNL1        0.1317
      3 N          -4.6406  -16.1859   25.3112 N.ar    1  UNL1       -0.2300
      4 C          -5.9531  -15.7798   25.9133 C.ar    1  UNL1        0.0984
      5 C          -6.3042  -15.1739   27.2398 C.ar    1  UNL1        0.0206
      6 C          -7.7354  -14.8702   27.5703 C.ar    1  UNL1        0.0016
      7 C          -8.8156  -15.1725   26.5743 C.ar    1  UNL1        0.0016
      8 C          -8.4645  -15.7784   25.2479 C.ar    1  UNL1        0.0188
      9 C          -7.0332  -16.0821   24.9174 C.ar    1  UNL1        0.0789
     10 C          -3.8805  -17.2643   22.9864 C.3     1  UNL1        0.1199
     11 C          -2.8438  -16.3408   22.4187 C.3     1  UNL1        0.0871
     12 N          -1.8147  -16.8660   21.4620 N.3     1  UNL1       -0.2957
     13 C          -1.8224  -18.3146   21.0731 C.3     1  UNL1        0.0804
     14 C          -2.8592  -19.2381   21.6408 C.3     1  UNL1        0.0750
     15 S          -3.8882  -18.7129   22.5974 S.3     1  UNL1       -0.1306
     16 H          -0.9027  -16.6776   21.8781 H       1  UNL1        0.1233
     17 C          -7.0976  -17.1247   22.4569 C.3     1  UNL1        0.1339
     18 C         -11.5503  -17.7727   22.5168 C.ar    1  UNL1        0.1387
     19 C         -10.9830  -16.5175   21.9230 C.ar    1  UNL1        0.0366
     20 C          -9.4988  -16.3015   21.9030 C.ar    1  UNL1        0.0007
     21 C          -8.5818  -17.3407   22.4769 C.ar    1  UNL1        0.0006
     22 C          -9.1491  -18.5959   23.0707 C.ar    1  UNL1        0.0007
     23 C         -10.6334  -18.8119   23.0907 C.ar    1  UNL1        0.0366
     24 C         -13.7745  -17.9922   23.8417 C.3     1  UNL1        0.2525
     25 O         -13.0345  -17.9887   22.5368 O.3     1  UNL1       -0.4714
@<TRIPOS>BOND
     1    24    25    1
     2    25    18    1
     3    18    19   ar
     4    19    20   ar
     5    20    21   ar
     6    21    17    1
     7    17     1    1
     8     1     2   ar
     9     2    10    1
    10    10    11    1
    11    11    12    1
    12    12    13    1
    13    13    14    1
    14    14    15    1
    15     2     3   ar
    16     3     4   ar
    17     4     5   ar
    18     5     6   ar
    19     6     7   ar
    20     7     8   ar
    21     8     9   ar
    22    21    22   ar
    23    22    23   ar
    24    23    18   ar
    25     9     1   ar
    26    15    10    1
    27     9     4   ar
    28    12    16    1
@<TRIPOS>MOLECULE
*****
 25 28 0 0 0
SMALL
GASTEIGER

@<TRIPOS>ATOM
      1 N          -6.5022  -16.7588   23.6815 N.ar    1  UNL1       -0.3100
      2 C          -5.0158  -16.8148   23.8756 C.ar    1  UNL1        0.1317
      3 N          -4.7013  -16.2256   25.2187 N.ar    1  UNL1       -0.2300
      4 C          -5.9932  -15.8055   25.8547 C.ar    1  UNL1        0.0984
      5 C          -6.2998  -15.1654   27.1761 C.ar    1  UNL1        0.0206
      6 C          -7.7196  -14.8549   27.5475 C.ar    1  UNL1        0.0016
      7 C          -8.8326  -15.1844   26.5975 C.ar    1  UNL1        0.0016
      8 C          -8.5259  -15.8245   25.2760 C.ar    1  UNL1        0.0188
      9 C          -7.1062  -16.1350   24.9046 C.ar    1  UNL1        0.0789
     10 C          -4.0191  -17.3637   22.8982 C.3     1  UNL1        0.1199
     11 C          -4.0730  -18.8100   22.5044 C.3     1  UNL1        0.0871
     12 N          -3.0762  -19.3588   21.5270 N.3     1  UNL1       -0.2957
     13 C          -2.0256  -18.4613   20.9435 C.3     1  UNL1        0.0804
     14 C          -1.9716  -17.0150   21.3374 C.3     1  UNL1        0.0750
     15 S          -2.9684  -16.4662   22.3147 S.3     1  UNL1       -0.1306
     16 H          -3.6092  -19.7363   20.7435 H       1  UNL1        0.1233
     17 C          -7.2527  -17.2419   22.4760 C.3     1  UNL1        0.1339
     18 C         -11.7245  -17.7144   22.6496 C.ar    1  UNL1        0.1387
     19 C         -10.8359  -18.7564   23.2617 C.ar    1  UNL1        0.0366
     20 C          -9.3453  -18.5988   23.2039 C.ar    1  UNL1        0.0007
     21 C          -8.7432  -17.3993   22.5338 C.ar    1  UNL1        0.0006
     22 C          -9.6319  -16.3574   21.9217 C.ar    1  UNL1        0.0007
     23 C         -11.1225  -16.5150   21.9796 C.ar    1  UNL1        0.0366
     24 C         -13.8985  -18.0614   24.0293 C.3     1  UNL1        0.2525
     25 O         -13.2150  -17.8719   22.7074 O.3     1  UNL1       -0.4714
@<TRIPOS>BOND
     1    24    25    1
     2    25    18    1
     3    18    19   ar
     4    19    20   ar
     5    20    21   ar
     6    21    17    1
     7    17     1    1
     8     1     2   ar
     9     2    10    1
    10    10    11    1
    11    11    12    1
    12    12    13    1
    13    13    14    1
    14    14    15    1
    15     2     3   ar
    16     3     4   ar
    17     4     5   ar
    18     5     6   ar
    19     6     7   ar
    20     7     8   ar
    21     8     9   ar
    22    21    22   ar
    23    22    23   ar
    24    23    18   ar
    25     9     1   ar
    26    15    10    1
    27     9     4   ar
    28    12    16    1
@<TRIPOS>MOLECULE
*****
 25 28 0 0 0
SMALL
GASTEIGER

@<TRIPOS>ATOM
      1 N          -8.3170  -17.4519   21.9526 N.ar    1  UNL1       -0.3100
      2 C          -7.0530  -17.4537   22.7601 C.ar    1  UNL1        0.1317
      3 N          -6.1617  -18.5344   22.2236 N.ar    1  UNL1       -0.2300
      4 C          -6.8749  -19.2005   21.0844 C.ar    1  UNL1        0.0984
      5 C          -6.4835  -20.3297   20.1780 C.ar    1  UNL1        0.0206
      6 C          -7.4242  -20.7899   19.1041 C.ar    1  UNL1        0.0016
      7 C          -8.7562  -20.1209   18.9366 C.ar    1  UNL1        0.0016
      8 C          -9.1476  -18.9917   19.8430 C.ar    1  UNL1        0.0188
      9 C          -8.2070  -18.5314   20.9169 C.ar    1  UNL1        0.0789
     10 C          -6.7358  -16.5360   23.9035 C.3     1  UNL1        0.1199
     11 C          -7.8268  -16.0876   24.8301 C.3     1  UNL1        0.0871
     12 N          -7.5097  -15.1699   25.9734 N.3     1  UNL1       -0.2957
     13 C          -6.1016  -14.7006   26.1902 C.3     1  UNL1        0.0804
     14 C          -5.0106  -15.1491   25.2636 C.3     1  UNL1        0.0750
     15 S          -5.3277  -16.0668   24.1202 S.3     1  UNL1       -0.1306
     16 H          -7.7937  -15.6526   26.8259 H       1  UNL1        0.1233
     17 C          -9.4859  -16.5321   22.1465 C.3     1  UNL1        0.1339
     18 C         -13.2674  -18.0676   24.0417 C.ar    1  UNL1        0.1387
     19 C         -13.3326  -16.9743   23.0167 C.ar    1  UNL1        0.0366
     20 C         -12.0720  -16.4625   22.3850 C.ar    1  UNL1        0.0007
     21 C         -10.7463  -17.0439   22.7783 C.ar    1  UNL1        0.0006
     22 C         -10.6813  -18.1371   23.8033 C.ar    1  UNL1        0.0007
     23 C         -11.9418  -18.6489   24.4350 C.ar    1  UNL1        0.0366
     24 C         -14.6777  -18.5666   26.1660 C.3     1  UNL1        0.2525
     25 O         -14.5280  -18.5793   24.6734 O.3     1  UNL1       -0.4714
@<TRIPOS>BOND
     1    24    25    1
     2    25    18    1
     3    18    19   ar
     4    19    20   ar
     5    20    21   ar
     6    21    17    1
     7    17     1    1
     8     1     2   ar
     9     2    10    1
    10    10    11    1
    11    11    12    1
    12    12    13    1
    13    13    14    1
    14    14    15    1
    15     2     3   ar
    16     3     4   ar
    17     4     5   ar
    18     5     6   ar
    19     6     7   ar
    20     7     8   ar
    21     8     9   ar
    22    21    22   ar
    23    22    23   ar
    24    23    18   ar
    25     9     1   ar
    26    15    10    1
    27     9     4   ar
    28    12    16    1
@<TRIPOS>MOLECULE
*****
 25 28 0 0 0
SMALL
GASTEIGER

@<TRIPOS>ATOM
      1 N         -13.1859   -5.1335   18.1002 N.ar    1  UNL1       -0.3100
      2 C         -12.8299   -3.8508   18.7917 C.ar    1  UNL1        0.1317
      3 N         -11.4100   -3.9572   19.2634 N.ar    1  UNL1       -0.2300
      4 C         -10.8884   -5.3056   18.8636 C.ar    1  UNL1        0.0984
      5 C          -9.5559   -5.9654   19.0612 C.ar    1  UNL1        0.0206
      6 C          -9.3210   -7.3521   18.5400 C.ar    1  UNL1        0.0016
      7 C         -10.4186   -8.0790   17.8211 C.ar    1  UNL1        0.0016
      8 C         -11.7511   -7.4193   17.6234 C.ar    1  UNL1        0.0188
      9 C         -11.9860   -6.0326   18.1447 C.ar    1  UNL1        0.0789
     10 C         -13.7349   -2.6693   18.9785 C.3     1  UNL1        0.1199
     11 C         -14.7654   -2.6788   20.0684 C.3     1  UNL1        0.0871
     12 N         -15.6704   -1.4972   20.2552 N.3     1  UNL1       -0.2957
     13 C         -15.5448   -0.3061   19.3522 C.3     1  UNL1        0.0804
     14 C         -14.5143   -0.2966   18.2623 C.3     1  UNL1        0.0750
     15 S         -13.6093   -1.4782   18.0755 S.3     1  UNL1       -0.1306
     16 H         -15.5238   -1.1617   21.2073 H       1  UNL1        0.1233
     17 C         -14.5094   -5.4598   17.4742 C.3     1  UNL1        0.1339
     18 C         -17.6846   -7.5482   19.8839 C.ar    1  UNL1        0.1387
     19 C         -17.9406   -6.1757   19.3354 C.ar    1  UNL1        0.0366
     20 C         -16.8822   -5.4796   18.5322 C.ar    1  UNL1        0.0007
     21 C         -15.5677   -6.1559   18.2774 C.ar    1  UNL1        0.0006
     22 C         -15.3117   -7.5284   18.8259 C.ar    1  UNL1        0.0007
     23 C         -16.3702   -8.2245   19.6291 C.ar    1  UNL1        0.0366
     24 C         -20.1700   -7.7898   20.6013 C.3     1  UNL1        0.2525
     25 O         -18.7430   -8.2443   20.6871 O.3     1  UNL1       -0.4714
@<TRIPOS>BOND
     1    24    25    1
     2    25    18    1
     3    18    19   ar
     4    19    20   ar
     5    20    21   ar
     6    21    17    1
     7    17     1    1
     8     1     2   ar
     9     2    10    1
    10    10    11    1
    11    11    12    1
    12    12    13    1
    13    13    14    1
    14    14    15    1
    15     2     3   ar
    16     3     4   ar
    17     4     5   ar
    18     5     6   ar
    19     6     7   ar
    20     7     8   ar
    21     8     9   ar
    22    21    22   ar
    23    22    23   ar
    24    23    18   ar
    25     9     1   ar
    26    15    10    1
    27     9     4   ar
    28    12    16    1
@<TRIPOS>MOLECULE
*****
 25 28 0 0 0
SMALL
GASTEIGER

@<TRIPOS>ATOM
      1 N          -8.4855  -17.1492   21.8755 N.ar    1  UNL1       -0.3100
      2 C          -7.9511  -18.4807   21.4379 C.ar    1  UNL1        0.1317
      3 N          -9.1189  -19.3692   21.1267 N.ar    1  UNL1       -0.2300
      4 C         -10.3750  -18.5868   21.3720 C.ar    1  UNL1        0.0984
      5 C         -11.8246  -18.9464   21.2337 C.ar    1  UNL1        0.0206
      6 C         -12.8827  -17.9341   21.5583 C.ar    1  UNL1        0.0016
      7 C         -12.4912  -16.5620   22.0211 C.ar    1  UNL1        0.0016
      8 C         -11.0416  -16.2023   22.1594 C.ar    1  UNL1        0.0188
      9 C          -9.9835  -17.2147   21.8348 C.ar    1  UNL1        0.0789
     10 C          -6.5032  -18.8575   21.3304 C.3     1  UNL1        0.1199
     11 C          -5.6275  -18.8255   22.5477 C.3     1  UNL1        0.0871
     12 N          -4.1796  -19.2024   22.4402 N.3     1  UNL1       -0.2957
     13 C          -3.6074  -19.6112   21.1153 C.3     1  UNL1        0.0804
     14 C          -4.4832  -19.6433   19.8979 C.3     1  UNL1        0.0750
     15 S          -5.9310  -19.2664   20.0055 S.3     1  UNL1       -0.1306
     16 H          -4.0304  -19.9834   23.0790 H       1  UNL1        0.1233
     17 C          -7.6657  -15.9607   22.2825 C.3     1  UNL1        0.1339
     18 C          -6.9179  -15.1289   26.6412 C.ar    1  UNL1        0.1387
     19 C          -8.3151  -15.3745   26.1535 C.ar    1  UNL1        0.0366
     20 C          -8.5643  -15.6517   24.7006 C.ar    1  UNL1        0.0007
     21 C          -7.4164  -15.6835   23.7353 C.ar    1  UNL1        0.0006
     22 C          -6.0194  -15.4379   24.2232 C.ar    1  UNL1        0.0007
     23 C          -5.7702  -15.1607   25.6761 C.ar    1  UNL1        0.0366
     24 C          -6.9752  -13.4978   28.6627 C.3     1  UNL1        0.2525
     25 O          -6.6687  -14.8517   28.0942 O.3     1  UNL1       -0.4714
@<TRIPOS>BOND
     1    24    25    1
     2    25    18    1
     3    18    19   ar
     4    19    20   ar
     5    20    21   ar
     6    21    17    1
     7    17     1    1
     8     1     2   ar
     9     2    10    1
    10    10    11    1
    11    11    12    1
    12    12    13    1
    13    13    14    1
    14    14    15    1
    15     2     3   ar
    16     3     4   ar
    17     4     5   ar
    18     5     6   ar
    19     6     7   ar
    20     7     8   ar
    21     8     9   ar
    22    21    22   ar
    23    22    23   ar
    24    23    18   ar
    25     9     1   ar
    26    15    10    1
    27     9     4   ar
    28    12    16    1
@<TRIPOS>MOLECULE
*****
 25 28 0 0 0
SMALL
GASTEIGER

@<TRIPOS>ATOM
      1 N         -13.3478   -5.9891   18.8757 N.ar    1  UNL1       -0.3100
      2 C         -13.6937   -7.1065   17.9367 C.ar    1  UNL1        0.1317
      3 N         -12.5986   -7.2107   16.9170 N.ar    1  UNL1       -0.2300
      4 C         -11.5759   -6.1577   17.2257 C.ar    1  UNL1        0.0984
      5 C         -10.2829   -5.7888   16.5610 C.ar    1  UNL1        0.0206
      6 C          -9.4529   -4.6649   17.1068 C.ar    1  UNL1        0.0016
      7 C          -9.9160   -3.9099   18.3174 C.ar    1  UNL1        0.0016
      8 C         -11.2090   -4.2788   18.9821 C.ar    1  UNL1        0.0188
      9 C         -12.0390   -5.4027   18.4363 C.ar    1  UNL1        0.0789
     10 C         -14.9195   -7.9683   18.0054 C.3     1  UNL1        0.1199
     11 C         -14.8391   -9.3401   18.6069 C.3     1  UNL1        0.0871
     12 N         -16.0649  -10.2019   18.6756 N.3     1  UNL1       -0.2957
     13 C         -17.3710   -9.6920   18.1428 C.3     1  UNL1        0.0804
     14 C         -17.4514   -8.3203   17.5413 C.3     1  UNL1        0.0750
     15 S         -16.2257   -7.4585   17.4726 S.3     1  UNL1       -0.1306
     16 H         -16.2146  -10.4230   19.6600 H       1  UNL1        0.1233
     17 C         -14.1670   -5.5373   20.0483 C.3     1  UNL1        0.1339
     18 C         -16.6947   -1.8278   19.7319 C.ar    1  UNL1        0.1387
     19 C         -17.3330   -3.1813   19.6294 C.ar    1  UNL1        0.0366
     20 C         -16.4904   -4.4178   19.7348 C.ar    1  UNL1        0.0007
     21 C         -15.0095   -4.3008   19.9429 C.ar    1  UNL1        0.0006
     22 C         -14.3712   -2.9473   20.0454 C.ar    1  UNL1        0.0007
     23 C         -15.2138   -1.7108   19.9399 C.ar    1  UNL1        0.0366
     24 C         -18.8610   -0.5236   20.3288 C.3     1  UNL1        0.2525
     25 O         -17.5373   -0.5913   19.6265 O.3     1  UNL1       -0.4714
@<TRIPOS>BOND
     1    24    25    1
     2    25    18    1
     3    18    19   ar
     4    19    20   ar
     5    20    21   ar
     6    21    17    1
     7    17     1    1
     8     1     2   ar
     9     2    10    1
    10    10    11    1
    11    11    12    1
    12    12    13    1
    13    13    14    1
    14    14    15    1
    15     2     3   ar
    16     3     4   ar
    17     4     5   ar
    18     5     6   ar
    19     6     7   ar
    20     7     8   ar
    21     8     9   ar
    22    21    22   ar
    23    22    23   ar
    24    23    18   ar
    25     9     1   ar
    26    15    10    1
    27     9     4   ar
    28    12    16    1
@<TRIPOS>MOLECULE
*****
 25 28 0 0 0
SMALL
GASTEIGER

@<TRIPOS>ATOM
      1 N         -13.7290   -6.0319   19.4206 N.ar    1  UNL1       -0.3100
      2 C         -14.4922   -7.1547   18.7829 C.ar    1  UNL1        0.1317
      3 N         -13.5312   -7.9590   17.9586 N.ar    1  UNL1       -0.2300
      4 C         -12.1740   -7.3332   18.0867 C.ar    1  UNL1        0.0984
      5 C         -10.8427   -7.6941   17.4974 C.ar    1  UNL1        0.0206
      6 C          -9.6336   -6.8639   17.8117 C.ar    1  UNL1        0.0016
      7 C          -9.7558   -5.6728   18.7153 C.ar    1  UNL1        0.0016
      8 C         -11.0871   -5.3120   19.3046 C.ar    1  UNL1        0.0188
      9 C         -12.2962   -6.1422   18.9903 C.ar    1  UNL1        0.0789
     10 C         -15.9590   -7.4257   18.9417 C.3     1  UNL1        0.1199
     11 C         -16.9623   -6.5539   18.2466 C.3     1  UNL1        0.0871
     12 N         -18.4291   -6.8249   18.4054 N.3     1  UNL1       -0.2957
     13 C         -18.8925   -7.9677   19.2593 C.3     1  UNL1        0.0804
     14 C         -17.8891   -8.8395   19.9544 C.3     1  UNL1        0.0750
     15 S         -16.4224   -8.5685   19.7956 S.3     1  UNL1       -0.1306
     16 H         -18.8016   -6.9865   17.4698 H       1  UNL1        0.1233
     17 C         -14.2984   -4.9828   20.3290 C.3     1  UNL1        0.1339
     18 C         -15.3438   -0.9209   18.6987 C.ar    1  UNL1        0.1387
     19 C         -13.9060   -1.3134   18.8692 C.ar    1  UNL1        0.0366
     20 C         -13.5577   -2.6673   19.4127 C.ar    1  UNL1        0.0007
     21 C         -14.6469   -3.6289   19.7856 C.ar    1  UNL1        0.0006
     22 C         -16.0845   -3.2364   19.6150 C.ar    1  UNL1        0.0007
     23 C         -16.4329   -1.8825   19.0716 C.ar    1  UNL1        0.0366
     24 C         -16.3216    0.5578   16.7993 C.3     1  UNL1        0.2525
     25 O         -15.6922    0.4330   18.1552 O.3     1  UNL1       -0.4714
@<TRIPOS>BOND
     1    24    25    1
     2    25    18    1
     3    18    19   ar
     4    19    20   ar
     5    20    21   ar
     6    21    17    1
     7    17     1    1
     8     1     2   ar
     9     2    10    1
    10    10    11    1
    11    11    12    1
    12    12    13    1
    13    13    14    1
    14    14    15    1
    15     2     3   ar
    16     3     4   ar
    17     4     5   ar
    18     5     6   ar
    19     6     7   ar
    20     7     8   ar
    21     8     9   ar
    22    21    22   ar
    23    22    23   ar
    24    23    18   ar
    25     9     1   ar
    26    15    10    1
    27     9     4   ar
    28    12    16    1
