@<TRIPOS>MOLECULE
*****
 20 22 0 0 0
SMALL
GASTEIGER

@<TRIPOS>ATOM
      1 C          -8.8164  -17.7164   23.0202 C.3     1  UNL1        0.2082
      2 S          -8.9254  -16.3953   23.7224 S.3     1  UNL1       -0.0751
      3 C          -7.6853  -15.6298   24.0769 C.2     1  UNL1        0.0470
      4 C          -6.3359  -16.1851   23.7293 C.2     1  UNL1        0.0551
      5 C          -5.0957  -15.4195   24.0838 C.3     1  UNL1        0.0512
      6 N          -6.2268  -17.5061   23.0270 N.ar    1  UNL1       -0.2279
      7 C          -7.4671  -18.2717   22.6725 C.ar    1  UNL1        0.2066
      8 N          -7.0495  -19.5386   21.9864 N.ar    1  UNL1       -0.0545
      9 O          -5.5513  -19.5560   21.9170 O.2     1  UNL1       -0.2950
     10 C          -5.0428  -18.2998   22.5601 C.ar    1  UNL1        0.4470
     11 O          -3.6031  -17.9065   22.7100 O.2     1  UNL1       -0.2203
     12 C         -10.3077  -17.6064   23.1382 C.ar    1  UNL1        0.0189
     13 C         -11.0388  -16.5146   22.4148 C.ar    1  UNL1       -0.0007
     14 C         -12.5300  -16.4045   22.5328 C.ar    1  UNL1       -0.0002
     15 C         -13.2903  -17.3864   23.3743 C.ar    1  UNL1       -0.0000
     16 C         -12.5592  -18.4783   24.0977 C.ar    1  UNL1       -0.0002
     17 C         -11.0679  -18.5883   23.9797 C.ar    1  UNL1       -0.0007
     18 O          -9.2252  -18.9992   22.3590 O.3     1  UNL1       -0.3379
     19 C         -10.7865  -19.7723   20.4316 C.3     1  UNL1        0.0347
     20 C          -9.5824  -19.0114   20.9022 C.3     1  UNL1        0.1440
@<TRIPOS>BOND
     1    19    20    1
     2    20    18    1
     3    18     1    1
     4     1    12    1
     5    12    13   ar
     6    13    14   ar
     7    14    15   ar
     8    15    16   ar
     9    16    17   ar
    10     1     2    1
    11     2     3    1
    12     3     4    2
    13     4     5    1
    14     4     6    1
    15     6     7   ar
    16     7     8   ar
    17     8     9   ar
    18     9    10   ar
    19    10    11    2
    20     7     1    1
    21    17    12   ar
    22    10     6   ar
@<TRIPOS>MOLECULE
*****
 20 22 0 0 0
SMALL
GASTEIGER

@<TRIPOS>ATOM
      1 C          -7.0338  -18.8157   21.9978 C.3     1  UNL1        0.2082
      2 S          -6.8103  -20.0109   21.1192 S.3     1  UNL1       -0.0751
      3 C          -5.4164  -20.4067   20.7317 C.2     1  UNL1        0.0470
      4 C          -4.2459  -19.6075   21.2227 C.2     1  UNL1        0.0551
      5 C          -2.8519  -20.0034   20.8351 C.3     1  UNL1        0.0512
      6 N          -4.4693  -18.4124   22.1012 N.ar    1  UNL1       -0.2279
      7 C          -5.8632  -18.0165   22.4888 C.ar    1  UNL1        0.2066
      8 N          -5.7740  -16.7991   23.3606 N.ar    1  UNL1       -0.0545
      9 O          -4.3248  -16.4426   23.5118 O.2     1  UNL1       -0.2950
     10 C          -3.5185  -17.4397   22.7335 C.ar    1  UNL1        0.4470
     11 O          -2.0238  -17.4603   22.6093 O.2     1  UNL1       -0.2203
     12 C          -8.4531  -19.2526   21.7864 C.ar    1  UNL1        0.0189
     13 C          -9.2762  -19.7171   22.9512 C.ar    1  UNL1       -0.0007
     14 C         -10.6955  -20.1541   22.7399 C.ar    1  UNL1       -0.0002
     15 C         -11.2917  -20.1266   21.3637 C.ar    1  UNL1       -0.0000
     16 C         -10.4686  -19.6621   20.1989 C.ar    1  UNL1       -0.0002
     17 C          -9.0492  -19.2251   20.4103 C.ar    1  UNL1       -0.0007
     18 O          -7.7501  -17.7724   22.8029 O.3     1  UNL1       -0.3379
     19 C          -9.7516  -16.1374   22.5364 C.3     1  UNL1        0.0347
     20 C          -8.3889  -16.6022   22.1155 C.3     1  UNL1        0.1440
@<TRIPOS>BOND
     1    19    20    1
     2    20    18    1
     3    18     1    1
     4     1    12    1
     5    12    13   ar
     6    13    14   ar
     7    14    15   ar
     8    15    16   ar
     9    16    17   ar
    10     1     2    1
    11     2     3    1
    12     3     4    2
    13     4     5    1
    14     4     6    1
    15     6     7   ar
    16     7     8   ar
    17     8     9   ar
    18     9    10   ar
    19    10    11    2
    20     7     1    1
    21    17    12   ar
    22    10     6   ar
@<TRIPOS>MOLECULE
*****
 20 22 0 0 0
SMALL
GASTEIGER

@<TRIPOS>ATOM
      1 C          -8.5027  -17.8536   22.4543 C.3     1  UNL1        0.2082
      2 S          -9.0737  -18.9829   21.6487 S.3     1  UNL1       -0.0751
      3 C          -8.1584  -19.9688   20.9855 C.2     1  UNL1        0.0470
      4 C          -6.6720  -19.8256   21.1277 C.2     1  UNL1        0.0551
      5 C          -5.7567  -20.8116   20.4644 C.3     1  UNL1        0.0512
      6 N          -6.1010  -18.6965   21.9332 N.ar    1  UNL1       -0.2279
      7 C          -7.0164  -17.7104   22.5965 C.ar    1  UNL1        0.2066
      8 N          -6.1696  -16.7071   23.3219 N.ar    1  UNL1       -0.0545
      9 O          -4.7309  -17.0730   23.1070 O.2     1  UNL1       -0.2950
     10 C          -4.6885  -18.3025   22.2487 C.ar    1  UNL1        0.4470
     11 O          -3.4509  -19.0132   21.7870 O.2     1  UNL1       -0.2203
     12 C          -9.9674  -17.5706   22.6106 C.ar    1  UNL1        0.0189
     13 C         -10.5460  -16.2945   22.0750 C.ar    1  UNL1       -0.0007
     14 C         -12.0107  -16.0113   22.2312 C.ar    1  UNL1       -0.0002
     15 C         -12.8970  -17.0043   22.9231 C.ar    1  UNL1       -0.0000
     16 C         -12.3184  -18.2805   23.4586 C.ar    1  UNL1       -0.0002
     17 C         -10.8536  -18.5636   23.3023 C.ar    1  UNL1       -0.0007
     18 O          -8.4404  -16.6262   23.3140 O.3     1  UNL1       -0.3379
     19 C          -8.6383  -15.5061   25.6500 C.3     1  UNL1        0.0347
     20 C          -8.7861  -16.7127   24.7711 C.3     1  UNL1        0.1440
@<TRIPOS>BOND
     1    19    20    1
     2    20    18    1
     3    18     1    1
     4     1    12    1
     5    12    13   ar
     6    13    14   ar
     7    14    15   ar
     8    15    16   ar
     9    16    17   ar
    10     1     2    1
    11     2     3    1
    12     3     4    2
    13     4     5    1
    14     4     6    1
    15     6     7   ar
    16     7     8   ar
    17     8     9   ar
    18     9    10   ar
    19    10    11    2
    20     7     1    1
    21    17    12   ar
    22    10     6   ar
@<TRIPOS>MOLECULE
*****
 20 22 0 0 0
SMALL
GASTEIGER

@<TRIPOS>ATOM
      1 C          -8.3547  -17.2485   23.1211 C.3     1  UNL1        0.2082
      2 S          -9.4520  -17.3872   24.1345 S.3     1  UNL1       -0.0751
      3 C          -9.2957  -16.7801   25.4971 C.2     1  UNL1        0.0470
      4 C          -8.0420  -16.0344   25.8466 C.2     1  UNL1        0.0551
      5 C          -7.8857  -15.4274   27.2094 C.3     1  UNL1        0.0512
      6 N          -6.9447  -15.8957   24.8334 N.ar    1  UNL1       -0.2279
      7 C          -7.1010  -16.5028   23.4707 C.ar    1  UNL1        0.2066
      8 N          -5.8584  -16.2048   22.6851 N.ar    1  UNL1       -0.0545
      9 O          -4.9341  -15.4135   23.5623 O.2     1  UNL1       -0.2950
     10 C          -5.6054  -15.2225   24.8901 C.ar    1  UNL1        0.4470
     11 O          -5.0373  -14.4874   26.0677 O.2     1  UNL1       -0.2203
     12 C          -9.3470  -18.0418   22.3236 C.ar    1  UNL1        0.0189
     13 C          -9.9361  -17.4637   21.0711 C.ar    1  UNL1       -0.0007
     14 C         -10.9284  -18.2568   20.2735 C.ar    1  UNL1       -0.0002
     15 C         -11.3317  -19.6282   20.7284 C.ar    1  UNL1       -0.0000
     16 C         -10.7426  -20.2063   21.9810 C.ar    1  UNL1       -0.0002
     17 C          -9.7502  -19.4130   22.7786 C.ar    1  UNL1       -0.0007
     18 O          -7.6020  -17.3853   21.8310 O.3     1  UNL1       -0.3379
     19 C          -6.7316  -19.1641   20.1491 C.3     1  UNL1        0.0347
     20 C          -6.8172  -18.6322   21.5491 C.3     1  UNL1        0.1440
@<TRIPOS>BOND
     1    19    20    1
     2    20    18    1
     3    18     1    1
     4     1    12    1
     5    12    13   ar
     6    13    14   ar
     7    14    15   ar
     8    15    16   ar
     9    16    17   ar
    10     1     2    1
    11     2     3    1
    12     3     4    2
    13     4     5    1
    14     4     6    1
    15     6     7   ar
    16     7     8   ar
    17     8     9   ar
    18     9    10   ar
    19    10    11    2
    20     7     1    1
    21    17    12   ar
    22    10     6   ar
@<TRIPOS>MOLECULE
*****
 20 22 0 0 0
SMALL
GASTEIGER

@<TRIPOS>ATOM
      1 C          -6.7854  -18.8985   21.9052 C.3     1  UNL1        0.2082
      2 S          -6.5801  -17.8120   22.9188 S.3     1  UNL1       -0.0751
      3 C          -5.1910  -17.4147   23.3214 C.2     1  UNL1        0.0470
      4 C          -4.0070  -18.1038   22.7105 C.2     1  UNL1        0.0551
      5 C          -2.6177  -17.7064   23.1132 C.3     1  UNL1        0.0512
      6 N          -4.2122  -19.1902   21.6969 N.ar    1  UNL1       -0.2279
      7 C          -5.6014  -19.5876   21.2942 C.ar    1  UNL1        0.2066
      8 N          -5.4934  -20.6854   20.2778 N.ar    1  UNL1       -0.0545
      9 O          -4.0373  -20.9665   20.0522 O.2     1  UNL1       -0.2950
     10 C          -3.2455  -20.0424   20.9293 C.ar    1  UNL1        0.4470
     11 O          -1.7496  -19.9813   21.0223 O.2     1  UNL1       -0.2203
     12 C          -8.2128  -18.5439   22.1997 C.ar    1  UNL1        0.0189
     13 C          -8.6885  -17.1333   22.0157 C.ar    1  UNL1       -0.0007
     14 C         -10.1158  -16.7785   22.3102 C.ar    1  UNL1       -0.0002
     15 C         -11.0677  -17.8345   22.7887 C.ar    1  UNL1       -0.0000
     16 C         -10.5921  -19.2452   22.9727 C.ar    1  UNL1       -0.0002
     17 C          -9.1646  -19.5999   22.6782 C.ar    1  UNL1       -0.0007
     18 O          -7.4864  -19.8619   20.9939 O.3     1  UNL1       -0.3379
     19 C          -9.0711  -20.1069   18.9496 C.3     1  UNL1        0.0347
     20 C          -7.9232  -19.4202   19.6285 C.3     1  UNL1        0.1440
@<TRIPOS>BOND
     1    19    20    1
     2    20    18    1
     3    18     1    1
     4     1    12    1
     5    12    13   ar
     6    13    14   ar
     7    14    15   ar
     8    15    16   ar
     9    16    17   ar
    10     1     2    1
    11     2     3    1
    12     3     4    2
    13     4     5    1
    14     4     6    1
    15     6     7   ar
    16     7     8   ar
    17     8     9   ar
    18     9    10   ar
    19    10    11    2
    20     7     1    1
    21    17    12   ar
    22    10     6   ar
@<TRIPOS>MOLECULE
*****
 20 22 0 0 0
SMALL
GASTEIGER

@<TRIPOS>ATOM
      1 C          -8.1009  -17.0214   22.9679 C.3     1  UNL1        0.2082
      2 S          -9.2712  -16.6089   23.8108 S.3     1  UNL1       -0.0751
      3 C         -10.6669  -16.9283   23.3641 C.2     1  UNL1        0.0470
      4 C         -10.8926  -17.6603   22.0745 C.2     1  UNL1        0.0551
      5 C         -12.2885  -17.9797   21.6278 C.3     1  UNL1        0.0512
      6 N          -9.7225  -18.0728   21.2315 N.ar    1  UNL1       -0.2279
      7 C          -8.3266  -17.7534   21.6782 C.ar    1  UNL1        0.2066
      8 N          -7.3767  -18.2831   20.6453 N.ar    1  UNL1       -0.0545
      9 O          -8.1855  -18.9299   19.5602 O.2     1  UNL1       -0.2950
     10 C          -9.6353  -18.8000   19.9225 C.ar    1  UNL1        0.4470
     11 O         -10.7943  -19.3080   19.1171 O.2     1  UNL1       -0.2203
     12 C          -7.3822  -16.3519   24.1015 C.ar    1  UNL1        0.0189
     13 C          -7.9844  -16.3515   25.4754 C.ar    1  UNL1       -0.0007
     14 C          -7.2658  -15.6821   26.6091 C.ar    1  UNL1       -0.0002
     15 C          -5.9449  -15.0130   26.3691 C.ar    1  UNL1       -0.0000
     16 C          -5.3427  -15.0134   24.9952 C.ar    1  UNL1       -0.0002
     17 C          -6.0614  -15.6828   23.8615 C.ar    1  UNL1       -0.0007
     18 O          -6.6812  -17.2014   22.5186 O.3     1  UNL1       -0.3379
     19 C          -4.5037  -18.6124   22.6522 C.3     1  UNL1        0.0347
     20 C          -6.0006  -18.5263   22.6961 C.3     1  UNL1        0.1440
@<TRIPOS>BOND
     1    19    20    1
     2    20    18    1
     3    18     1    1
     4     1    12    1
     5    12    13   ar
     6    13    14   ar
     7    14    15   ar
     8    15    16   ar
     9    16    17   ar
    10     1     2    1
    11     2     3    1
    12     3     4    2
    13     4     5    1
    14     4     6    1
    15     6     7   ar
    16     7     8   ar
    17     8     9   ar
    18     9    10   ar
    19    10    11    2
    20     7     1    1
    21    17    12   ar
    22    10     6   ar
@<TRIPOS>MOLECULE
*****
 20 22 0 0 0
SMALL
GASTEIGER

@<TRIPOS>ATOM
      1 C         -11.6496   -3.4440   18.5549 C.3     1  UNL1        0.2082
      2 S         -12.7672   -4.2027   19.2072 S.3     1  UNL1       -0.0751
      3 C         -14.0216   -3.4880   19.6138 C.2     1  UNL1        0.0470
      4 C         -14.1587   -2.0146   19.3681 C.2     1  UNL1        0.0551
      5 C         -15.4132   -1.3000   19.7748 C.3     1  UNL1        0.0512
      6 N         -13.0412   -1.2559   18.7158 N.ar    1  UNL1       -0.2279
      7 C         -11.7866   -1.9706   18.3092 C.ar    1  UNL1        0.2066
      8 N         -10.8605   -0.9659   17.6904 N.ar    1  UNL1       -0.0545
      9 O         -11.5427    0.3698   17.7147 O.2     1  UNL1       -0.2950
     10 C         -12.8904    0.1905   18.3484 C.ar    1  UNL1        0.4470
     11 O         -13.9086    1.2685   18.5749 O.2     1  UNL1       -0.2203
     12 C         -11.0525   -4.8198   18.5767 C.ar    1  UNL1        0.0189
     13 C          -9.7613   -5.0657   19.2994 C.ar    1  UNL1       -0.0007
     14 C          -9.1641   -6.4415   19.3213 C.ar    1  UNL1       -0.0002
     15 C          -9.8582   -7.5716   18.6204 C.ar    1  UNL1       -0.0000
     16 C         -11.1494   -7.3257   17.8976 C.ar    1  UNL1       -0.0002
     17 C         -11.7466   -5.9499   17.8757 C.ar    1  UNL1       -0.0007
     18 O         -10.3247   -3.1631   17.9101 O.3     1  UNL1       -0.3379
     19 C          -8.7235   -3.8483   15.9823 C.3     1  UNL1        0.0347
     20 C         -10.1025   -3.5142   16.4688 C.3     1  UNL1        0.1440
@<TRIPOS>BOND
     1    19    20    1
     2    20    18    1
     3    18     1    1
     4     1    12    1
     5    12    13   ar
     6    13    14   ar
     7    14    15   ar
     8    15    16   ar
     9    16    17   ar
    10     1     2    1
    11     2     3    1
    12     3     4    2
    13     4     5    1
    14     4     6    1
    15     6     7   ar
    16     7     8   ar
    17     8     9   ar
    18     9    10   ar
    19    10    11    2
    20     7     1    1
    21    17    12   ar
    22    10     6   ar
@<TRIPOS>MOLECULE
*****
 20 22 0 0 0
SMALL
GASTEIGER

@<TRIPOS>ATOM
      1 C          -8.3913  -17.6055   22.8948 C.3     1  UNL1        0.2082
      2 S          -7.3892  -18.4441   22.1582 S.3     1  UNL1       -0.0751
      3 C          -5.9217  -18.2251   22.3779 C.2     1  UNL1        0.0470
      4 C          -5.4561  -17.1675   23.3343 C.2     1  UNL1        0.0551
      5 C          -3.9886  -16.9484   23.5540 C.3     1  UNL1        0.0512
      6 N          -6.4582  -16.3288   24.0709 N.ar    1  UNL1       -0.2279
      7 C          -7.9257  -16.5478   23.8512 C.ar    1  UNL1        0.2066
      8 N          -8.6739  -15.5743   24.7129 N.ar    1  UNL1       -0.0545
      9 O          -7.6686  -14.7536   25.4652 O.2     1  UNL1       -0.2950
     10 C          -6.2993  -15.2199   25.0684 C.ar    1  UNL1        0.4470
     11 O          -4.9993  -14.6733   25.5795 O.2     1  UNL1       -0.2203
     12 C          -9.3163  -18.4770   22.0982 C.ar    1  UNL1        0.0189
     13 C         -10.2426  -19.4257   22.7996 C.ar    1  UNL1       -0.0007
     14 C         -11.1677  -20.2973   22.0030 C.ar    1  UNL1       -0.0002
     15 C         -11.1665  -20.2203   20.5050 C.ar    1  UNL1       -0.0000
     16 C         -10.2402  -19.2716   19.8036 C.ar    1  UNL1       -0.0002
     17 C          -9.3151  -18.4000   20.6002 C.ar    1  UNL1       -0.0007
     18 O          -9.7145  -17.0696   23.3548 O.3     1  UNL1       -0.3379
     19 C         -12.0091  -16.1208   22.5898 C.3     1  UNL1        0.0347
     20 C         -10.5162  -16.1770   22.4544 C.3     1  UNL1        0.1440
@<TRIPOS>BOND
     1    19    20    1
     2    20    18    1
     3    18     1    1
     4     1    12    1
     5    12    13   ar
     6    13    14   ar
     7    14    15   ar
     8    15    16   ar
     9    16    17   ar
    10     1     2    1
    11     2     3    1
    12     3     4    2
    13     4     5    1
    14     4     6    1
    15     6     7   ar
    16     7     8   ar
    17     8     9   ar
    18     9    10   ar
    19    10    11    2
    20     7     1    1
    21    17    12   ar
    22    10     6   ar
@<TRIPOS>MOLECULE
*****
 20 22 0 0 0
SMALL
GASTEIGER

@<TRIPOS>ATOM
      1 C          -7.1159  -18.5472   21.1350 C.3     1  UNL1        0.2082
      2 S          -7.7843  -19.4521   20.1428 S.3     1  UNL1       -0.0751
      3 C          -9.2780  -19.4419   20.0060 C.2     1  UNL1        0.0470
      4 C         -10.1033  -18.5268   20.8612 C.2     1  UNL1        0.0551
      5 C         -11.5970  -18.5167   20.7243 C.3     1  UNL1        0.0512
      6 N          -9.4349  -17.6219   21.8533 N.ar    1  UNL1       -0.2279
      7 C          -7.9412  -17.6321   21.9902 C.ar    1  UNL1        0.2066
      8 N          -7.5657  -16.6358   23.0469 N.ar    1  UNL1       -0.0545
      9 O          -8.8274  -16.0100   23.5630 O.2     1  UNL1       -0.2950
     10 C          -9.9826  -16.6194   22.8254 C.ar    1  UNL1        0.4470
     11 O         -11.4312  -16.2849   23.0248 O.2     1  UNL1       -0.2203
     12 C          -5.9135  -19.2304   20.5542 C.ar    1  UNL1        0.0189
     13 C          -4.8128  -18.4175   19.9396 C.ar    1  UNL1       -0.0007
     14 C          -3.6103  -19.1007   19.3588 C.ar    1  UNL1       -0.0002
     15 C          -3.5085  -20.5969   19.3926 C.ar    1  UNL1       -0.0000
     16 C          -4.6092  -21.4098   20.0072 C.ar    1  UNL1       -0.0002
     17 C          -5.8117  -20.7266   20.5880 C.ar    1  UNL1       -0.0007
     18 O          -6.0299  -17.8795   21.9254 O.3     1  UNL1       -0.3379
     19 C          -3.8976  -18.0795   23.3963 C.3     1  UNL1        0.0347
     20 C          -5.1269  -18.6983   22.7997 C.3     1  UNL1        0.1440
@<TRIPOS>BOND
     1    19    20    1
     2    20    18    1
     3    18     1    1
     4     1    12    1
     5    12    13   ar
     6    13    14   ar
     7    14    15   ar
     8    15    16   ar
     9    16    17   ar
    10     1     2    1
    11     2     3    1
    12     3     4    2
    13     4     5    1
    14     4     6    1
    15     6     7   ar
    16     7     8   ar
    17     8     9   ar
    18     9    10   ar
    19    10    11    2
    20     7     1    1
    21    17    12   ar
    22    10     6   ar
