@<TRIPOS>MOLECULE
*****
 32 34 0 0 0
SMALL
GASTEIGER

@<TRIPOS>ATOM
      1 C         -10.1436  -19.0641   19.6886 C.3     1  UNL1        0.1384
      2 N         -10.0451  -18.1452   20.8700 N.ar    1  UNL1       -0.2481
      3 C          -8.7110  -17.8741   21.5001 C.ar    1  UNL1        0.2113
      4 C          -8.6125  -16.9551   22.6816 C.ar    1  UNL1        0.1488
      5 C          -9.8479  -16.3073   23.2329 C.ar    1  UNL1        0.2696
      6 O          -9.7494  -15.3883   24.4144 O.2     1  UNL1       -0.2669
      7 N         -11.1819  -16.5784   22.6029 N.ar    1  UNL1       -0.2467
      8 C         -12.4174  -15.9305   23.1542 C.3     1  UNL1        0.1382
      9 C         -11.2805  -17.4973   21.4214 C.ar    1  UNL1        0.3363
     10 O         -12.6145  -17.7684   20.7913 O.2     1  UNL1       -0.2461
     11 C          -7.2785  -16.6840   23.3116 C.3     1  UNL1        0.3731
     12 N          -6.0431  -17.3319   22.7603 N.2     1  UNL1       -0.0517
     13 C          -6.1417  -18.2508   21.5788 C.2     1  UNL1        0.3217
     14 N          -7.4756  -18.5219   20.9487 N.pl3   1  UNL1       -0.1852
     15 H          -7.5403  -19.1251   20.1733 H       1  UNL1        0.2999
     16 C          -4.9062  -18.8987   21.0275 C.ar    1  UNL1        0.0882
     17 C          -4.9611  -20.3101   20.5225 C.ar    1  UNL1        0.0078
     18 C          -3.7256  -20.9580   19.9712 C.ar    1  UNL1        0.0065
     19 C          -2.4353  -20.1944   19.9248 C.ar    1  UNL1        0.0753
     20 C          -2.3805  -18.7829   20.4297 C.ar    1  UNL1        0.2903
     21 C          -3.6159  -18.1351   20.9811 C.ar    1  UNL1        0.0826
     22 N          -1.0902  -18.0194   20.3833 N.pl3   1  UNL1        0.0809
     23 O          -1.0508  -16.5859   20.8231 O.2     1  UNL1        0.0415
     24 O           0.1607  -18.6894   19.8971 O.co2   1  UNL1       -0.5760
     25 C          -6.2495  -16.1199   24.2459 C.3     1  UNL1        0.4512
     26 F          -5.2204  -15.5557   25.1801 F       1  UNL1       -0.1654
     27 F          -6.4617  -16.5400   24.8893 F       1  UNL1       -0.1654
     28 F          -5.7209  -15.2542   23.1409 F       1  UNL1       -0.1654
     29 C          -8.1566  -15.8402   24.1875 C.3     1  UNL1        0.4512
     30 F          -9.0346  -14.9964   25.0633 F       1  UNL1       -0.1654
     31 F          -7.9873  -14.7109   23.7726 F       1  UNL1       -0.1654
     32 F          -8.4425  -16.4326   24.6379 F       1  UNL1       -0.1654
@<TRIPOS>UNITY_ATOM_ATTR
22 1
charge 1
24 1
charge -1
@<TRIPOS>BOND
     1     1     2    1
     2     2     3   ar
     3     3     4   ar
     4     4     5   ar
     5     5     6    2
     6     5     7   ar
     7     7     8    1
     8     7     9   ar
     9     9    10    2
    10     4    11    1
    11    11    25    1
    12    25    26    1
    13    25    27    1
    14    25    28    1
    15    11    29    1
    16    29    30    1
    17    29    31    1
    18    29    32    1
    19    11    12    1
    20    12    13    2
    21    13    16    1
    22    16    17   ar
    23    17    18   ar
    24    18    19   ar
    25    19    20   ar
    26    20    22    1
    27    22    23    2
    28    22    24    1
    29    20    21   ar
    30    13    14    1
    31     9     2   ar
    32    21    16   ar
    33    14     3    1
    34    14    15    1
@<TRIPOS>MOLECULE
*****
 32 34 0 0 0
SMALL
GASTEIGER

@<TRIPOS>ATOM
      1 C          -6.4618  -19.6097   20.4402 C.3     1  UNL1        0.1384
      2 N          -5.9931  -18.7150   21.5493 N.ar    1  UNL1       -0.2481
      3 C          -6.9922  -17.9817   22.3943 C.ar    1  UNL1        0.2113
      4 C          -6.5235  -17.0870   23.5034 C.ar    1  UNL1        0.1488
      5 C          -5.0557  -16.9258   23.7674 C.ar    1  UNL1        0.2696
      6 O          -4.5870  -16.0312   24.8764 O.2     1  UNL1       -0.2669
      7 N          -4.0567  -17.6591   22.9224 N.ar    1  UNL1       -0.2467
      8 C          -2.5888  -17.4979   23.1864 C.3     1  UNL1        0.1382
      9 C          -4.5253  -18.5538   21.8133 C.ar    1  UNL1        0.3363
     10 O          -3.5262  -19.2871   20.9683 O.2     1  UNL1       -0.2461
     11 C          -7.5225  -16.3537   24.3484 C.3     1  UNL1        0.3731
     12 N          -8.9902  -16.5150   24.0844 N.2     1  UNL1       -0.0517
     13 C          -9.4589  -17.4096   22.9753 C.2     1  UNL1        0.3217
     14 N          -8.4599  -18.1429   22.1303 N.pl3   1  UNL1       -0.1852
     15 H          -8.7675  -18.7301   21.4024 H       1  UNL1        0.2999
     16 C         -10.9267  -17.5708   22.7113 C.ar    1  UNL1        0.0882
     17 C         -11.4714  -17.3344   21.3339 C.ar    1  UNL1        0.0078
     18 C         -12.9392  -17.4957   21.0699 C.ar    1  UNL1        0.0065
     19 C         -13.8623  -17.8934   22.1834 C.ar    1  UNL1        0.0753
     20 C         -13.3175  -18.1298   23.5609 C.ar    1  UNL1        0.2903
     21 C         -11.8498  -17.9685   23.8248 C.ar    1  UNL1        0.0826
     22 N         -14.2405  -18.5274   24.6744 N.pl3   1  UNL1        0.0809
     23 O         -15.6789  -18.8366   24.3820 O.2     1  UNL1        0.0415
     24 O         -13.7251  -18.6159   26.0803 O.co2   1  UNL1       -0.5760
     25 C          -8.0789  -15.4560   25.4136 C.3     1  UNL1        0.4512
     26 F          -8.6354  -14.5585   26.4788 F       1  UNL1       -0.1654
     27 F          -7.8250  -14.7673   25.1027 F       1  UNL1       -0.1654
     28 F          -8.6286  -16.6515   26.1338 F       1  UNL1       -0.1654
     29 C          -6.2480  -15.8807   24.9824 C.3     1  UNL1        0.4512
     30 F          -4.9735  -15.4077   25.6164 F       1  UNL1       -0.1654
     31 F          -6.2270  -16.4461   26.0575 F       1  UNL1       -0.1654
     32 F          -6.0119  -15.4083   24.3852 F       1  UNL1       -0.1654
@<TRIPOS>UNITY_ATOM_ATTR
22 1
charge 1
24 1
charge -1
@<TRIPOS>BOND
     1     1     2    1
     2     2     3   ar
     3     3     4   ar
     4     4     5   ar
     5     5     6    2
     6     5     7   ar
     7     7     8    1
     8     7     9   ar
     9     9    10    2
    10     4    11    1
    11    11    25    1
    12    25    26    1
    13    25    27    1
    14    25    28    1
    15    11    29    1
    16    29    30    1
    17    29    31    1
    18    29    32    1
    19    11    12    1
    20    12    13    2
    21    13    16    1
    22    16    17   ar
    23    17    18   ar
    24    18    19   ar
    25    19    20   ar
    26    20    22    1
    27    22    23    2
    28    22    24    1
    29    20    21   ar
    30    13    14    1
    31     9     2   ar
    32    21    16   ar
    33    14     3    1
    34    14    15    1
@<TRIPOS>MOLECULE
*****
 32 34 0 0 0
SMALL
GASTEIGER

@<TRIPOS>ATOM
      1 C          -4.4323  -16.0067   23.6145 C.3     1  UNL1        0.1384
      2 N          -4.0923  -17.0308   22.5725 N.ar    1  UNL1       -0.2481
      3 C          -5.1318  -18.0121   22.1180 C.ar    1  UNL1        0.2113
      4 C          -4.7917  -19.0361   21.0760 C.ar    1  UNL1        0.1488
      5 C          -3.4121  -19.0788   20.4886 C.ar    1  UNL1        0.2696
      6 O          -3.0721  -20.1028   19.4466 O.2     1  UNL1       -0.2669
      7 N          -2.3727  -18.0975   20.9431 N.ar    1  UNL1       -0.2467
      8 C          -0.9931  -18.1403   20.3557 C.3     1  UNL1        0.1382
      9 C          -2.7128  -17.0735   21.9851 C.ar    1  UNL1        0.3363
     10 O          -1.6733  -16.0922   22.4396 O.2     1  UNL1       -0.2461
     11 C          -5.8311  -20.0174   20.6215 C.3     1  UNL1        0.3731
     12 N          -7.2106  -19.9746   21.2089 N.2     1  UNL1       -0.0517
     13 C          -7.5507  -18.9506   22.2509 C.2     1  UNL1        0.3217
     14 N          -6.5113  -17.9693   22.7054 N.pl3   1  UNL1       -0.1852
     15 H          -6.7345  -17.2972   23.3893 H       1  UNL1        0.2999
     16 C          -8.9303  -18.9079   22.8383 C.ar    1  UNL1        0.0882
     17 C          -9.2754  -19.7831   24.0065 C.ar    1  UNL1        0.0078
     18 C         -10.6550  -19.7404   24.5939 C.ar    1  UNL1        0.0065
     19 C         -11.6894  -18.8224   24.0131 C.ar    1  UNL1        0.0753
     20 C         -11.3441  -17.9471   22.8449 C.ar    1  UNL1        0.2903
     21 C          -9.9646  -17.9898   22.2575 C.ar    1  UNL1        0.0826
     22 N         -12.3785  -17.0291   22.2640 N.pl3   1  UNL1        0.0809
     23 O         -13.2721  -17.5095   21.1592 O.2     1  UNL1        0.0415
     24 O         -12.5192  -15.6306   22.7881 O.co2   1  UNL1       -0.5760
     25 C          -6.4684  -21.1502   19.8725 C.3     1  UNL1        0.4512
     26 F          -7.1056  -22.2828   19.1237 F       1  UNL1       -0.1654
     27 F          -6.0163  -21.7330   20.1749 F       1  UNL1       -0.1654
     28 F          -7.4036  -20.1843   19.2074 F       1  UNL1       -0.1654
     29 C          -4.6729  -20.4535   19.7739 C.3     1  UNL1        0.4512
     30 F          -3.5147  -20.8897   18.9264 F       1  UNL1       -0.1654
     31 F          -4.1700  -21.3601   20.4074 F       1  UNL1       -0.1654
     32 F          -4.7831  -19.9306   19.1823 F       1  UNL1       -0.1654
@<TRIPOS>UNITY_ATOM_ATTR
22 1
charge 1
24 1
charge -1
@<TRIPOS>BOND
     1     1     2    1
     2     2     3   ar
     3     3     4   ar
     4     4     5   ar
     5     5     6    2
     6     5     7   ar
     7     7     8    1
     8     7     9   ar
     9     9    10    2
    10     4    11    1
    11    11    25    1
    12    25    26    1
    13    25    27    1
    14    25    28    1
    15    11    29    1
    16    29    30    1
    17    29    31    1
    18    29    32    1
    19    11    12    1
    20    12    13    2
    21    13    16    1
    22    16    17   ar
    23    17    18   ar
    24    18    19   ar
    25    19    20   ar
    26    20    22    1
    27    22    23    2
    28    22    24    1
    29    20    21   ar
    30    13    14    1
    31     9     2   ar
    32    21    16   ar
    33    14     3    1
    34    14    15    1
@<TRIPOS>MOLECULE
*****
 32 34 0 0 0
SMALL
GASTEIGER

@<TRIPOS>ATOM
      1 C          -8.2766  -19.8647   19.1182 C.3     1  UNL1        0.1384
      2 N          -8.9432  -19.0123   20.1570 N.ar    1  UNL1       -0.2481
      3 C          -8.1194  -18.3286   21.2077 C.ar    1  UNL1        0.2113
      4 C          -8.7860  -17.4762   22.2464 C.ar    1  UNL1        0.1488
      5 C         -10.2764  -17.3074   22.2345 C.ar    1  UNL1        0.2696
      6 O         -10.9430  -16.4549   23.2732 O.2     1  UNL1       -0.2669
      7 N         -11.1002  -17.9910   21.1838 N.ar    1  UNL1       -0.2467
      8 C         -12.5907  -17.8223   21.1718 C.3     1  UNL1        0.1382
      9 C         -10.4336  -18.8435   20.1451 C.ar    1  UNL1        0.3363
     10 O         -11.2575  -19.5272   19.0944 O.2     1  UNL1       -0.2461
     11 C          -7.9622  -16.7925   23.2971 C.3     1  UNL1        0.3731
     12 N          -6.4718  -16.9613   23.3090 N.2     1  UNL1       -0.0517
     13 C          -5.8052  -17.8137   22.2703 C.2     1  UNL1        0.3217
     14 N          -6.6290  -18.4974   21.2196 N.pl3   1  UNL1       -0.1852
     15 H          -6.1915  -19.0569   20.5378 H       1  UNL1        0.2999
     16 C          -4.3147  -17.9825   22.2822 C.ar    1  UNL1        0.0882
     17 C          -3.5632  -17.9198   23.5788 C.ar    1  UNL1        0.0078
     18 C          -2.0727  -18.0885   23.5908 C.ar    1  UNL1        0.0065
     19 C          -1.3338  -18.3200   22.3061 C.ar    1  UNL1        0.0753
     20 C          -2.0854  -18.3827   21.0094 C.ar    1  UNL1        0.2903
     21 C          -3.5758  -18.2140   20.9975 C.ar    1  UNL1        0.0826
     22 N          -1.3465  -18.6142   19.7247 N.pl3   1  UNL1        0.0809
     23 O          -2.0836  -18.5793   18.4188 O.2     1  UNL1        0.0415
     24 O           0.1295  -18.8806   19.7460 O.co2   1  UNL1       -0.5760
     25 C          -7.6140  -15.9484   24.4872 C.3     1  UNL1        0.4512
     26 F          -7.2658  -15.1043   25.6772 F       1  UNL1       -0.1654
     27 F          -7.7691  -16.4972   25.0442 F       1  UNL1       -0.1654
     28 F          -7.2772  -14.8045   23.5772 F       1  UNL1       -0.1654
     29 C          -9.3317  -16.3306   23.6985 C.3     1  UNL1        0.4512
     30 F         -10.7012  -15.8687   24.0999 F       1  UNL1       -0.1654
     31 F          -9.6595  -17.1078   24.5729 F       1  UNL1       -0.1654
     32 F          -9.3805  -15.7182   23.1904 F       1  UNL1       -0.1654
@<TRIPOS>UNITY_ATOM_ATTR
22 1
charge 1
24 1
charge -1
@<TRIPOS>BOND
     1     1     2    1
     2     2     3   ar
     3     3     4   ar
     4     4     5   ar
     5     5     6    2
     6     5     7   ar
     7     7     8    1
     8     7     9   ar
     9     9    10    2
    10     4    11    1
    11    11    25    1
    12    25    26    1
    13    25    27    1
    14    25    28    1
    15    11    29    1
    16    29    30    1
    17    29    31    1
    18    29    32    1
    19    11    12    1
    20    12    13    2
    21    13    16    1
    22    16    17   ar
    23    17    18   ar
    24    18    19   ar
    25    19    20   ar
    26    20    22    1
    27    22    23    2
    28    22    24    1
    29    20    21   ar
    30    13    14    1
    31     9     2   ar
    32    21    16   ar
    33    14     3    1
    34    14    15    1
@<TRIPOS>MOLECULE
*****
 32 34 0 0 0
SMALL
GASTEIGER

@<TRIPOS>ATOM
      1 C          -5.4239  -16.3300   24.2186 C.3     1  UNL1        0.1384
      2 N          -5.0912  -17.3771   23.1974 N.ar    1  UNL1       -0.2481
      3 C          -6.1767  -17.9659   22.3458 C.ar    1  UNL1        0.2113
      4 C          -5.8440  -19.0131   21.3247 C.ar    1  UNL1        0.1488
      5 C          -4.4258  -19.4715   21.1552 C.ar    1  UNL1        0.2696
      6 O          -4.0931  -20.5187   20.1341 O.2     1  UNL1       -0.2669
      7 N          -3.3404  -18.8828   22.0068 N.ar    1  UNL1       -0.2467
      8 C          -1.9223  -19.3412   21.8372 C.3     1  UNL1        0.1382
      9 C          -3.6731  -17.8356   23.0279 C.ar    1  UNL1        0.3363
     10 O          -2.5876  -17.2468   23.8795 O.2     1  UNL1       -0.2461
     11 C          -6.9294  -19.6019   20.4731 C.3     1  UNL1        0.3731
     12 N          -8.3475  -19.1434   20.6427 N.2     1  UNL1       -0.0517
     13 C          -8.6802  -18.0962   21.6638 C.2     1  UNL1        0.3217
     14 N          -7.5948  -17.5075   22.5154 N.pl3   1  UNL1       -0.1852
     15 H          -7.8132  -16.8202   23.1856 H       1  UNL1        0.2999
     16 C         -10.0984  -17.6378   21.8334 C.ar    1  UNL1        0.0882
     17 C         -10.6750  -16.6202   20.8943 C.ar    1  UNL1        0.0078
     18 C         -12.0932  -16.1618   21.0638 C.ar    1  UNL1        0.0065
     19 C         -12.9347  -16.7210   22.1725 C.ar    1  UNL1        0.0753
     20 C         -12.3580  -17.7387   23.1116 C.ar    1  UNL1        0.2903
     21 C         -10.9399  -18.1970   22.9420 C.ar    1  UNL1        0.0826
     22 N         -13.1995  -18.2979   24.2202 N.pl3   1  UNL1        0.0809
     23 O         -12.5450  -18.9202   25.4178 O.2     1  UNL1        0.0415
     24 O         -14.6956  -18.2348   24.1312 O.co2   1  UNL1       -0.5760
     25 C          -7.6037  -20.4524   19.4378 C.3     1  UNL1        0.4512
     26 F          -8.2779  -21.3029   18.4024 F       1  UNL1       -0.1654
     27 F          -7.4303  -21.1587   19.7643 F       1  UNL1       -0.1654
     28 F          -8.0152  -19.2180   18.6917 F       1  UNL1       -0.1654
     29 C          -5.7454  -20.3557   19.9440 C.3     1  UNL1        0.4512
     30 F          -4.5615  -21.1096   19.4149 F       1  UNL1       -0.1654
     31 F          -5.7793  -21.4131   20.5415 F       1  UNL1       -0.1654
     32 F          -5.4903  -19.7940   19.4392 F       1  UNL1       -0.1654
@<TRIPOS>UNITY_ATOM_ATTR
22 1
charge 1
24 1
charge -1
@<TRIPOS>BOND
     1     1     2    1
     2     2     3   ar
     3     3     4   ar
     4     4     5   ar
     5     5     6    2
     6     5     7   ar
     7     7     8    1
     8     7     9   ar
     9     9    10    2
    10     4    11    1
    11    11    25    1
    12    25    26    1
    13    25    27    1
    14    25    28    1
    15    11    29    1
    16    29    30    1
    17    29    31    1
    18    29    32    1
    19    11    12    1
    20    12    13    2
    21    13    16    1
    22    16    17   ar
    23    17    18   ar
    24    18    19   ar
    25    19    20   ar
    26    20    22    1
    27    22    23    2
    28    22    24    1
    29    20    21   ar
    30    13    14    1
    31     9     2   ar
    32    21    16   ar
    33    14     3    1
    34    14    15    1
@<TRIPOS>MOLECULE
*****
 32 34 0 0 0
SMALL
GASTEIGER

@<TRIPOS>ATOM
      1 C          -6.5636  -20.7428   19.7402 C.3     1  UNL1        0.1384
      2 N          -5.6711  -19.9341   20.6344 N.ar    1  UNL1       -0.2481
      3 C          -6.2535  -18.8536   21.4966 C.ar    1  UNL1        0.2113
      4 C          -5.3609  -18.0449   22.3908 C.ar    1  UNL1        0.1488
      5 C          -3.8861  -18.3169   22.4227 C.ar    1  UNL1        0.2696
      6 O          -2.9936  -17.5082   23.3169 O.2     1  UNL1       -0.2669
      7 N          -3.3038  -19.3974   21.5605 N.ar    1  UNL1       -0.2467
      8 C          -1.8290  -19.6693   21.5925 C.3     1  UNL1        0.1382
      9 C          -4.1963  -20.2060   20.6664 C.ar    1  UNL1        0.3363
     10 O          -3.6140  -21.2866   19.8042 O.2     1  UNL1       -0.2461
     11 C          -5.9432  -16.9644   23.2529 C.3     1  UNL1        0.3731
     12 N          -7.4180  -16.6925   23.2210 N.2     1  UNL1       -0.0517
     13 C          -8.3105  -17.5012   22.3268 C.2     1  UNL1        0.3217
     14 N          -7.7282  -18.5817   21.4646 N.pl3   1  UNL1       -0.1852
     15 H          -8.3140  -19.1124   20.8778 H       1  UNL1        0.2999
     16 C          -9.7854  -17.2292   22.2949 C.ar    1  UNL1        0.0882
     17 C         -10.3526  -16.2885   21.2735 C.ar    1  UNL1        0.0078
     18 C         -11.8274  -16.0166   21.2415 C.ar    1  UNL1        0.0065
     19 C         -12.7350  -16.6854   22.2310 C.ar    1  UNL1        0.0753
     20 C         -12.1677  -17.6262   23.2524 C.ar    1  UNL1        0.2903
     21 C         -10.6929  -17.8981   23.2843 C.ar    1  UNL1        0.0826
     22 N         -13.0752  -18.2950   24.2419 N.pl3   1  UNL1        0.0809
     23 O         -12.4951  -19.0397   25.4076 O.2     1  UNL1        0.0415
     24 O         -14.5629  -18.2191   24.0656 O.co2   1  UNL1       -0.5760
     25 C          -6.0229  -15.8430   24.2460 C.3     1  UNL1        0.4512
     26 F          -6.1026  -14.7216   25.2390 F       1  UNL1       -0.1654
     27 F          -5.7990  -16.2633   24.8853 F       1  UNL1       -0.1654
     28 F          -6.4573  -14.9086   23.1560 F       1  UNL1       -0.1654
     29 C          -4.4961  -16.8468   23.6298 C.3     1  UNL1        0.4512
     30 F          -3.0490  -16.7292   24.0066 F       1  UNL1       -0.1654
     31 F          -4.1135  -15.8654   23.0244 F       1  UNL1       -0.1654
     32 F          -4.4688  -17.4825   24.1101 F       1  UNL1       -0.1654
@<TRIPOS>UNITY_ATOM_ATTR
22 1
charge 1
24 1
charge -1
@<TRIPOS>BOND
     1     1     2    1
     2     2     3   ar
     3     3     4   ar
     4     4     5   ar
     5     5     6    2
     6     5     7   ar
     7     7     8    1
     8     7     9   ar
     9     9    10    2
    10     4    11    1
    11    11    25    1
    12    25    26    1
    13    25    27    1
    14    25    28    1
    15    11    29    1
    16    29    30    1
    17    29    31    1
    18    29    32    1
    19    11    12    1
    20    12    13    2
    21    13    16    1
    22    16    17   ar
    23    17    18   ar
    24    18    19   ar
    25    19    20   ar
    26    20    22    1
    27    22    23    2
    28    22    24    1
    29    20    21   ar
    30    13    14    1
    31     9     2   ar
    32    21    16   ar
    33    14     3    1
    34    14    15    1
@<TRIPOS>MOLECULE
*****
 32 34 0 0 0
SMALL
GASTEIGER

@<TRIPOS>ATOM
      1 C           4.6703   -1.5684   26.7078 C.3     1  UNL1        0.1384
      2 N           4.2459   -1.4580   25.2733 N.ar    1  UNL1       -0.2481
      3 C           4.8168   -2.3925   24.2482 C.ar    1  UNL1        0.2113
      4 C           4.3924   -2.2821   22.8138 C.ar    1  UNL1        0.1488
      5 C           3.3971   -1.2372   22.4044 C.ar    1  UNL1        0.2696
      6 O           2.9728   -1.1268   20.9699 O.2     1  UNL1       -0.2669
      7 N           2.8263   -0.3027   23.4295 N.ar    1  UNL1       -0.2467
      8 C           1.8310    0.7423   23.0201 C.3     1  UNL1        0.1382
      9 C           3.2507   -0.4131   24.8639 C.ar    1  UNL1        0.3363
     10 O           2.6798    0.5215   25.8890 O.2     1  UNL1       -0.2461
     11 C           4.9633   -3.2166   21.7887 C.3     1  UNL1        0.3731
     12 N           5.9585   -4.2615   22.1981 N.2     1  UNL1       -0.0517
     13 C           6.3829   -4.3719   23.6326 C.2     1  UNL1        0.3217
     14 N           5.8121   -3.4374   24.6577 N.pl3   1  UNL1       -0.1852
     15 H           6.0906   -3.5099   25.5991 H       1  UNL1        0.2999
     16 C           7.3782   -5.4169   24.0420 C.ar    1  UNL1        0.0882
     17 C           8.4888   -5.8009   23.1098 C.ar    1  UNL1        0.0078
     18 C           9.4841   -6.8458   23.5191 C.ar    1  UNL1        0.0065
     19 C           9.3688   -7.5067   24.8608 C.ar    1  UNL1        0.0753
     20 C           8.2581   -7.1227   25.7930 C.ar    1  UNL1        0.2903
     21 C           7.2629   -6.0778   25.3836 C.ar    1  UNL1        0.0826
     22 N           8.1427   -7.7836   27.1346 N.pl3   1  UNL1        0.0809
     23 O           8.2673   -6.9665   28.3863 O.2     1  UNL1        0.0415
     24 O           7.9026   -9.2616   27.2244 O.co2   1  UNL1       -0.5760
     25 C           5.2194   -3.8667   20.4613 C.3     1  UNL1        0.4512
     26 F           5.4756   -4.5166   19.1340 F       1  UNL1       -0.1654
     27 F           4.5123   -4.2282   20.3922 F       1  UNL1       -0.1654
     28 F           6.5913   -3.2611   20.4296 F       1  UNL1       -0.1654
     29 C           4.0570   -2.3974   20.9183 C.3     1  UNL1        0.4512
     30 F           3.1507   -1.5783   20.0479 F       1  UNL1       -0.1654
     31 F           4.7943   -1.5669   20.4257 F       1  UNL1       -0.1654
     32 F           3.3842   -2.7941   21.0781 F       1  UNL1       -0.1654
@<TRIPOS>UNITY_ATOM_ATTR
22 1
charge 1
24 1
charge -1
@<TRIPOS>BOND
     1     1     2    1
     2     2     3   ar
     3     3     4   ar
     4     4     5   ar
     5     5     6    2
     6     5     7   ar
     7     7     8    1
     8     7     9   ar
     9     9    10    2
    10     4    11    1
    11    11    25    1
    12    25    26    1
    13    25    27    1
    14    25    28    1
    15    11    29    1
    16    29    30    1
    17    29    31    1
    18    29    32    1
    19    11    12    1
    20    12    13    2
    21    13    16    1
    22    16    17   ar
    23    17    18   ar
    24    18    19   ar
    25    19    20   ar
    26    20    22    1
    27    22    23    2
    28    22    24    1
    29    20    21   ar
    30    13    14    1
    31     9     2   ar
    32    21    16   ar
    33    14     3    1
    34    14    15    1
@<TRIPOS>MOLECULE
*****
 32 34 0 0 0
SMALL
GASTEIGER

@<TRIPOS>ATOM
      1 C           5.4471   -2.0143   28.1122 C.3     1  UNL1        0.1384
      2 N           6.3646   -3.1895   27.9477 N.ar    1  UNL1       -0.2481
      3 C           6.5517   -3.8114   26.5955 C.ar    1  UNL1        0.2113
      4 C           7.4692   -4.9866   26.4310 C.ar    1  UNL1        0.1488
      5 C           8.1997   -5.5399   27.6187 C.ar    1  UNL1        0.2696
      6 O           9.1172   -6.7150   27.4542 O.2     1  UNL1       -0.2669
      7 N           8.0125   -4.9179   28.9708 N.ar    1  UNL1       -0.2467
      8 C           8.7430   -5.4712   30.1584 C.3     1  UNL1        0.1382
      9 C           7.0950   -3.7427   29.1353 C.ar    1  UNL1        0.3363
     10 O           6.9079   -3.1208   30.4874 O.2     1  UNL1       -0.2461
     11 C           7.6564   -5.6085   25.0790 C.3     1  UNL1        0.3731
     12 N           6.9260   -5.0553   23.8914 N.2     1  UNL1       -0.0517
     13 C           6.0084   -3.8801   24.0559 C.2     1  UNL1        0.3217
     14 N           5.8213   -3.2581   25.4080 N.pl3   1  UNL1       -0.1852
     15 H           5.2191   -2.4868   25.5159 H       1  UNL1        0.2999
     16 C           5.2780   -3.3268   22.8682 C.ar    1  UNL1        0.0882
     17 C           4.3153   -2.1899   23.0427 C.ar    1  UNL1        0.0078
     18 C           3.5848   -1.6366   21.8550 C.ar    1  UNL1        0.0065
     19 C           3.8172   -2.2204   20.4930 C.ar    1  UNL1        0.0753
     20 C           4.7801   -3.3573   20.3185 C.ar    1  UNL1        0.2903
     21 C           5.5104   -3.9105   21.5062 C.ar    1  UNL1        0.0826
     22 N           5.0125   -3.9410   18.9565 N.pl3   1  UNL1        0.0809
     23 O           4.7912   -5.4057   18.7204 O.2     1  UNL1        0.0415
     24 O           5.4662   -3.0600   17.8304 O.co2   1  UNL1       -0.5760
     25 C           8.1576   -6.5343   24.0104 C.3     1  UNL1        0.4512
     26 F           8.6589   -7.4599   22.9419 F       1  UNL1       -0.1654
     27 F           7.6974   -7.1575   24.1981 F       1  UNL1       -0.1654
     28 F           9.0916   -5.4664   23.5234 F       1  UNL1       -0.1654
     29 C           8.5609   -6.4833   25.8955 C.3     1  UNL1        0.4512
     30 F           9.4653   -7.3581   26.7120 F       1  UNL1       -0.1654
     31 F           7.8600   -7.4279   26.1999 F       1  UNL1       -0.1654
     32 F           9.2088   -6.0210   25.8514 F       1  UNL1       -0.1654
@<TRIPOS>UNITY_ATOM_ATTR
22 1
charge 1
24 1
charge -1
@<TRIPOS>BOND
     1     1     2    1
     2     2     3   ar
     3     3     4   ar
     4     4     5   ar
     5     5     6    2
     6     5     7   ar
     7     7     8    1
     8     7     9   ar
     9     9    10    2
    10     4    11    1
    11    11    25    1
    12    25    26    1
    13    25    27    1
    14    25    28    1
    15    11    29    1
    16    29    30    1
    17    29    31    1
    18    29    32    1
    19    11    12    1
    20    12    13    2
    21    13    16    1
    22    16    17   ar
    23    17    18   ar
    24    18    19   ar
    25    19    20   ar
    26    20    22    1
    27    22    23    2
    28    22    24    1
    29    20    21   ar
    30    13    14    1
    31     9     2   ar
    32    21    16   ar
    33    14     3    1
    34    14    15    1
@<TRIPOS>MOLECULE
*****
 32 34 0 0 0
SMALL
GASTEIGER

@<TRIPOS>ATOM
      1 C           4.3626   -2.3709   23.2369 C.3     1  UNL1        0.1384
      2 N           4.2027   -1.9975   21.7929 N.ar    1  UNL1       -0.2481
      3 C           3.2176   -0.9379   21.3969 C.ar    1  UNL1        0.2113
      4 C           3.0577   -0.5646   19.9529 C.ar    1  UNL1        0.1488
      5 C           3.8830   -1.2508   18.9050 C.ar    1  UNL1        0.2696
      6 O           3.7231   -0.8775   17.4610 O.2     1  UNL1       -0.2669
      7 N           4.8680   -2.3104   19.3011 N.ar    1  UNL1       -0.2467
      8 C           5.6933   -2.9967   18.2532 C.3     1  UNL1        0.1382
      9 C           5.0279   -2.6838   20.7450 C.ar    1  UNL1        0.3363
     10 O           6.0130   -3.7434   21.1411 O.2     1  UNL1       -0.2461
     11 C           2.0726    0.4950   19.5568 C.3     1  UNL1        0.3731
     12 N           1.2474    1.1812   20.6047 N.2     1  UNL1       -0.0517
     13 C           1.4073    0.8079   22.0487 C.2     1  UNL1        0.3217
     14 N           2.3924   -0.2517   22.4448 N.pl3   1  UNL1       -0.1852
     15 H           2.4973   -0.4967   23.3925 H       1  UNL1        0.2999
     16 C           0.5821    1.4941   23.0966 C.ar    1  UNL1        0.0882
     17 C          -0.3111    2.6380   22.7177 C.ar    1  UNL1        0.0078
     18 C          -1.1364    3.3243   23.7656 C.ar    1  UNL1        0.0065
     19 C          -1.0684    2.8666   25.1924 C.ar    1  UNL1        0.0753
     20 C          -0.1751    1.7227   25.5714 C.ar    1  UNL1        0.2903
     21 C           0.6501    1.0365   24.5235 C.ar    1  UNL1        0.0826
     22 N          -0.1071    1.2650   26.9982 N.pl3   1  UNL1        0.0809
     23 O          -1.3214    1.3570   27.8740 O.2     1  UNL1        0.0415
     24 O           1.1752    0.7153   27.5492 O.co2   1  UNL1       -0.5760
     25 C           1.2783    1.4289   18.6926 C.3     1  UNL1        0.4512
     26 F           0.4841    2.3629   17.8284 F       1  UNL1       -0.1654
     27 F           0.8167    0.8761   18.3509 F       1  UNL1       -0.1654
     28 F           2.0560    2.5916   19.2343 F       1  UNL1       -0.1654
     29 C           2.6220    0.1331   18.2087 C.3     1  UNL1        0.4512
     30 F           3.1714   -0.2287   16.8607 F       1  UNL1       -0.1654
     31 F           3.4515    0.9932   17.9889 F       1  UNL1       -0.1654
     32 F           2.1731   -0.5152   18.0918 F       1  UNL1       -0.1654
@<TRIPOS>UNITY_ATOM_ATTR
22 1
charge 1
24 1
charge -1
@<TRIPOS>BOND
     1     1     2    1
     2     2     3   ar
     3     3     4   ar
     4     4     5   ar
     5     5     6    2
     6     5     7   ar
     7     7     8    1
     8     7     9   ar
     9     9    10    2
    10     4    11    1
    11    11    25    1
    12    25    26    1
    13    25    27    1
    14    25    28    1
    15    11    29    1
    16    29    30    1
    17    29    31    1
    18    29    32    1
    19    11    12    1
    20    12    13    2
    21    13    16    1
    22    16    17   ar
    23    17    18   ar
    24    18    19   ar
    25    19    20   ar
    26    20    22    1
    27    22    23    2
    28    22    24    1
    29    20    21   ar
    30    13    14    1
    31     9     2   ar
    32    21    16   ar
    33    14     3    1
    34    14    15    1
